#------------------------------------------------------------------------------
#$Date: 2017-06-29 11:08:52 +0300 (Thu, 29 Jun 2017) $
#$Revision: 198235 $
#$URL: file:///home/coder/svn-repositories/cod/cif/1/54/64/1546428.cif $
#------------------------------------------------------------------------------
#
# This file is available in the Crystallography Open Database (COD),
# http://www.crystallography.net/
#
# All data on this site have been placed in the public domain by the
# contributors.
#
data_1546428
loop_
_publ_author_name
'Nicolay N. Golovnev'
'Maxim S. Molokeev'
'Irina V. Sterkhova'
'Maxim K. Lesnikov'
'Victor V. Atuchin'
_publ_section_title
;
 Coordination effects in hydrated manganese(II)
 1,3-diethyl-2-thiobarbiturates and their thermal stability
;
_journal_issue                   0
_journal_name_full               Polyhedron
_journal_page_first              120
_journal_page_last               125
_journal_paper_doi               10.1016/j.poly.2017.06.002
_journal_volume                  134
_journal_year                    2017
_chemical_formula_moiety
;
C16 H30 Mn N4 O8 S2, H2 O
;
_chemical_formula_sum            'C16 H32 Mn N4 O9 S2'
_chemical_formula_weight         543.51
_space_group_crystal_system      orthorhombic
_space_group_IT_number           61
_space_group_name_Hall           '-P 2ac 2ab'
_space_group_name_H-M_alt        'P b c a'
_symmetry_space_group_name_Hall  '-P 2ac 2ab'
_symmetry_space_group_name_H-M   'P b c a'
_atom_sites_solution_hydrogens   mixed
_audit_creation_method           SHELXL-2014/7
_cell_angle_alpha                90
_cell_angle_beta                 90
_cell_angle_gamma                90
_cell_formula_units_Z            8
_cell_length_a                   11.8868(3)
_cell_length_b                   13.8324(3)
_cell_length_c                   29.9847(8)
_cell_measurement_reflns_used    23121
_cell_measurement_temperature    296(2)
_cell_measurement_theta_max      27.474
_cell_measurement_theta_min      1.358
_cell_volume                     4930.2(2)
_computing_cell_refinement       'APEX2 (Bruker, 2003-2008)'
_computing_data_collection       'APEX2 (Bruker, 2003-2008)'
_computing_data_reduction        'SAINT (Bruker, 2009)'
_computing_molecular_graphics    'DIAMOND (Brandenburg, 2005)'
_computing_publication_material  'publCIF (Westrip, 2009)'
_computing_structure_refinement  'SHELXL-2014/7 (Sheldrick, 2014)'
_computing_structure_solution    'SHELXS-97 (Sheldrick, 2008)'
_diffrn_ambient_temperature      296(2)
_diffrn_measured_fraction_theta_full 1.000
_diffrn_measured_fraction_theta_max 0.999
_diffrn_measurement_device_type  'Bruker APEX-II CCD'
_diffrn_measurement_method       '\f and \w scans'
_diffrn_radiation_type           MoK\a
_diffrn_radiation_wavelength     0.71073
_diffrn_reflns_av_R_equivalents  0.0331
_diffrn_reflns_av_unetI/netI     0.0304
_diffrn_reflns_Laue_measured_fraction_full 1.000
_diffrn_reflns_Laue_measured_fraction_max 0.999
_diffrn_reflns_limit_h_max       13
_diffrn_reflns_limit_h_min       -15
_diffrn_reflns_limit_k_max       13
_diffrn_reflns_limit_k_min       -17
_diffrn_reflns_limit_l_max       38
_diffrn_reflns_limit_l_min       -34
_diffrn_reflns_number            23121
_diffrn_reflns_point_group_measured_fraction_full 1.000
_diffrn_reflns_point_group_measured_fraction_max 0.999
_diffrn_reflns_theta_full        25.000
_diffrn_reflns_theta_max         27.474
_diffrn_reflns_theta_min         1.358
_exptl_absorpt_coefficient_mu    0.756
_exptl_absorpt_correction_T_max  0.7456
_exptl_absorpt_correction_T_min  0.6465
_exptl_absorpt_correction_type   multi-scan
_exptl_absorpt_process_details
;
SADABS (Bruker, 2004)
;
_exptl_crystal_colour            colorless
_exptl_crystal_density_diffrn    1.464
_exptl_crystal_description       block
_exptl_crystal_F_000             2280
_exptl_crystal_size_max          0.3
_exptl_crystal_size_mid          0.2
_exptl_crystal_size_min          0.1
_refine_diff_density_max         0.234
_refine_diff_density_min         -0.190
_refine_diff_density_rms         0.045
_refine_ls_extinction_coef       .
_refine_ls_extinction_method     none
_refine_ls_goodness_of_fit_ref   1.012
_refine_ls_hydrogen_treatment    mixed
_refine_ls_matrix_type           full
_refine_ls_number_parameters     323
_refine_ls_number_reflns         5642
_refine_ls_number_restraints     10
_refine_ls_restrained_S_all      1.016
_refine_ls_R_factor_all          0.0452
_refine_ls_R_factor_gt           0.0302
_refine_ls_shift/su_max          0.001
_refine_ls_shift/su_mean         0.000
_refine_ls_structure_factor_coef Fsqd
_refine_ls_weighting_details
'w=1/[\s^2^(Fo^2^)+(0.0346P)^2^+1.1261P] where P=(Fo^2^+2Fc^2^)/3'
_refine_ls_weighting_scheme      calc
_refine_ls_wR_factor_gt          0.0698
_refine_ls_wR_factor_ref         0.0760
_reflns_Friedel_coverage         0.000
_reflns_Friedel_fraction_full    .
_reflns_Friedel_fraction_max     .
_reflns_number_gt                4425
_reflns_number_total             5642
_reflns_threshold_expression     'I > 2\s(I)'
_cod_data_source_file            MnH2O4Detba2_H2O.cif
_cod_data_source_block           b
_cod_database_code               1546428
_shelx_shelxl_version_number     2014/7
_shelx_space_group_comment
;
The symmetry employed for this shelxl refinement is uniquely defined
by the following loop, which should always be used as a source of
symmetry information in preference to the above space-group names.
They are only intended as comments.
;
_shelx_res_file
;

    b.res created by SHELXL-2014/7


CELL  0.71073  11.8868  13.8324  29.9847   90.000   90.000   90.000
ZERR    8.000   0.0003   0.0003   0.0008    0.000    0.000    0.000
LATT  1
SYMM 1/2-X, -Y, 1/2+Z
SYMM -X, 1/2+Y, 1/2-Z
SYMM 1/2+X, 1/2-Y, -Z
SFAC C N O S MN H
UNIT 128 32 72 16 8 256
TEMP 23.000
DFIX 0.9 0.03 O1W H11W O1W H12W
DFIX 0.9 0.03 O2W H21W O2W H22W
DFIX 0.9 0.03 O3W H31W O3W H32W
DFIX 0.9 0.03 O4W H41W O4W H42W
DFIX 0.9 0.03 O5W H51W O5W H52W
ACTA 50
L.S. 10
BOND $H
LIST 6
FMAP 2
PLAN 20
WGHT    0.034600    1.126100
FVAR       0.30897
MN    5    0.463774    0.404247    0.377461    11.00000    0.02649    0.02776 =
         0.02931   -0.00189   -0.00453    0.00290
S1    4    0.354301    0.584691    0.165278    11.00000    0.05181    0.04415 =
         0.02499   -0.00445    0.00410   -0.00443
O1A   3    0.454130    0.490097    0.319039    11.00000    0.06114    0.04926 =
         0.04052    0.01338   -0.00741    0.01170
O2A   3    0.227523    0.764991    0.298542    11.00000    0.04262    0.04653 =
         0.04621   -0.01397    0.00720    0.01047
N1A   2    0.293113    0.677822    0.239463    11.00000    0.02817    0.02733 =
         0.02805   -0.00094    0.00037    0.00117
N3A   2    0.401507    0.539586    0.249911    11.00000    0.03035    0.02527 =
         0.02980   -0.00042    0.00238    0.00123
C2A   1    0.349438    0.601413    0.221271    11.00000    0.02713    0.02688 =
         0.02830   -0.00082    0.00275   -0.00514
C4A   1    0.399207    0.550939    0.296743    11.00000    0.03378    0.03766 =
         0.03034    0.00530   -0.00086   -0.00211
C5A   1    0.337922    0.627536    0.313408    11.00000    0.03939    0.04701 =
         0.02368   -0.00194    0.00216    0.00110
AFIX  43
H5A   6    0.332845    0.635426    0.344144    11.00000   -1.20000
AFIX   0
C6A   1    0.283904    0.692836    0.285993    11.00000    0.02698    0.03774 =
         0.03190   -0.00755    0.00428   -0.00199
C7A   1    0.232820    0.747487    0.210452    11.00000    0.04119    0.03281 =
         0.03810    0.00513   -0.00217    0.00418
AFIX  23
H71A  6    0.272611    0.753669    0.182353    11.00000   -1.20000
H72A  6    0.231862    0.810457    0.224683    11.00000   -1.20000
AFIX   0
C8A   1    0.113473    0.715287    0.201589    11.00000    0.04454    0.04302 =
         0.05485    0.00143   -0.01528    0.00520
AFIX 137
H81A  6    0.114304    0.654135    0.186453    11.00000   -1.20000
H82A  6    0.076224    0.762427    0.183312    11.00000   -1.20000
H83A  6    0.074040    0.708834    0.229371    11.00000   -1.20000
AFIX   0
C9A   1    0.465240    0.455572    0.232337    11.00000    0.05232    0.02636 =
         0.04590   -0.00397    0.00284    0.00788
AFIX  23
H91A  6    0.431129    0.434236    0.204646    11.00000   -1.20000
H92A  6    0.460606    0.402713    0.253516    11.00000   -1.20000
AFIX   0
C10A  1    0.587451    0.479762    0.224073    11.00000    0.04464    0.06780 =
         0.09736   -0.02166    0.01221    0.01733
AFIX 137
H11A  6    0.625961    0.423359    0.213352    11.00000   -1.20000
H12A  6    0.621521    0.500999    0.251398    11.00000   -1.20000
H13A  6    0.592508    0.530297    0.202220    11.00000   -1.20000
AFIX   0
S2    4    0.718571    0.001979    0.465697    11.00000    0.03304    0.03430 =
         0.04334    0.00301   -0.00307    0.00620
O1B   3    0.516557    0.305717    0.429387    11.00000    0.03997    0.02534 =
         0.03522    0.00081   -0.00886   -0.00037
O2B   3    0.324298    0.011608    0.412955    11.00000    0.03053    0.04420 =
         0.05470   -0.01174   -0.00274   -0.01119
N1B   2    0.505651    0.015400    0.438372    11.00000    0.02774    0.02573 =
         0.02817   -0.00151    0.00401   -0.00305
N3B   2    0.603617    0.161103    0.442959    11.00000    0.02357    0.02527 =
         0.02671    0.00188   -0.00087   -0.00217
C2B   1    0.603271    0.062785    0.447655    11.00000    0.02676    0.02840 =
         0.02173   -0.00015    0.00469   -0.00044
C4B   1    0.507058    0.214009    0.430527    11.00000    0.03081    0.02997 =
         0.02040   -0.00057    0.00012    0.00022
C5B   1    0.411897    0.162583    0.420220    11.00000    0.02509    0.03534 =
         0.03345   -0.00238   -0.00328    0.00309
AFIX  43
H5B   6    0.347993    0.196024    0.411153    11.00000   -1.20000
AFIX   0
C6B   1    0.407444    0.062408    0.422825    11.00000    0.02634    0.03519 =
         0.02714   -0.00634    0.00351   -0.00310
C7B   1    0.497853   -0.090584    0.444180    11.00000    0.04196    0.02689 =
         0.04095    0.00096    0.00526   -0.00702
AFIX  23
H71B  6    0.421519   -0.107306    0.452622    11.00000   -1.20000
H72B  6    0.547268   -0.110102    0.468298    11.00000   -1.20000
AFIX   0
C8B   1    0.529272   -0.146006    0.402465    11.00000    0.05927    0.03333 =
         0.05870   -0.01201    0.00529   -0.00105
AFIX 137
H81B  6    0.481348   -0.126402    0.378333    11.00000   -1.20000
H82B  6    0.520176   -0.214025    0.407704    11.00000   -1.20000
H83B  6    0.606215   -0.132735    0.394904    11.00000   -1.20000
AFIX   0
C9B   1    0.708890    0.216548    0.449827    11.00000    0.02639    0.03185 =
         0.04730    0.00937   -0.00319   -0.00727
AFIX  23
H91B  6    0.706688    0.274371    0.431546    11.00000   -1.20000
H92B  6    0.772126    0.177714    0.439971    11.00000   -1.20000
AFIX   0
C10B  1    0.727072    0.245249    0.497708    11.00000    0.04024    0.04289 =
         0.05639   -0.00442   -0.01268   -0.01018
AFIX 137
H11B  6    0.663073    0.281018    0.508152    11.00000   -1.20000
H12B  6    0.793234    0.284763    0.499907    11.00000   -1.20000
H13B  6    0.736505    0.188272    0.515601    11.00000   -1.20000
AFIX   0
O1W   3    0.641344    0.447288    0.376439    11.00000    0.04098    0.08488 =
         0.04941    0.02467   -0.01213   -0.02498
H11W  6    0.679725    0.456684    0.400459    11.00000   -1.20000
H12W  6    0.666174    0.486501    0.358520    11.00000   -1.20000
O2W   3    0.487778    0.284063    0.328379    11.00000    0.03777    0.03392 =
         0.04136   -0.00589   -0.00403    0.00660
H21W  6    0.427523    0.269374    0.316251    11.00000   -1.20000
H22W  6    0.521198    0.232812    0.334635    11.00000   -1.20000
O3W   3    0.286303    0.361639    0.375834    11.00000    0.02960    0.04762 =
         0.05023   -0.01984   -0.00526    0.00783
H31W  6    0.239771    0.405407    0.382887    11.00000   -1.20000
H32W  6    0.265645    0.335572    0.351995    11.00000   -1.20000
O4W   3    0.405335    0.513032    0.423950    11.00000    0.03480    0.05857 =
         0.06144   -0.03164   -0.00694    0.00635
H41W  6    0.441249    0.545214    0.442228    11.00000   -1.20000
H42W  6    0.338644    0.521431    0.424375    11.00000   -1.20000
O5W   3    0.530719    0.617471    0.482144    11.00000    0.04386    0.06906 =
         0.05091   -0.01991   -0.00308    0.00184
H51W  6    0.512741    0.632040    0.507757    11.00000   -1.20000
H52W  6    0.593563    0.588086    0.483184    11.00000   -1.20000
HKLF 4

REM
REM R1 =  0.0302 for    4425 Fo > 4sig(Fo)  and  0.0452 for all    5642 data
REM    323 parameters refined using     10 restraints

END

WGHT      0.0340      1.1756

REM Highest difference peak  0.234,  deepest hole -0.190,  1-sigma level  0.045
Q1    1   0.6042  0.1122  0.4487  11.00000  0.05    0.23
Q2    1   0.4278  0.4990  0.2414  11.00000  0.05    0.23
Q3    1   0.2978  0.4144  0.3592  11.00000  0.05    0.21
Q4    1   0.3335  0.5212  0.1682  11.00000  0.05    0.21
Q5    1   0.4425  0.1935  0.4388  11.00000  0.05    0.21
Q6    1   0.2837  0.6397  0.2989  11.00000  0.05    0.20
Q7    1   0.4645  0.0381  0.4278  11.00000  0.05    0.20
Q8    1   0.6026  0.5027  0.3867  11.00000  0.05    0.19
Q9    1   0.2857  0.3990  0.3521  11.00000  0.05    0.19
Q10   1   0.5664  0.1893  0.4346  11.00000  0.05    0.19
Q11   1   0.3172  0.6391  0.2325  11.00000  0.05    0.19
Q12   1   0.2679  0.0341  0.4106  11.00000  0.05    0.19
Q13   1   0.4175  0.1156  0.4101  11.00000  0.05    0.19
Q14   1   0.4290  0.5171  0.3094  11.00000  0.05    0.19
Q15   1   0.6390  0.0328  0.4660  11.00000  0.05    0.18
Q16   1   0.6776  0.0510  0.4503  11.00000  0.05    0.18
Q17   1   0.6540  0.1821  0.4429  11.00000  0.05    0.18
Q18   1   0.3405  0.5775  0.3086  11.00000  0.05    0.18
Q19   1   0.3374  0.6763  0.2986  11.00000  0.05    0.18
Q20   1   0.5568  0.0380  0.4347  11.00000  0.05    0.18
;
_shelx_res_checksum              10155
_shelx_hkl_file
;
  -1   0   0   -6.40    0.50
  -2   0   0 4045.50  111.79
  -2   0   0 3862.51  113.59
  -3   0   0   -1.90    1.30
  -3   0   0   -1.20    1.40
  -4   0   0 3841.12  108.29
  -4   0   0 3909.81  108.29
  -5   0   0   -0.40    1.90
  -5   0   0    1.90    2.20
  -6   0   0   71.99    4.80
  -6   0   0   61.69    4.70
  -7   0   0    0.00    2.10
  -7   0   0    0.00    2.60
  -8   0   0  603.04   20.60
  -9   0   0    1.60    2.80
 -10   0   0  240.28   11.70
 -11   0   0    1.40    3.30
 -12   0   0  196.88   11.40
 -13   0   0    1.80    3.70
 -14   0   0    8.20    4.80
 -15   0   0   -6.30    4.40
   0  -1   0   -9.40    0.30
   0   1   0   -8.80    0.50
  -1  -1   0   -5.10    0.60
   1  -1   0   -5.10    0.30
  -1   1   0   -3.70    0.50
   1   1   0   -5.40    0.80
  -2  -1   0  312.97    9.90
   2   1   0  285.77    9.80
  -2   1   0  305.97    9.30
  -3  -1   0    0.10    1.70
  -3   1   0    1.20    1.30
   3   1   0    0.10    1.80
  -4  -1   0 4205.28  115.19
  -4  -1   0 3930.81  115.09
  -4   1   0 4162.98  114.59
  -4   1   0 4168.18  117.09
   4   1   0 4114.79  115.09
  -5  -1   0   -2.00    2.00
  -5  -1   0    1.40    2.30
  -5   1   0    0.70    1.90
  -5   1   0   -0.40    2.00
  -6  -1   0 1497.75   44.80
  -6  -1   0 1554.84   44.90
  -6   1   0 1540.45   44.30
  -6   1   0 1463.35   44.20
  -7  -1   0   -1.10    2.40
  -7   1   0    2.70    2.50
  -7   1   0    1.40    2.20
  -8  -1   0  132.99    7.70
  -8   1   0  132.99    7.40
  -9  -1   0    7.10    3.70
  -9   1   0    0.40    3.00
 -10  -1   0  114.99    8.00
 -10   1   0  109.29    7.40
 -11  -1   0   -2.80    3.30
 -11   1   0   -3.00    2.90
 -12  -1   0   28.20    5.20
 -12   1   0   29.10    5.20
 -13  -1   0    9.50    4.40
 -13   1   0    2.20    3.90
 -14  -1   0    4.50    4.60
 -14   1   0    0.40    4.10
 -15  -1   0    0.40    4.70
 -15   1   0   -1.70    4.60
   0  -2   0 5872.21  170.48
   0   2   0 6306.87  170.98
  -1  -2   0   -4.30    1.20
   1  -2   0   -2.80    0.50
  -1   2   0   -3.10    0.60
   1   2   0   -3.00    1.20
   2  -2   0 3570.54  101.69
  -2  -2   0 3568.34  101.19
  -2   2   0 3693.03  101.69
   2   2   0 3691.03  101.19
  -3  -2   0   -1.40    1.90
   3   2   0    4.00    2.00
  -3   2   0    0.00    1.20
  -4  -2   0 5526.95  152.88
   4   2   0 5393.86  152.78
  -4   2   0 5516.65  153.18
  -5  -2   0    0.50    2.20
  -5  -2   0   -4.90    2.10
   5   2   0   -0.80    2.30
  -5   2   0   -1.30    1.80
  -6  -2   0   12.20    3.40
  -6  -2   0    2.30    2.40
  -6   2   0   11.70    2.30
  -6   2   0    1.70    2.00
  -7  -2   0    0.30    2.70
  -7   2   0    4.10    2.30
  -7   2   0   -1.00    2.10
  -8  -2   0  140.99    8.10
  -8   2   0  133.39    7.20
  -9  -2   0   -3.30    2.90
  -9   2   0   -3.20    2.50
 -10  -2   0   39.30    5.70
 -10   2   0   38.30    5.00
 -11  -2   0   -1.10    3.40
 -11   2   0    1.60    3.20
 -12  -2   0    1.70    3.80
 -12   2   0    7.10    3.70
 -13  -2   0    3.10    4.60
 -13   2   0   -4.00    3.50
 -14  -2   0   35.00    6.90
 -14   2   0   25.00    5.60
 -15  -2   0    5.20    5.50
   0  -3   0   -1.10    1.00
   0   3   0   -1.30    1.10
   1  -3   0    0.40    0.80
  -1  -3   0    0.20    1.30
   1   3   0    0.20    1.60
  -1   3   0    1.10    1.00
   2  -3   0 2478.65   69.49
  -2  -3   0 2453.15   70.79
   2   3   0 2489.15   70.79
  -2   3   0 2615.04   69.99
  -3  -3   0   -2.00    2.00
   3   3   0    1.40    2.10
  -3   3   0   -1.10    1.10
  -4  -3   0 2338.57   68.89
   4   3   0 2497.75   68.99
  -4   3   0 2378.96   67.19
  -5  -3   0   -1.40    2.40
  -5  -3   0    2.40    2.80
   5   3   0   -2.00    2.50
  -5   3   0    1.50    1.70
  -6  -3   0 7951.80  225.08
  -6  -3   0 8038.50  225.28
  -6   3   0 7990.20  223.38
   6   3   0 8297.37  225.28
  -7  -3   0    2.50    2.90
  -7   3   0   -2.10    1.80
   7   3   0    3.70    2.70
  -7   3   0   -0.70    1.90
  -8  -3   0  391.16   15.90
  -8   3   0  414.86   14.40
  -9  -3   0    0.60    3.30
  -9   3   0    0.50    2.50
 -10  -3   0  259.87   12.90
 -10   3   0  257.87   11.50
 -11  -3   0   -1.20    4.00
 -11   3   0   -0.70    2.80
 -12  -3   0  261.17   13.90
 -12   3   0  233.68   11.80
 -13  -3   0   -8.20    3.50
 -13   3   0   -2.60    3.30
 -14  -3   0   57.39    8.50
 -14   3   0   41.30    6.50
 -15  -3   0    1.20    5.00
   0  -4   0 2646.64   74.99
   0   4   0 2727.13   75.09
  -1  -4   0    1.40    1.80
   1  -4   0   -0.90    1.00
   1   4   0   -0.10    1.60
  -1   4   0   -1.20    1.20
  -2  -4   0 3061.59   87.49
   2  -4   0 3110.89   85.99
   2   4   0 3034.20   87.39
  -2   4   0 3204.08   85.99
  -3  -4   0   -0.40    2.20
  -3   4   0    1.70    1.10
   3   4   0   -0.60    2.20
  -4  -4   0  587.84   19.60
  -4   4   0  594.34   17.50
   4   4   0  595.44   19.50
  -5  -4   0    3.10    2.70
  -5  -4   0   -3.30    2.30
   5   4   0    2.20    2.40
  -5   4   0   -1.00    1.30
  -6  -4   0  891.81   29.90
  -6  -4   0  901.81   29.00
  -6   4   0  874.81   26.50
   6   4   0  909.01   28.80
  -7  -4   0    2.20    3.30
  -7   4   0   -0.90    1.70
  -8  -4   0   98.39    7.50
  -8   4   0  107.19    5.90
  -9  -4   0    3.40    3.50
  -9   4   0    1.90    2.40
 -10  -4   0  744.53   27.40
 -10   4   0  768.92   25.00
 -11  -4   0    1.50    3.90
 -11   4   0    1.50    3.00
 -12  -4   0   90.29    9.50
 -12   4   0   83.09    6.90
 -13  -4   0   -4.90    4.60
 -13   4   0   -3.50    3.20
 -14  -4   0  134.09   12.10
 -15  -4   0    8.50    5.50
   0  -5   0   -3.10    1.50
   0   5   0   -1.70    1.60
   1  -5   0   -1.30    1.20
  -1  -5   0    0.30    1.70
   1   5   0    0.30    1.90
  -1   5   0    0.20    1.40
   2  -5   0  913.21   26.00
  -2  -5   0  904.21   28.10
  -2   5   0  919.91   26.50
   2   5   0  961.00   28.10
  -3  -5   0   -0.80    2.20
  -3   5   0   -1.20    1.20
   3   5   0   -0.70    2.10
  -4  -5   0   19.80    3.60
  -4   5   0   14.00    1.70
   4   5   0   10.20    2.90
  -5  -5   0   -0.20    2.80
  -5  -5   0   -0.90    2.60
   5   5   0   -1.20    2.40
  -5   5   0   -0.30    1.40
  -6  -5   0  338.27   14.00
  -6   5   0  346.37   11.40
  -7  -5   0    1.40    3.20
  -7   5   0   -1.30    1.60
  -8  -5   0   59.39    6.70
  -8   5   0   66.79    4.80
  -9  -5   0   -1.60    3.70
  -9   5   0    0.60    2.30
 -10  -5   0    2.10    4.00
 -10   5   0    9.50    3.20
 -11  -5   0   -0.50    4.00
 -11   5   0   -0.30    2.60
 -12  -5   0    1.20    5.10
 -12   5   0    7.00    3.30
 -13  -5   0    2.80    4.60
 -14  -5   0   -0.70    4.70
   0  -6   0  190.98    7.40
   0   6   0  196.18    7.60
   1  -6   0    1.90    1.40
  -1  -6   0    0.10    1.70
   1   6   0    0.20    2.00
  -1   6   0    0.40    1.50
  -2  -6   0  741.43   24.10
   2  -6   0  776.12   22.10
   2   6   0  790.52   24.30
  -2   6   0  784.22   22.60
  -3  -6   0    0.50    2.20
   3   6   0   -0.70    2.10
  -3   6   0   -1.30    1.00
  -4  -6   0   -0.60    2.50
  -4   6   0   -0.70    1.10
   4   6   0    0.60    2.30
  -5  -6   0    4.70    3.00
  -5  -6   0    0.30    2.70
  -5   6   0   -1.10    1.20
  -6  -6   0  435.46   17.00
  -6   6   0  441.36   13.90
  -7  -6   0    4.80    3.60
  -7   6   0    1.80    1.60
  -8  -6   0  148.69    9.60
  -9  -6   0   -3.80    3.60
  -9   6   0    1.60    2.30
 -10  -6   0  982.80   34.60
 -10   6   0 1000.80   31.00
 -11  -6   0   -2.90    4.00
 -11   6   0   -3.70    2.60
 -12  -6   0   24.90    6.30
 -12   6   0   38.20    5.00
 -13  -6   0   -7.70    4.20
 -14  -6   0   81.39   10.50
   0  -7   0   -1.00    1.70
   0   7   0    1.10    1.90
   1  -7   0    1.90    1.50
  -1  -7   0    1.40    1.80
   1   7   0    0.60    2.10
  -1   7   0    1.80    1.70
  -2  -7   0  805.32   24.90
   2  -7   0  775.22   22.60
  -2   7   0  780.32   23.20
   2   7   0  771.52   24.70
  -3  -7   0   -0.80    2.80
  -3   7   0   -1.00    1.30
   3   7   0    0.20    2.50
  -4  -7   0 1202.38   38.40
  -4  -7   0 1296.37   38.50
  -4   7   0 1232.28   35.50
  -5  -7   0   -0.40    2.90
  -5   7   0   -0.90    1.30
  -6  -7   0 1028.80   33.90
  -6   7   0 1041.60   30.20
  -7  -7   0    0.50    3.20
  -7   7   0    0.60    1.60
  -8  -7   0   28.00    5.60
  -9  -7   0    1.40    4.00
  -9   7   0    0.10    2.00
 -10  -7   0  536.35   22.50
 -10   7   0  568.24   18.80
 -11  -7   0    1.00    4.60
 -11   7   0    1.00    2.60
 -12  -7   0  115.99   11.20
 -13  -7   0    5.00    5.30
 -14  -7   0    3.00    5.20
   0  -8   0  562.34   18.40
   0   8   0  595.84   18.80
   1  -8   0   -1.40    1.60
   1  -8   0    0.60    1.60
  -1  -8   0   -3.10    2.20
   1   8   0   -2.60    1.80
  -1   8   0   -0.20    1.80
  -2  -8   0  563.74   19.00
   2  -8   0  564.94   16.80
  -2   8   0  552.84   17.40
  -3  -8   0   -1.40    2.60
  -3  -8   0    1.50    2.50
  -3   8   0    0.40    1.50
  -4  -8   0 1087.19   34.90
  -4  -8   0 1116.39   35.30
  -4   8   0 1126.59   32.10
  -5  -8   0   -1.20    3.10
  -5   8   0    0.00    1.30
  -6  -8   0    5.70    3.50
  -6   8   0    4.50    1.60
  -7  -8   0   -0.90    4.00
  -7   8   0   -0.30    1.60
  -8  -8   0   70.79    7.70
  -9  -8   0    8.70    4.70
 -10  -8   0   36.90    6.60
 -10   8   0   30.10    3.70
 -11  -8   0   -2.20    4.40
 -12  -8   0   23.70    6.50
 -13  -8   0    5.50    5.50
   0  -9   0    1.60    2.00
   0  -9   0    2.80    2.30
   0   9   0   -0.20    2.20
  -1  -9   0    1.10    2.30
  -1  -9   0    0.10    2.30
   1  -9   0   -1.50    1.70
   1  -9   0    1.00    1.90
  -1   9   0    0.50    2.00
  -2  -9   0   25.50    3.80
  -2  -9   0   29.50    4.00
   2  -9   0   30.10    2.60
  -2   9   0   30.70    3.20
  -3  -9   0   -2.10    2.60
  -3  -9   0   -1.90    2.40
  -3   9   0   -0.70    1.50
  -4  -9   0 1021.30   34.10
  -4  -9   0 1140.79   34.90
  -4   9   0 1064.49   31.30
  -5  -9   0    4.80    3.70
  -5   9   0    2.00    1.70
  -6  -9   0   -0.40    3.70
  -6   9   0    4.90    1.70
  -7  -9   0    1.40    4.20
  -7   9   0    0.30    1.50
  -8  -9   0    3.40    4.20
  -9  -9   0    1.60    4.50
 -10  -9   0   -4.40    4.30
 -11  -9   0    2.20    4.70
 -12  -9   0   94.99   10.70
 -13  -9   0    5.20    5.50
   0 -10   0 2329.97   66.19
   0 -10   0 2265.17   66.19
   1 -10   0    1.60    2.00
  -1 -10   0    0.40    2.50
  -1 -10   0    2.20    2.40
   1 -10   0    2.90    1.90
   2 -10   0  522.75   16.80
  -2 -10   0  603.64   19.50
  -2 -10   0  532.45   19.30
  -3 -10   0   -1.80    2.40
  -3 -10   0    1.80    3.10
  -3  10   0    3.90    1.90
  -4 -10   0 1015.20   33.30
  -4  10   0 1012.10   30.00
  -5 -10   0   -1.20    3.40
  -5  10   0   -2.20    1.50
  -6 -10   0  878.81   30.20
  -6  10   0  837.42   25.40
  -7 -10   0    5.00    4.10
  -7  10   0    1.90    1.90
  -8 -10   0   -2.40    4.40
  -9 -10   0   -1.60    4.80
 -10 -10   0   74.09    9.10
 -11 -10   0   -7.10    5.20
 -12 -10   0  110.69   11.70
   0 -11   0    7.70    2.70
   0 -11   0    1.80    2.40
   1 -11   0    0.00    2.00
   1 -11   0   -0.40    1.90
  -1 -11   0   -0.20    2.80
  -1 -11   0    1.80    2.60
   2 -11   0   34.60    3.10
  -2 -11   0   33.30    4.70
  -2 -11   0   34.40    4.80
  -3 -11   0   -4.30    3.00
  -3 -11   0   -2.70    3.30
  -4 -11   0   31.50    5.50
  -5 -11   0   -1.00    3.70
  -6 -11   0    0.70    3.70
  -7 -11   0    6.10    4.30
  -8 -11   0  152.08   11.00
  -9 -11   0   -4.80    4.20
 -10 -11   0    2.30    5.00
 -11 -11   0   -2.20    4.70
 -12 -11   0    6.50    6.30
   0 -12   0  813.32   25.30
   0 -12   0  747.23   25.00
   1 -12   0    0.70    2.20
   1 -12   0   -0.90    2.00
  -1 -12   0   -1.00    2.60
  -1 -12   0    0.40    2.70
  -2 -12   0  157.18    9.10
   2 -12   0  164.78    6.60
  -2 -12   0  165.48    9.20
  -3 -12   0   -3.10    2.80
  -3 -12   0    0.30    2.70
  -4 -12   0   35.60    5.40
  -5 -12   0   -3.20    3.20
  -6 -12   0    8.40    4.80
  -7 -12   0   -3.80    3.70
  -8 -12   0    2.60    4.40
  -9 -12   0    0.10    4.60
 -10 -12   0   33.70    8.00
 -11 -12   0   -0.20    5.50
   0 -13   0    0.40    2.80
   1 -13   0    0.00    2.40
  -1 -13   0    1.30    3.10
   2 -13   0   -1.80    1.60
  -2 -13   0    1.10    3.30
   2 -13   0    0.20    1.50
  -3 -13   0    3.20    3.70
  -4 -13   0  146.29    9.90
  -5 -13   0   -6.10    3.60
  -6 -13   0  210.48   12.90
  -7 -13   0    3.40    4.50
  -8 -13   0  142.59   11.90
  -9 -13   0   -0.50    4.70
 -10 -13   0   12.30    6.40
   0 -14   0   38.50    4.60
  -1 -14   0   -2.50    2.90
   1 -14   0    1.30    2.40
   2 -14   0   62.89    3.80
  -2 -14   0   63.89    6.70
  -3 -14   0   -0.70    3.50
  -4 -14   0   -2.00    3.40
  -5 -14   0    6.00    4.40
  -6 -14   0    8.50    4.90
  -7 -14   0    8.10    4.80
  -8 -14   0   25.90    6.70
  -9 -14   0    4.90    5.30
   0 -15   0    0.50    2.80
   1 -15   0    0.50    2.30
  -1 -15   0    0.10    3.10
   2 -15   0    2.80    1.70
  -2 -15   0    1.50    3.60
  -3 -15   0   -1.40    3.60
  -4 -15   0   16.90    5.10
  -5 -15   0   -0.20    3.80
  -6 -15   0   40.30    7.00
  -7 -15   0    2.90    4.60
  -8 -15   0   16.30    6.10
   0 -16   0   78.79    6.60
   1 -16   0    0.80    2.30
  -1 -16   0    1.30    3.50
  -2 -16   0  534.55   20.60
  -3 -16   0    2.60    3.90
  -4 -16   0   -4.00    3.90
  -5 -16   0    1.30    4.90
  -6 -16   0   63.79    8.80
   0 -17   0   -0.50    2.90
  -1 -17   0   -1.30    3.20
  -2 -17   0   10.70    4.40
  -3 -17   0   -0.90    4.40
  -4 -17   0   64.89    8.00
 -15   0   1    5.30    4.40
 -14   0   1   -2.70    4.00
 -13   0   1   -0.90    3.80
 -12   0   1    0.30    3.30
 -11   0   1   -3.60    2.90
 -10   0   1   -1.30    2.90
  -9   0   1    5.30    2.90
  -8   0   1    4.40    2.90
  -7   0   1    4.10    2.70
  -7   0   1   -2.10    2.10
  -6   0   1    0.50    2.20
  -6   0   1    1.70    2.30
  -5   0   1    2.10    2.20
  -5   0   1   -1.40    2.00
  -4   0   1    0.40    1.70
  -3   0   1   -0.90    1.30
   3   0  -1   -0.90    1.30
   2   0  -1   -2.30    1.10
  -2   0   1   -1.20    1.20
   1   0  -1   -1.90    0.40
  -1   0   1   -1.10    0.40
   0   0   1    0.00    0.10
   0   0  -1   -0.50    0.30
   1   0   1   -1.80    0.40
  -1   0  -1   -1.10    0.70
   2   0   1   -3.20    1.00
  -2   0  -1   -3.00    1.10
  -3   0  -1   -0.20    1.40
  -3   0  -1   10.90    1.90
  -4   0  -1   -2.70    1.90
  -4   0  -1    0.30    1.90
  -5   0  -1   -0.70    1.90
  -5   0  -1    0.60    2.10
  -6   0  -1   -0.50    2.10
  -6   0  -1    0.00    2.30
  -7   0  -1   -0.60    2.50
  -7   0  -1   -2.30    2.20
  -8   0  -1   -2.80    2.70
  -9   0  -1   -2.80    3.00
 -10   0  -1   -1.10    3.60
 -11   0  -1   -0.30    3.50
 -12   0  -1    3.30    3.60
 -13   0  -1   -5.00    3.30
 -14   0  -1   -2.10    3.70
 -15   0  -1   -4.40    3.80
 -15  -1   1   28.60    6.70
 -15   1   1   16.90    5.50
 -14  -1   1    6.80    4.60
 -14   1   1    2.20    4.30
 -13  -1   1  241.38   13.20
 -13   1   1  255.17   13.20
 -12  -1   1   -3.20    3.60
 -12   1   1    2.00    3.30
 -11  -1   1  138.79    9.40
 -11   1   1  132.49    8.80
 -10  -1   1  467.65   18.30
 -10   1   1  482.75   17.90
  -9  -1   1  603.14   21.30
  -9   1   1  597.34   20.60
  -8  -1   1  257.57   11.50
  -8   1   1  293.27   11.40
  -7  -1   1   26.50    3.90
  -7   1   1   27.60    3.70
  -7   1   1   33.30    3.80
  -6  -1   1 1239.58   37.20
  -6  -1   1 1232.78   37.30
  -6   1   1 1235.48   36.70
  -6   1   1 1249.07   36.70
  -5  -1   1  112.19    6.00
   5   1  -1  118.19    6.20
  -5   1   1  122.19    5.60
  -5   1   1  110.29    5.50
  -4  -1   1  540.65   17.30
  -4   1   1  551.34   16.70
  -4   1   1  542.45   16.70
   4   1  -1  553.94   17.40
  -3  -1   1 1976.80   56.39
   3   1  -1 1957.80   56.29
  -3   1   1 2033.90   55.69
  -2  -1   1 6047.00  167.58
   2   1  -1 5595.94  163.88
  -2   1   1 5908.71  163.28
  -1  -1   1   -2.60    0.80
   1   1  -1    1.30    1.10
   0  -1  -1   -1.10    0.30
   0  -1  -1   -1.00    0.20
   0  -1   1   -0.70    0.40
   0   1   1   -1.30    0.30
   0   1   1   -0.70    0.50
   0   1  -1   -0.80    0.60
  -1  -1  -1   -2.80    0.80
  -1  -1  -1    4.40    1.10
   1  -1   1   -2.40    0.60
   1   1   1    3.70    1.20
   1   1   1   -0.10    0.90
   2  -1   1 5734.53  165.38
  -2  -1  -1 5767.02  166.18
  -2  -1  -1 5986.80  165.18
   2   1   1 5853.71  166.68
  -2   1  -1 5980.90  164.08
   3  -1   1 1874.01   54.69
  -3  -1  -1 1939.71   55.29
  -3  -1  -1 2023.60   55.39
  -3   1  -1 1968.70   54.79
  -4  -1  -1  488.75   16.40
  -4  -1  -1  526.05   16.70
  -4   1  -1  538.85   16.10
  -5  -1  -1  129.09    6.30
  -5  -1  -1  119.69    6.20
  -5   1  -1  116.79    5.80
  -5   1  -1  126.89    5.80
  -6  -1  -1 1268.77   37.90
  -6  -1  -1 1224.38   37.70
  -6   1  -1 1300.97   37.50
  -6   1  -1 1237.38   37.30
  -7  -1  -1   23.00    3.90
  -7   1  -1   29.70    3.70
  -7   1  -1   23.00    3.30
  -8  -1  -1  269.77   11.90
  -8   1  -1  299.57   11.80
  -9  -1  -1  584.34   20.90
  -9   1  -1  577.94   20.40
 -10  -1  -1  497.05   18.90
 -10   1  -1  460.15   18.00
 -11  -1  -1  146.99    9.80
 -11   1  -1  148.59    8.90
 -12  -1  -1    1.60    3.60
 -12   1  -1   -2.60    3.50
 -13  -1  -1  242.68   13.60
 -13   1  -1  240.88   12.70
 -14  -1  -1    4.80    4.50
 -14   1  -1    7.40    4.50
 -15  -1  -1   22.90    6.60
 -15   1  -1   14.90    5.60
 -15  -2   1    6.90    5.80
 -14  -2   1   78.19    9.00
 -14   2   1   69.19    8.00
 -13  -2   1    3.00    4.00
 -13   2   1    0.40    3.50
 -12  -2   1  157.48   10.30
 -12   2   1  161.68    9.70
 -11  -2   1  187.48   11.20
 -11   2   1  179.98    9.80
 -10  -2   1   74.29    7.30
 -10   2   1   90.89    6.70
  -9  -2   1  396.46   16.20
  -9   2   1  435.66   15.50
  -8  -2   1   34.50    4.70
  -8   2   1   33.80    3.90
  -7  -2   1  288.57   12.30
  -7   2   1  305.77   11.20
  -7   2   1  303.77   11.20
  -6  -2   1   18.20    3.40
  -6  -2   1   21.70    3.40
   6   2  -1   22.90    3.50
  -6   2   1   14.00    2.50
  -6   2   1   12.80    2.50
  -5  -2   1  870.81   27.70
   5   2  -1  929.11   27.80
  -5   2   1  903.31   26.50
  -5   2   1  890.71   26.60
  -4  -2   1 6319.57  179.88
  -4   2   1 6231.48  175.68
   4   2  -1 6405.06  175.88
  -3  -2   1  145.49    6.30
  -3   2   1  140.69    4.90
   3   2  -1  135.29    6.10
  -2  -2   1 4171.28  118.69
   2   2  -1 4155.18  116.19
  -2   2   1 4214.48  116.29
  -1  -2   1 1049.49   30.80
   1   2  -1 1097.29   30.80
   0  -2  -1  291.17    9.00
   0  -2  -1  306.07    9.10
   0  -2   1  295.27    9.20
   0   2   1  319.77    9.10
   0   2  -1  320.47    9.30
   1  -2   1 1070.39   30.50
  -1  -2  -1 1082.99   31.00
  -1  -2  -1 1061.49   31.00
  -1   2  -1 1124.29   30.50
   1   2   1 1078.99   31.00
  -2  -2  -1 4032.30  116.19
   2  -2   1 3980.50  114.89
  -2  -2  -1 4235.88  113.89
   2   2   1 4134.79  113.89
  -2   2  -1 4074.69  115.09
  -3  -2  -1  134.59    6.00
   3  -2   1  135.99    5.00
  -3  -2  -1  143.19    6.20
   3   2   1  141.69    6.20
  -3   2  -1  138.29    5.10
  -4  -2  -1 6316.27  174.38
  -4  -2  -1 6376.66  174.48
  -4   2  -1 6027.40  174.58
   4   2   1 6337.77  174.38
  -5  -2  -1  917.91   27.50
  -5  -2  -1  844.62   27.10
  -5   2  -1  877.51   26.20
  -6  -2  -1   18.40    3.40
  -6  -2  -1   15.00    3.20
  -6   2  -1   13.70    2.60
  -7  -2  -1  287.67   12.30
  -7   2  -1  315.17   11.50
  -7   2  -1  316.97   11.70
  -8  -2  -1   37.40    5.00
  -8   2  -1   35.20    4.30
  -9  -2  -1  436.46   17.00
  -9   2  -1  430.56   15.90
 -10  -2  -1   89.79    8.10
 -10   2  -1   85.89    6.80
 -11  -2  -1  163.08   10.30
 -11   2  -1  172.08    9.60
 -12  -2  -1  162.68   10.40
 -12   2  -1  146.39    9.50
 -13  -2  -1    7.00    4.50
 -13   2  -1    2.80    3.80
 -14  -2  -1   77.59    9.10
 -14   2  -1   75.19    8.10
 -15  -2  -1    5.10    4.90
 -15  -3   1    9.50    5.90
 -14  -3   1    3.50    4.50
 -14   3   1   -3.40    3.70
 -13  -3   1    6.00    5.20
 -13   3   1    6.00    3.80
 -12  -3   1   22.20    5.60
 -12   3   1   15.30    4.20
 -11  -3   1  112.09    9.30
 -11   3   1  107.09    7.40
 -10  -3   1    6.00    3.90
 -10   3   1    9.20    3.20
  -9  -3   1   74.49    7.20
  -9   3   1   80.19    5.60
  -8  -3   1   10.90    3.70
  -8   3   1   17.30    3.00
  -7  -3   1   30.90    4.40
  -7   3   1   32.60    3.40
   7   3  -1   27.90    4.40
  -7   3   1   31.60    3.30
  -6  -3   1  281.97   11.50
  -6  -3   1  250.77   11.30
  -6   3   1  283.97    9.80
   6   3  -1  275.47   11.40
  -6   3   1  278.37    9.80
  -5  -3   1 4210.58  117.19
  -5   3   1 4134.59  115.19
   5   3  -1 4083.99  116.99
  -4  -3   1 2401.66   66.89
  -4   3   1 2322.57   64.99
   4   3  -1 2262.67   66.69
  -3  -3   1    4.80    2.30
   3   3  -1    0.10    2.00
  -3   3   1    2.20    1.00
  -2  -3   1  226.38    8.40
   2   3  -1  230.98    8.40
  -2   3   1  232.98    6.70
  -1  -3   1  112.69    4.60
   1  -3  -1  101.39    3.30
  -1   3   1  102.69    3.50
   1   3  -1   97.49    4.50
   0  -3   1   -0.20    1.20
   0  -3  -1   -1.20    1.10
   0  -3  -1   -1.50    1.10
   0   3   1   -2.40    1.10
   0   3  -1   -1.60    1.10
   1  -3   1  101.49    3.80
  -1  -3  -1  107.79    4.60
  -1  -3  -1   97.99    4.40
   1   3   1  109.69    4.70
  -1   3  -1  105.09    3.90
   2  -3   1  223.28    7.10
  -2  -3  -1  229.78    8.40
  -2  -3  -1  233.48    8.40
   2   3   1  229.98    8.40
  -2   3  -1  243.68    7.30
   3  -3   1    0.60    1.00
  -3  -3  -1   -0.40    2.10
  -3  -3  -1    0.40    2.10
   3   3   1    0.50    2.00
  -3   3  -1    2.40    1.30
  -4  -3  -1 2521.35   67.59
   4  -3   1 2322.77   65.49
  -4  -3  -1 2303.87   67.19
   4   3   1 2279.87   67.19
  -4   3  -1 2302.07   65.69
  -5  -3  -1 4105.49  119.19
  -5  -3  -1 4305.47  119.59
  -5   3  -1 4074.69  117.69
   5   3   1 4422.76  119.49
  -6  -3  -1  273.57   11.60
  -6  -3  -1  271.77   11.40
  -6   3  -1  271.87   10.00
   6   3   1  291.27   11.70
  -7  -3  -1   26.00    4.20
  -7   3  -1   33.20    3.60
  -8  -3  -1   13.20    3.90
  -8   3  -1   10.70    2.90
  -9  -3  -1   81.09    7.40
  -9   3  -1   75.99    5.80
 -10  -3  -1    6.30    4.40
 -10   3  -1    7.30    3.50
 -11  -3  -1  100.59    9.20
 -11   3  -1   95.29    7.20
 -12  -3  -1   14.00    4.90
 -12   3  -1   12.80    4.00
 -13  -3  -1    7.80    4.80
 -13   3  -1   15.70    4.50
 -14  -3  -1    5.30    4.80
 -14   3  -1   -3.10    3.50
 -15  -3  -1   -9.30    4.40
 -15  -4   1    4.10    5.10
 -14  -4   1   13.20    5.60
 -13  -4   1   -0.80    4.30
 -13   4   1    3.50    3.70
 -12  -4   1  219.18   12.80
 -12   4   1  196.48   10.30
 -11  -4   1    7.90    4.40
 -11   4   1   13.40    3.60
 -10  -4   1    4.20    4.00
 -10   4   1    8.00    3.00
  -9  -4   1  393.06   16.30
  -9   4   1  374.36   13.90
  -8  -4   1  246.58   11.80
  -8   4   1  238.68    9.60
  -7  -4   1  508.05   19.10
  -7   4   1  532.85   16.90
  -7   4   1  534.05   16.90
  -6  -4   1    1.80    3.00
  -6   4   1    5.90    1.80
   6   4  -1    9.40    3.10
  -5  -4   1  272.17   11.30
   5   4  -1  282.67   11.30
  -5   4   1  275.57    9.10
  -4  -4   1  661.53   21.20
   4   4  -1  625.34   20.90
  -4   4   1  651.23   18.70
  -3  -4   1  416.86   15.00
   3   4  -1  479.05   15.20
  -3   4   1  448.16   12.90
  -2  -4   1   61.69    4.50
   2   4  -1   55.99    4.20
  -2   4   1   61.19    2.50
   1  -4  -1   64.19    2.70
  -1  -4   1   68.89    4.10
  -1   4   1   62.99    2.90
   1   4  -1   67.09    3.90
   0  -4  -1   96.59    4.20
   0  -4   1  101.39    4.40
   0  -4  -1   98.29    4.20
   0   4  -1   99.79    4.50
   0   4   1  101.89    4.40
  -1  -4  -1   64.49    3.90
   1  -4   1   63.99    3.10
  -1   4  -1   65.69    3.30
   1   4   1   69.29    3.80
  -2  -4  -1   53.69    4.00
  -2  -4  -1   56.09    4.00
   2  -4   1   56.09    2.60
   2   4   1   57.29    4.10
  -2   4  -1   60.89    3.00
  -3  -4  -1  444.96   15.10
   3  -4   1  439.66   13.10
  -3  -4  -1  441.46   15.10
   3   4   1  473.05   15.30
  -3   4  -1  449.36   13.40
  -4  -4  -1  644.14   21.10
  -4  -4  -1  679.13   21.30
   4  -4   1  640.54   18.80
  -4   4  -1  648.54   19.30
   4   4   1  652.13   21.10
  -5  -4  -1  266.67   11.20
  -5  -4  -1  286.17   11.60
  -5   4  -1  273.97    9.50
   5   4   1  297.77   11.50
  -6  -4  -1    3.60    3.20
  -6  -4  -1    5.20    3.30
   6   4   1    6.30    2.90
  -6   4  -1    8.70    2.20
  -7  -4  -1  538.55   19.70
  -7   4  -1  542.05   17.50
  -8  -4  -1  254.67   12.30
  -8   4  -1  242.68    9.90
  -9  -4  -1  351.86   15.60
  -9   4  -1  368.76   13.60
 -10  -4  -1    8.60    4.90
 -10   4  -1    9.20    3.20
 -11  -4  -1    8.10    4.40
 -11   4  -1    6.70    3.20
 -12  -4  -1  217.68   12.80
 -12   4  -1  205.28   10.70
 -13  -4  -1   -4.30    4.00
 -13   4  -1    0.90    3.80
 -14  -4  -1   17.80    6.40
 -15  -4  -1  -10.40    4.40
 -14  -5   1    3.80    5.00
 -13  -5   1   33.50    7.20
 -12  -5   1    6.20    4.90
 -12   5   1   -0.10    2.80
 -11  -5   1  226.18   12.90
 -11   5   1  210.88   10.00
 -10  -5   1    2.20    3.90
 -10   5   1    1.70    2.70
  -9  -5   1    3.50    3.90
  -9   5   1    3.50    2.40
  -8  -5   1 1308.97   41.20
  -8   5   1 1268.77   37.90
  -8   5   1 1270.87   37.90
  -7  -5   1  465.45   18.00
  -7   5   1  471.45   15.10
  -6  -5   1  154.48    8.80
  -6   5   1  155.48    6.10
  -5  -5   1 2078.39   60.89
   5   5  -1 2060.89   60.69
  -5   5   1 2050.19   57.79
  -4  -5   1   76.89    5.50
  -4   5   1   62.79    2.90
   4   5  -1   65.69    5.10
  -3  -5   1   14.70    3.00
   3   5  -1   17.90    3.10
  -3   5   1   21.50    1.60
  -2  -5   1 1327.27   39.30
   2   5  -1 1301.87   39.20
  -2   5   1 1368.66   37.50
  -1  -5   1  434.16   14.60
   1  -5  -1  454.85   13.50
   1   5  -1  477.55   14.80
  -1   5   1  449.06   13.70
   0  -5  -1   -1.30    1.40
   0  -5   1   -1.70    1.50
   0  -5  -1    0.70    1.50
   0   5  -1    2.40    1.70
   0   5   1   -1.60    1.50
   1  -5   1  440.26   13.80
  -1  -5  -1  470.95   14.60
  -1  -5  -1  457.65   14.70
  -1   5  -1  440.86   14.00
   1   5   1  467.65   14.70
  -2  -5  -1 1425.06   40.80
   2  -5   1 1341.27   39.10
  -2  -5  -1 1391.26   40.90
   2   5   1 1391.66   40.70
  -2   5  -1 1407.46   39.40
  -3  -5  -1   27.70    3.50
   3  -5   1   23.60    1.70
  -3  -5  -1   23.00    3.30
   3   5   1   22.70    3.30
  -3   5  -1   24.00    2.10
  -4  -5  -1   53.69    5.10
  -4  -5  -1   68.89    5.20
   4  -5   1   68.59    2.70
   4   5   1   65.99    5.10
  -4   5  -1   73.79    3.50
  -5  -5  -1 1978.60   59.19
  -5  -5  -1 2042.40   59.49
  -5   5  -1 2020.40   56.89
   5   5   1 2008.80   59.39
  -6  -5  -1  154.38    8.60
  -6   5  -1  150.28    6.30
  -7  -5  -1  505.35   19.10
  -7   5  -1  503.85   16.30
  -8  -5  -1 1298.87   41.60
  -9  -5  -1    4.10    3.90
  -9   5  -1   -0.80    2.20
 -10  -5  -1    1.80    4.40
 -10   5  -1    1.90    2.80
 -11  -5  -1  231.18   13.20
 -11   5  -1  232.08   10.70
 -12  -5  -1   -7.20    3.70
 -12   5  -1   -2.50    3.00
 -13  -5  -1   26.40    6.50
 -14  -5  -1   -2.50    4.70
 -14  -6   1   16.60    6.80
 -13  -6   1    1.90    4.60
 -12  -6   1   71.49    8.80
 -11  -6   1   16.40    5.10
 -11   6   1    9.60    3.30
 -10  -6   1  178.68   11.60
 -10   6   1  201.98    8.90
  -9  -6   1   20.60    5.00
  -9   6   1   20.80    3.20
  -8  -6   1   14.00    4.40
  -8   6   1   10.60    2.40
  -8   6   1   15.20    2.60
  -7  -6   1  191.98   10.30
  -7   6   1  175.48    7.00
  -6  -6   1  328.27   14.00
  -6   6   1  335.17   10.70
  -5  -6   1   33.90    4.80
  -5   6   1   47.90    2.80
  -4  -6   1    7.10    3.00
   4   6  -1   15.10    3.40
  -4   6   1    7.90    1.30
  -3  -6   1  388.16   14.20
  -3   6   1  394.16   11.60
   3   6  -1  361.66   13.70
   2  -6  -1   11.90    1.10
  -2  -6   1   11.30    2.70
   2  -6  -1   11.50    1.10
   2   6  -1   12.00    2.70
  -2   6   1   13.20    1.70
  -1  -6   1  170.18    7.40
   1  -6  -1  184.68    6.40
   1  -6  -1  186.98    6.40
   1   6  -1  176.18    7.60
  -1   6   1  184.08    6.70
   0  -6  -1  288.27   10.00
   0  -6  -1  311.07   10.10
   0  -6   1  288.27   10.20
   0   6   1  291.37   10.10
   0   6  -1  291.67   10.20
   1  -6   1  178.78    6.60
  -1  -6  -1  175.58    7.20
  -1  -6  -1  174.28    7.40
  -1   6  -1  183.18    6.90
   1   6   1  173.98    7.40
   2  -6   1   11.00    1.60
  -2  -6  -1   15.20    2.80
  -2  -6  -1   13.40    2.80
   2   6   1    8.00    2.50
  -2   6  -1   13.70    2.00
  -3  -6  -1  430.26   14.30
  -3  -6  -1  386.86   14.20
   3  -6   1  393.76   11.60
   3   6   1  374.76   14.00
  -3   6  -1  383.76   12.20
  -4  -6  -1    7.00    3.10
  -4  -6  -1   10.10    3.30
  -4   6  -1    8.80    1.70
   4   6   1    8.30    2.80
  -5  -6  -1   45.80    5.20
  -5  -6  -1   34.20    4.70
  -5   6  -1   40.00    3.00
  -6  -6  -1  345.67   14.40
  -6   6  -1  343.57   11.50
  -7  -6  -1  202.08   10.60
  -7   6  -1  183.78    7.50
  -8  -6  -1   12.60    4.40
  -9  -6  -1   21.80    5.30
  -9   6  -1   29.20    3.70
 -10  -6  -1  205.38   12.20
 -10   6  -1  201.18    9.40
 -11  -6  -1   13.20    5.30
 -11   6  -1   13.00    3.50
 -12  -6  -1   58.89    8.60
 -12   6  -1   78.09    6.90
 -13  -6  -1    1.90    4.90
 -14  -6  -1   23.30    7.00
 -14  -7   1   13.60    6.30
 -13  -7   1   -0.30    4.90
 -12  -7   1   12.30    5.60
 -11  -7   1   51.39    7.70
 -11   7   1   53.49    5.10
 -10  -7   1   20.40    5.60
 -10   7   1   16.70    3.20
  -9  -7   1   15.90    4.90
  -9   7   1   10.30    2.50
  -8  -7   1  135.99    9.50
  -8   7   1  130.79    6.00
  -7  -7   1   21.60    4.80
  -7   7   1   24.30    2.50
  -6  -7   1    6.70    3.70
  -6   7   1    5.20    1.50
  -5  -7   1  470.15   17.50
  -5   7   1  448.46   13.80
  -4  -7   1   16.30    3.80
  -4   7   1   17.80    1.80
  -3  -7   1  100.79    6.70
   3   7  -1  110.69    6.40
  -3   7   1  106.69    4.30
  -2  -7   1  118.39    6.60
   2  -7  -1  112.59    4.10
   2  -7  -1  111.39    4.10
   2   7  -1  113.29    6.50
  -2   7   1  110.19    4.80
  -1  -7   1  152.28    7.20
   1  -7  -1  170.88    6.30
   1  -7  -1  170.38    6.30
   1   7  -1  175.28    7.70
  -1   7   1  168.18    6.60
   0  -7  -1    1.10    1.70
   0  -7  -1    0.00    1.70
   0  -7   1   -1.00    1.70
   0   7  -1    1.60    1.90
   0   7   1    1.10    1.90
  -1  -7  -1  182.98    7.50
   1  -7   1  160.18    6.50
  -1  -7  -1  177.48    7.40
  -1   7  -1  154.58    6.70
   1   7   1  164.28    7.40
  -2  -7  -1  118.99    6.40
  -2  -7  -1  119.89    6.30
   2  -7   1  112.39    4.70
   2   7   1  111.79    6.40
  -2   7  -1  112.39    5.10
   3  -7   1  102.69    3.90
  -3  -7  -1  127.89    6.70
  -3  -7  -1   97.19    6.30
   3   7   1  113.19    6.40
  -3   7  -1  109.89    4.80
  -4  -7  -1   16.20    3.50
  -4  -7  -1   17.50    4.00
  -4   7  -1   23.00    2.40
  -5  -7  -1  451.25   18.20
  -5  -7  -1  472.15   17.40
  -5   7  -1  448.36   14.20
  -6  -7  -1    4.20    3.40
  -6   7  -1    6.70    1.80
  -7  -7  -1   19.10    4.70
  -7   7  -1   21.60    2.70
  -8  -7  -1  129.99    9.50
  -9  -7  -1   12.50    4.90
 -10  -7  -1   10.60    5.20
 -10   7  -1    7.10    2.90
 -11  -7  -1   50.59    7.70
 -11   7  -1   48.50    5.20
 -12  -7  -1   11.10    5.30
 -13  -7  -1    7.50    5.80
 -14  -7  -1    5.20    6.00
 -13  -8   1    6.90    5.50
 -12  -8   1   -0.40    4.70
 -11  -8   1   25.40    6.20
 -10  -8   1   67.19    8.30
 -10   8   1   48.70    4.40
  -9  -8   1  204.68   12.30
  -9   8   1  194.88    8.10
  -8  -8   1   16.00    5.00
  -8   8   1   11.60    2.30
  -7  -8   1  441.76   18.50
  -7   8   1  459.05   14.20
  -6  -8   1   46.50    5.90
  -6   8   1   45.90    3.00
  -5  -8   1  153.68    9.20
  -5   8   1  162.98    5.90
  -4  -8   1  661.63   23.00
  -4   8   1  662.93   19.60
  -3  -8   1  508.05   18.40
  -3   8   1  529.05   15.90
   2  -8  -1  601.84   19.00
   2  -8  -1  682.33   19.10
  -2  -8   1  661.83   21.80
  -2   8   1  683.73   20.00
  -1  -8   1  465.45   15.70
   1  -8  -1  463.35   14.40
   1  -8  -1  441.66   14.20
  -1   8   1  443.06   14.60
   1   8  -1  437.16   15.50
   0  -8   1  395.46   12.90
   0  -8  -1  342.97   12.50
   0  -8  -1  357.66   12.50
   0   8   1  363.26   12.80
   0   8  -1  373.36   12.90
   1  -8   1  426.36   14.30
  -1  -8  -1  453.55   15.20
  -1  -8  -1  451.25   15.20
  -1   8  -1  435.96   14.50
   1   8   1  438.26   15.20
  -2  -8  -1  665.83   22.30
  -2  -8  -1  710.13   22.40
   2  -8   1  697.33   20.50
  -2   8  -1  665.03   20.90
  -3  -8  -1  505.65   18.10
  -3  -8  -1  513.15   17.90
   3  -8   1  506.25   14.90
  -3   8  -1  514.15   16.00
  -4  -8  -1  657.03   22.40
  -4  -8  -1  646.84   22.50
  -4   8  -1  650.43   19.70
  -5  -8  -1  163.58    9.70
  -5   8  -1  175.68    6.70
  -6  -8  -1   54.09    6.20
  -6   8  -1   48.20    3.50
  -7  -8  -1  417.66   17.90
  -7   8  -1  440.96   14.20
  -8  -8  -1   15.30    5.40
  -9  -8  -1  191.38   11.90
 -10  -8  -1   47.80    7.40
 -10   8  -1   54.99    5.00
 -11  -8  -1   29.50    6.70
 -12  -8  -1    4.80    5.00
 -13  -8  -1    1.70    5.10
 -13  -9   1  145.69   13.70
 -12  -9   1   15.60    6.20
 -11  -9   1   13.40    5.90
 -10  -9   1   33.10    6.70
  -9  -9   1   87.29    9.20
  -9   9   1   87.29    4.90
  -8  -9   1  260.27   13.70
  -8   9   1  246.58    8.90
  -7  -9   1    4.90    4.20
  -7   9   1    2.30    1.60
  -6  -9   1  244.38   12.40
  -6   9   1  234.28    8.10
  -5  -9   1  713.03   25.40
  -5   9   1  726.23   21.40
  -4  -9   1   21.80    4.30
  -4  -9   1   21.60    4.20
  -4   9   1   16.40    2.10
  -3  -9   1  455.45   16.90
  -3   9   1  447.46   14.30
   2  -9  -1   29.90    2.40
  -2  -9   1   32.70    4.50
  -2   9   1   34.50    3.20
  -1  -9   1  528.35   17.80
   1  -9  -1  510.65   16.40
   1  -9  -1  505.25   16.40
  -1   9   1  535.25   17.00
   0  -9  -1    1.20    1.80
   0  -9   1   -1.30    2.20
   0  -9  -1    3.10    2.10
   0   9   1    2.80    2.10
  -1  -9  -1  534.55   17.70
   1  -9   1  523.65   16.80
  -1  -9  -1  513.25   17.60
  -1   9  -1  506.55   17.00
  -2  -9  -1   29.60    4.30
  -2  -9  -1   34.70    4.20
   2  -9   1   30.50    2.80
  -2   9  -1   29.00    3.10
  -3  -9  -1  462.85   17.00
   3  -9   1  476.75   13.90
   3  -9   1  453.45   13.80
  -3  -9  -1  483.25   17.50
  -3   9  -1  454.35   15.00
  -4  -9  -1   18.40    3.90
  -4  -9  -1   20.40    4.70
  -4   9  -1   23.30    2.70
  -5  -9  -1  777.32   26.60
  -5   9  -1  740.63   22.70
  -6  -9  -1  256.57   12.80
  -6   9  -1  248.28    9.10
  -7  -9  -1    2.80    3.80
  -8  -9  -1  247.08   13.40
  -9  -9  -1   97.39    9.50
 -10  -9  -1   25.40    6.20
 -11  -9  -1   13.40    5.50
 -12  -9  -1   27.60    7.10
 -13  -9  -1  159.48   14.20
 -12 -10   1   -6.30    5.00
 -11 -10   1    7.00    5.30
 -10 -10   1   -1.90    4.40
  -9 -10   1    1.90    4.40
  -8 -10   1   -2.20    4.10
  -7 -10   1    5.60    4.20
  -7  10   1    2.90    1.60
  -6 -10   1   20.10    5.20
  -6  10   1   26.00    2.50
  -5 -10   1  154.78    9.60
  -5  10   1  143.99    5.90
  -4 -10   1    3.60    3.40
  -4  10   1   -0.80    1.50
  -3 -10   1  101.09    7.10
  -3 -10   1   83.79    6.60
  -3  10   1   83.39    4.70
  -2 -10   1   79.19    6.20
  -2 -10   1   65.99    5.50
   2 -10  -1   50.89    3.10
   2 -10  -1   74.99    3.60
  -2  10   1   70.79    4.50
  -1 -10   1   -1.00    2.60
   1 -10  -1   -0.60    1.70
   1 -10  -1    3.40    2.00
   0 -10  -1  166.48    7.80
   0 -10  -1  174.68    7.90
   0 -10   1  185.58    8.30
  -1 -10  -1    0.10    2.20
   1 -10   1   -1.40    1.90
  -1 -10  -1    3.50    2.60
   1 -10   1    1.80    2.10
  -2 -10  -1   81.49    6.00
  -2 -10  -1   69.39    5.60
   2 -10   1   72.69    4.20
   2 -10   1   66.09    4.00
  -3 -10  -1   90.59    6.70
   3 -10   1   92.79    3.80
   3 -10   1   91.59    3.80
  -3 -10  -1   90.89    6.50
  -3  10  -1   96.19    5.20
  -4 -10  -1   -3.00    3.60
  -4  10  -1    0.70    1.80
  -5 -10  -1  142.29    9.30
  -5  10  -1  143.19    6.30
  -6 -10  -1   27.00    6.10
  -7 -10  -1   -1.70    3.80
  -8 -10  -1    2.00    4.20
  -9 -10  -1    0.20    4.10
 -10 -10  -1   -6.50    3.90
 -11 -10  -1   -0.20    4.80
 -12 -10  -1    6.40    6.20
 -12 -11   1   24.30    8.00
 -11 -11   1    1.70    5.10
 -10 -11   1   62.69    8.80
  -9 -11   1  108.59   11.00
  -8 -11   1  156.58   11.30
  -7 -11   1    4.60    4.20
  -7  11   1    3.20    1.70
  -6 -11   1   44.90    6.40
  -6  11   1   40.20    3.20
  -5 -11   1   45.50    6.50
  -5  11   1   35.80    3.20
  -4 -11   1   -3.60    3.60
  -3 -11   1  653.33   24.40
  -3 -11   1  791.02   25.60
  -2 -11   1  153.98    8.50
  -2 -11   1  135.49    8.10
   2 -11  -1  129.49    5.40
   2 -11  -1  129.39    5.40
  -1 -11   1   78.19    5.70
   1 -11  -1   70.79    4.60
   1 -11  -1   82.09    4.80
  -1 -11   1   61.79    5.70
   0 -11  -1   -0.30    2.20
   0 -11   1    1.90    2.30
   0 -11   1    2.00    2.70
   0 -11  -1    2.00    2.40
   1 -11   1   80.19    5.20
  -1 -11  -1   76.39    5.80
  -1 -11  -1   67.29    5.40
   1 -11   1   67.39    4.80
  -2 -11  -1  139.49    8.10
  -2 -11  -1  142.09    8.00
   2 -11   1  114.69    5.60
   2 -11   1  135.49    6.00
   3 -11   1  748.93   21.60
  -3 -11  -1  765.82   25.80
  -3 -11  -1  718.23   25.50
   3 -11   1  757.02   21.60
  -4 -11  -1    0.90    3.70
  -5 -11  -1   31.10    5.50
  -6 -11  -1   32.20    5.80
  -7 -11  -1    0.10    4.00
  -8 -11  -1  150.58   11.00
  -9 -11  -1   88.89    9.80
 -10 -11  -1   59.69    9.00
 -11 -11  -1   -6.50    5.30
 -12 -11  -1   29.00    7.70
 -11 -12   1   -4.30    5.10
 -10 -12   1   -4.70    4.90
  -9 -12   1   75.99    9.20
  -8 -12   1   -5.30    3.70
  -7 -12   1   90.09    9.30
  -6 -12   1   14.50    4.90
  -5 -12   1   88.59    8.70
  -4 -12   1    4.20    4.00
  -3 -12   1   97.19    7.80
  -3 -12   1   86.99    7.70
   2 -12  -1  437.76   13.90
  -2 -12   1  446.76   17.20
  -2 -12   1  446.76   17.20
   2 -12  -1  444.26   13.80
  -1 -12   1    8.30    3.20
  -1 -12   1    3.10    3.00
   1 -12  -1    4.50    2.20
   1 -12  -1    5.30    2.40
   0 -12  -1    0.30    2.40
   0 -12   1    1.80    2.80
   0 -12  -1    2.30    2.60
   0 -12   1   -0.60    2.40
  -1 -12  -1    4.00    2.90
   1 -12   1    4.50    2.60
  -1 -12  -1    3.30    3.00
   1 -12   1    1.40    2.30
  -2 -12  -1  432.06   16.90
   2 -12   1  446.76   14.70
  -2 -12  -1  472.75   17.40
   3 -12   1   82.19    3.30
  -3 -12  -1   81.39    7.40
   3 -12   1   90.49    3.40
  -3 -12  -1   84.79    6.90
  -4 -12  -1   -3.30    3.30
  -5 -12  -1   98.59    9.00
  -6 -12  -1   20.00    5.10
  -7 -12  -1   91.79    9.40
  -8 -12  -1    4.70    4.40
  -9 -12  -1   90.09   10.00
 -10 -12  -1    7.00    5.40
 -11 -12  -1    4.10    6.20
 -10 -13   1   17.90    6.30
  -9 -13   1   95.59   11.10
  -8 -13   1   24.50    6.00
  -7 -13   1    0.70    4.30
  -6 -13   1    1.80    4.50
  -5 -13   1   64.29    7.80
  -4 -13   1   -0.80    3.30
  -3 -13   1   24.50    5.00
   2 -13  -1    0.80    1.50
   2 -13  -1    0.20    1.40
  -2 -13   1   -2.10    3.00
   1 -13  -1  248.28    9.90
  -1 -13   1  260.27   11.60
   0 -13  -1   -0.20    2.60
   0 -13   1   -4.00    2.50
  -1 -13  -1  257.77   11.40
   1 -13   1  238.38   10.00
  -2 -13  -1    1.90    3.20
   2 -13   1   -1.20    1.80
  -3 -13  -1   32.40    5.10
  -4 -13  -1    4.40    3.40
  -5 -13  -1   66.89    7.60
  -6 -13  -1    8.30    5.00
  -7 -13  -1   10.80    4.80
  -8 -13  -1   19.60    6.60
  -9 -13  -1   75.89    9.50
 -10 -13  -1   28.90    7.30
  -9 -14   1  129.89   12.50
  -8 -14   1   19.60    6.30
  -7 -14   1   29.40    6.50
  -6 -14   1   35.40    6.70
  -5 -14   1   65.19    7.90
  -4 -14   1   76.89    8.00
  -3 -14   1   43.10    6.20
   2 -14  -1   54.09    3.00
  -2 -14   1   47.70    6.00
  -1 -14   1   67.99    6.60
   1 -14  -1   75.49    5.20
   0 -14   1   33.90    4.70
   0 -14  -1   38.70    4.70
   1 -14   1   80.19    5.60
  -1 -14  -1   72.99    6.50
   2 -14   1   59.29    4.10
  -2 -14  -1   54.79    6.30
  -3 -14  -1   28.70    5.40
  -4 -14  -1   92.89    8.70
  -5 -14  -1   57.59    7.70
  -6 -14  -1   28.10    6.30
  -7 -14  -1   27.60    6.20
  -8 -14  -1    4.10    5.40
  -9 -14  -1  119.79   12.10
  -8 -15   1   76.09   10.10
  -7 -15   1   47.50    8.30
  -6 -15   1   17.30    5.90
  -5 -15   1   30.20    6.40
  -4 -15   1   43.70    6.80
  -3 -15   1    3.40    4.10
  -2 -15   1   43.50    6.20
  -1 -15   1   37.50    5.20
   1 -15  -1   30.10    3.60
   0 -15  -1   -0.20    2.70
   0 -15   1    0.60    2.90
  -1 -15  -1   40.00    5.30
   1 -15   1   33.20    4.10
   2 -15   1   44.70    3.50
  -2 -15  -1   54.39    6.20
  -3 -15  -1    2.80    4.00
  -4 -15  -1   65.99    7.70
  -5 -15  -1   29.90    6.20
  -6 -15  -1    7.80    4.90
  -7 -15  -1   41.50    7.70
  -8 -15  -1   53.79    8.70
  -6 -16   1   10.60    5.50
  -5 -16   1    6.20    4.80
  -4 -16   1    5.40    4.40
  -3 -16   1    9.60    4.50
  -2 -16   1    7.40    4.10
  -1 -16   1   -1.60    3.10
   1 -16  -1    0.50    2.10
   0 -16   1    6.40    3.30
   0 -16  -1    0.10    2.80
  -1 -16  -1    0.50    3.20
   1 -16   1   -1.10    2.40
  -2 -16  -1    4.40    3.90
  -3 -16  -1    6.60    4.10
  -4 -16  -1    1.90    4.30
  -5 -16  -1    9.50    5.20
  -6 -16  -1   13.50    5.70
  -4 -17   1   17.00    5.60
  -3 -17   1   -4.40    4.10
  -2 -17   1   14.90    4.90
  -1 -17   1   11.10    4.30
   0 -17   1   -0.60    2.90
   0 -17  -1   -1.10    2.70
  -1 -17  -1   11.60    3.90
  -2 -17  -1   12.20    4.40
  -3 -17  -1   -4.60    3.70
  -4 -17  -1   11.50    5.10
 -15   0   2   25.60    6.30
 -14   0   2   -2.10    4.00
 -13   0   2  136.79   10.00
 -12   0   2   -5.10    3.40
 -11   0   2   54.19    6.30
 -10   0   2  402.96   16.10
  -9   0   2   54.09    5.50
  -8   0   2    6.70    2.90
  -7   0   2 1022.70   31.70
  -7   0   2 1036.30   31.80
  -6   0   2   73.89    5.10
  -5   0   2 4432.06  123.99
  -4   0   2 2680.93   75.69
   4   0  -2 2700.83   75.69
   3   0  -2  742.63   21.70
  -3   0   2  723.63   21.60
   2   0  -2 1005.00   28.70
  -2   0   2 1018.30   28.70
   1   0  -2   12.70    1.20
  -1   0   2    6.20    1.20
   0   0   2    0.50    0.40
   0   0  -2   -0.20    0.50
   2   0   2  912.81   26.60
  -2   0  -2  941.41   26.60
   3   0   2  704.83   21.50
  -3   0  -2  739.83   21.60
   4   0   2 2601.44   75.59
  -4   0  -2 2762.02   75.69
  -5   0  -2 4431.16  124.69
  -5   0  -2 4471.05  124.79
  -6   0  -2   64.09    5.20
  -6   0  -2   71.99    4.80
  -7   0  -2 1005.70   31.00
  -7   0  -2  984.20   31.80
  -8   0  -2   10.70    3.40
  -9   0  -2   51.79    5.50
 -10   0  -2  385.26   15.90
 -11   0  -2   54.69    6.40
 -12   0  -2    2.00    3.50
 -13   0  -2  106.99    8.80
 -14   0  -2    2.00    4.70
 -15   0  -2   25.20    6.60
 -15  -1   2   13.60    5.40
 -15   1   2    2.60    4.90
 -14  -1   2    3.30    4.20
 -14   1   2    7.20    4.50
 -13  -1   2   11.70    4.30
 -13   1   2    4.90    4.00
 -12  -1   2    8.40    4.50
 -12   1   2    2.10    3.60
 -11  -1   2   36.80    5.70
 -11   1   2   37.60    5.50
 -10  -1   2  113.09    8.30
 -10   1   2  107.29    7.60
  -9  -1   2   51.09    5.80
  -9   1   2   42.20    5.00
  -8  -1   2  167.98    8.90
  -8   1   2  169.58    8.30
  -7  -1   2   18.80    3.50
  -7   1   2   18.60    3.00
  -7   1   2    8.90    2.70
  -6  -1   2   43.90    4.30
  -6   1   2   50.99    4.20
  -6   1   2   49.20    4.10
   6   1  -2   43.50    4.20
  -5  -1   2  921.41   28.00
   5   1  -2  893.81   27.80
  -5   1   2  929.91   27.30
  -4  -1   2   49.90    3.90
   4   1  -2   52.99    3.90
  -4   1   2   57.89    3.50
  -3  -1   2  168.48    6.50
   3   1  -2  147.79    6.10
  -3   1   2  152.88    5.60
  -2  -1   2   27.10    2.30
  -2   1   2   24.50    1.60
   2   1  -2   27.40    2.20
  -1  -1   2 5910.41  168.18
   1   1  -2 6064.89  169.08
   0  -1   2   -1.70    0.40
   0  -1  -2   -0.90    0.40
   0   1  -2   -0.60    0.70
   0   1   2   -1.10    0.50
  -1  -1  -2 6075.79  174.78
   1   1   2 6287.97  175.58
  -1   1  -2 6262.37  174.18
   2  -1   2   23.20    1.90
  -2  -1  -2   22.70    2.20
  -2  -1  -2   27.20    2.30
   2   1   2   24.30    2.20
  -2   1  -2   27.40    2.00
  -3  -1  -2  144.19    6.10
   3  -1   2  140.19    5.50
  -3  -1  -2  148.09    6.00
  -3   1  -2  147.79    5.60
   3   1   2  142.09    5.90
   4  -1   2   52.49    3.60
  -4  -1  -2   54.09    4.30
  -4  -1  -2   49.90    4.10
  -4   1  -2   49.80    3.70
  -5  -1  -2  904.91   27.50
  -5  -1  -2  878.51   27.30
  -5   1  -2  893.51   26.90
  -6  -1  -2   43.80    4.60
  -6  -1  -2   42.90    4.30
  -6   1  -2   39.10    3.90
  -6   1  -2   49.50    4.40
  -7  -1  -2   16.90    3.50
  -7   1  -2   17.60    3.10
  -7   1  -2   17.80    3.10
  -8  -1  -2  165.88    8.80
  -8   1  -2  173.78    8.70
  -9  -1  -2   45.40    5.40
  -9   1  -2   40.60    4.90
 -10  -1  -2  127.69    8.40
 -10   1  -2  107.19    8.00
 -11  -1  -2   41.20    6.10
 -11   1  -2   41.10    5.70
 -12  -1  -2    4.70    4.00
 -12   1  -2    5.50    3.90
 -13  -1  -2   10.00    5.20
 -13   1  -2    3.30    3.80
 -14  -1  -2    2.20    4.80
 -14   1  -2    4.20    4.70
 -15  -1  -2   16.40    5.60
 -15   1  -2    9.50    5.10
 -15  -2   2   53.49    7.90
 -14  -2   2   28.40    6.70
 -14   2   2   36.40    6.10
 -13  -2   2  119.69    9.60
 -13   2   2  131.29    9.10
 -12  -2   2   12.10    4.60
 -12   2   2   17.90    4.40
 -11  -2   2   43.00    6.00
 -11   2   2   31.70    4.90
 -10  -2   2   85.09    7.80
 -10   2   2   78.89    6.70
  -9  -2   2   32.10    4.90
  -9   2   2   39.30    4.60
  -8  -2   2   15.30    3.70
  -8   2   2   14.50    3.10
  -7  -2   2  196.08    9.40
   7   2  -2  196.18    9.40
  -7   2   2  192.28    8.20
  -7   2   2  202.98    8.30
  -6  -2   2   17.80    3.40
  -6   2   2   20.90    2.80
   6   2  -2   30.00    4.00
  -6   2   2   20.70    2.80
  -5  -2   2  855.61   26.40
  -5   2   2  842.02   24.90
  -5   2   2  827.82   24.90
   5   2  -2  842.32   26.20
  -4  -2   2 1465.25   42.70
   4   2  -2 1469.05   42.60
  -4   2   2 1441.56   41.30
  -3  -2   2 2222.38   60.69
   3   2  -2 2089.69   60.49
  -3   2   2 2079.29   59.19
  -2  -2   2 3816.52  106.69
   2   2  -2 3629.14  103.69
  -1  -2   2    6.40    1.40
   1   2  -2    6.10    1.50
   0  -2  -2  654.23   18.90
   0  -2   2  649.24   19.20
   0  -2  -2  641.84   18.90
   0   2   2  683.23   19.00
   0   2   2  671.63   19.00
   0   2  -2  640.84   19.20
   1  -2   2    5.60    1.10
  -1  -2  -2    5.10    1.30
  -1  -2  -2    6.00    1.30
   1   2   2    5.70    1.40
  -1   2  -2    4.70    1.10
   1   2   2    5.50    1.40
   2  -2   2 3476.75   98.69
  -2  -2  -2 3352.26  100.39
  -2  -2  -2 3592.44   97.59
   2   2   2 3541.85   97.59
  -2   2  -2 3409.16   98.99
   2   2   2 3590.54   97.59
  -3  -2  -2 2101.89   58.99
  -3  -2  -2 2012.40   58.79
   3  -2   2 2065.39   57.89
  -3   2  -2 2087.69   57.99
   3   2   2 2069.29   58.89
  -4  -2  -2 1431.96   42.40
   4  -2   2 1454.85   41.40
  -4  -2  -2 1472.05   42.50
  -4   2  -2 1438.66   41.50
  -5  -2  -2  791.32   25.00
  -5  -2  -2  788.42   24.90
   5  -2   2  793.92   23.90
  -5   2  -2  796.52   23.90
  -6  -2  -2   18.20    3.30
  -6  -2  -2   11.00    3.20
  -6   2  -2   22.50    3.10
  -7  -2  -2  202.58    9.60
  -7   2  -2  204.58    8.80
  -7   2  -2  194.98    8.60
  -8  -2  -2   16.10    4.20
  -8   2  -2   19.60    3.30
  -9  -2  -2   37.40    5.20
  -9   2  -2   35.20    4.50
 -10  -2  -2   96.69    7.70
 -10   2  -2   88.59    7.00
 -11  -2  -2   42.00    6.10
 -11   2  -2   36.50    5.30
 -12  -2  -2   23.10    5.40
 -12   2  -2   22.10    4.90
 -13  -2  -2  150.58   10.60
 -13   2  -2  141.29    9.90
 -14  -2  -2   34.40    7.30
 -14   2  -2   42.40    6.40
 -15  -2  -2   47.40    7.90
 -15   2  -2   41.60    7.10
 -15  -3   2  107.49   11.40
 -14  -3   2   65.59    8.40
 -13  -3   2  124.79   10.10
 -13   3   2  134.59    9.00
 -12  -3   2   11.40    4.60
 -12   3   2    9.10    3.90
 -11  -3   2  524.55   21.10
 -11   3   2  547.65   19.50
 -10  -3   2   82.89    7.80
 -10   3   2   92.39    6.60
  -9  -3   2  298.37   13.80
  -9   3   2  332.77   12.40
  -8  -3   2   -1.10    3.00
  -8   3   2    2.00    2.20
   8   3  -2   -1.90    2.60
  -7  -3   2   31.30    4.50
  -7   3   2   26.90    3.10
  -7   3   2   28.30    3.20
   7   3  -2   31.50    4.30
  -6  -3   2    8.40    3.10
  -6   3   2    9.20    2.20
  -6   3   2    8.00    2.10
   6   3  -2   12.60    3.40
  -5  -3   2  186.68    8.50
  -5   3   2  174.38    6.70
   5   3  -2  174.78    8.30
  -5   3   2  186.58    6.70
  -4  -3   2  124.29    6.50
  -4   3   2  121.49    4.60
   4   3  -2  122.39    6.30
  -3  -3   2  869.31   26.00
  -3   3   2  832.12   23.90
   3   3  -2  860.61   25.90
  -2  -3   2 4033.30  111.69
   2   3  -2 3956.00  111.49
  -1  -3   2 1946.41   55.29
   1   3  -2 1930.81   55.29
  -1   3   2 1951.00   54.59
  -1   3   2 1998.10   54.09
   0  -3  -2   -1.70    1.10
   0  -3  -2   -1.50    1.00
   0  -3   2   -0.60    1.20
   0   3   2   -0.40    1.10
   0   3   2    3.20    1.20
   0   3  -2   -1.20    1.40
   1  -3   2 1950.30   55.19
  -1  -3  -2 1909.01   55.69
  -1  -3  -2 1962.60   55.69
   1   3   2 2065.89   55.79
  -1   3  -2 2000.30   55.29
   2  -3   2 3831.02  107.09
  -2  -3  -2 3762.42  108.09
  -2  -3  -2 3952.50  108.19
   2   3   2 3878.91  108.19
  -2   3  -2 3940.41  107.29
  -3  -3  -2  909.01   26.00
   3  -3   2  818.32   24.40
  -3  -3  -2  851.51   25.70
  -3   3  -2  854.41   24.50
   3   3   2  809.52   25.70
  -4  -3  -2  101.59    6.10
   4  -3   2  126.99    5.00
  -4  -3  -2  115.99    6.30
   4   3   2  125.29    6.50
  -4   3  -2  126.39    5.20
  -5  -3  -2  194.68    8.70
  -5  -3  -2  174.68    8.30
   5  -3   2  190.28    7.10
  -5   3  -2  175.18    7.10
   5   3   2  184.28    8.50
  -6  -3  -2    7.80    3.00
  -6  -3  -2    0.50    2.90
  -6   3  -2   10.70    2.40
  -7  -3  -2   34.80    4.70
  -7   3  -2   32.20    3.60
  -8  -3  -2    2.20    3.20
  -8   3  -2   -3.10    2.20
  -9  -3  -2  318.07   14.40
  -9   3  -2  339.87   13.20
 -10  -3  -2  105.29    8.10
 -10   3  -2   72.39    6.50
 -11  -3  -2  542.85   21.60
 -11   3  -2  524.65   19.60
 -12  -3  -2    4.90    4.30
 -12   3  -2   14.10    4.50
 -13  -3  -2  123.39   10.10
 -13   3  -2  118.79    8.80
 -14  -3  -2   56.99    8.10
 -14   3  -2   61.09    7.60
 -15  -3  -2  103.39   11.10
 -15  -4   2    3.70    4.90
 -14  -4   2  160.48   11.90
 -13  -4   2   29.40    6.50
 -13   4   2   29.10    5.20
 -12  -4   2    8.10    4.60
 -12   4   2    4.90    3.40
 -11  -4   2  188.98   11.40
 -11   4   2  177.28    9.30
 -10  -4   2    5.00    4.10
 -10   4   2    1.70    2.70
  -9  -4   2   74.59    7.50
  -9   4   2   94.39    5.80
  -8  -4   2   12.40    3.90
  -8   4   2   10.80    2.50
  -8   4   2   16.40    3.10
  -7  -4   2  229.28   10.60
  -7   4   2  203.98    8.10
  -7   4   2  210.98    8.20
  -6  -4   2  482.05   18.00
  -6   4   2  493.65   15.60
  -6   4   2  521.45   15.70
   6   4  -2  511.05   18.00
  -5  -4   2 1117.19   34.10
   5   4  -2 1098.49   33.90
  -5   4   2 1084.69   31.40
  -4  -4   2    2.40    2.70
   4   4  -2    7.70    2.60
  -4   4   2    5.60    1.20
  -3  -4   2  472.45   16.10
   3   4  -2  495.45   16.20
  -3   4   2  484.35   13.70
  -2  -4   2 4106.59  115.79
   2   4  -2 4076.29  115.69
  -2   4   2 4220.08  114.59
  -1  -4   2  103.39    5.20
   1  -4  -2  112.99    3.80
   1   4  -2  117.09    5.20
  -1   4   2  112.49    4.10
   0  -4   2    6.90    1.70
   0  -4  -2    9.10    1.60
   0  -4  -2    6.60    1.60
   0   4   2    8.50    1.70
   0   4  -2    8.60    1.90
  -1  -4  -2  108.29    5.10
   1  -4   2  108.09    4.50
  -1  -4  -2  111.09    4.90
  -1   4  -2  109.09    4.60
   1   4   2  117.49    5.20
  -2  -4  -2 4123.59  116.49
   2  -4   2 4110.09  116.29
  -2  -4  -2 4232.98  116.39
   2   4   2 4091.89  116.39
  -2   4  -2 4253.17  116.69
  -3  -4  -2  476.15   15.90
   3  -4   2  467.85   14.10
  -3  -4  -2  474.25   15.70
   3   4   2  491.35   15.90
  -3   4  -2  464.35   14.30
   4  -4   2    4.30    1.40
  -4  -4  -2    1.10    2.60
  -4  -4  -2    2.60    2.30
  -4   4  -2    3.10    1.50
   4   4   2    5.50    2.50
  -5  -4  -2 1091.79   33.70
   5  -4   2 1107.49   31.50
  -5  -4  -2 1110.89   33.90
  -5   4  -2 1078.19   31.80
   5   4   2 1065.69   33.60
  -6  -4  -2  486.05   17.70
   6   4   2  463.05   17.40
  -6   4  -2  499.85   15.70
  -7  -4  -2  203.18   10.40
  -7   4  -2  220.18    8.70
  -8  -4  -2   21.50    4.60
  -9  -4  -2   86.09    7.90
  -9   4  -2   89.49    6.10
 -10  -4  -2   -1.10    4.20
 -10   4  -2    2.10    2.90
 -11  -4  -2  198.58   11.60
 -11   4  -2  163.58    9.30
 -12  -4  -2   -0.10    4.40
 -12   4  -2    4.70    3.40
 -13  -4  -2   31.70    6.50
 -13   4  -2   31.10    5.40
 -14  -4  -2  154.78   11.70
 -15  -4  -2    7.80    6.00
 -14  -5   2   -4.90    3.90
 -13  -5   2   -1.60    4.40
 -12  -5   2   31.00    6.60
 -12   5   2   34.70    4.90
 -11  -5   2   36.50    6.20
 -11   5   2   31.10    4.20
 -10  -5   2  173.58   11.30
 -10   5   2  168.28    8.20
  -9  -5   2   40.90    6.20
  -9   5   2   52.09    4.50
  -8  -5   2   -1.60    3.80
  -8   5   2    5.10    2.10
  -8   5   2   -1.10    1.90
  -7  -5   2  467.55   18.10
  -7   5   2  465.55   15.10
  -7   5   2  487.65   15.20
  -6  -5   2 1245.38   39.00
  -6   5   2 1249.88   35.80
  -5  -5   2  298.77   12.20
  -5   5   2  293.37    9.20
   5   5  -2  290.87   12.00
  -4  -5   2  163.88    8.00
   4   5  -2  157.38    7.80
  -4   5   2  164.58    5.30
  -3  -5   2    0.10    2.30
   3   5  -2   -1.60    2.10
  -3   5   2    2.80    0.90
  -2  -5   2   29.90    3.30
  -2   5   2   33.60    2.00
   2   5  -2   33.30    3.50
   1  -5  -2  946.01   26.80
  -1  -5   2  900.01   28.20
  -1   5   2  969.10   27.20
   1   5  -2  958.50   28.30
   0  -5  -2    1.60    1.50
   0  -5   2   -0.50    1.60
   0  -5  -2   -0.80    1.40
   0   5   2   -0.20    1.60
   0   5  -2   -1.80    1.50
  -1  -5  -2  931.81   28.10
   1  -5   2  935.31   27.50
  -1  -5  -2  957.40   28.10
   1   5   2  972.60   28.20
  -1   5  -2  935.31   27.60
  -2  -5  -2   33.10    3.20
  -2  -5  -2   29.90    3.40
   2  -5   2   30.90    2.50
  -2   5  -2   32.20    2.60
   2   5   2   35.30    3.50
  -3  -5  -2    1.90    2.30
  -3  -5  -2   -0.80    2.30
   3  -5   2    2.00    1.20
  -3   5  -2    2.00    1.40
   3   5   2   -1.60    1.90
  -4  -5  -2  179.68    8.00
   4  -5   2  163.18    5.70
  -4  -5  -2  153.58    8.00
  -4   5  -2  161.78    6.20
   4   5   2  169.78    8.00
  -5  -5  -2  288.77   12.10
   5  -5   2  302.87    9.40
  -5  -5  -2  278.27   11.80
  -5   5  -2  286.77    9.90
   5   5   2  285.47   11.90
  -6  -5  -2 1212.48   38.60
  -6   5  -2 1253.97   36.10
  -7  -5  -2  455.25   17.50
  -7   5  -2  445.06   15.00
  -8  -5  -2    0.70    3.60
  -9  -5  -2   59.89    7.00
  -9   5  -2   44.30    4.70
 -10  -5  -2  173.88   11.10
 -10   5  -2  182.48    8.90
 -11  -5  -2   31.10    6.10
 -11   5  -2   28.10    4.40
 -12  -5  -2   31.70    6.50
 -12   5  -2   26.30    4.60
 -13  -5  -2   -4.80    4.10
 -13   5  -2    7.00    3.70
 -14  -5  -2    1.80    5.00
 -14  -6   2   15.40    6.10
 -13  -6   2    8.50    5.90
 -12  -6   2    2.00    5.10
 -11  -6   2  373.76   17.50
 -11   6   2  362.96   13.90
 -10  -6   2    5.80    4.40
 -10   6   2   11.60    3.00
  -9  -6   2  174.38   11.30
  -9   6   2  186.98    7.90
  -8  -6   2  109.99    8.30
  -8   6   2   97.09    5.20
  -8   6   2  104.29    5.30
  -7  -6   2  334.27   14.60
  -7   6   2  340.37   11.20
  -7   6   2  334.97   11.10
  -6  -6   2    0.60    3.10
  -6   6   2   -1.40    1.20
  -5  -6   2 2448.46   69.59
  -5   6   2 2282.37   65.69
  -4  -6   2   13.90    3.50
  -4   6   2   11.70    1.30
   4   6  -2   13.70    3.30
  -3  -6   2   16.00    3.30
  -3   6   2   18.40    1.60
   3   6  -2   18.60    3.30
  -2  -6   2  349.37   13.00
   2   6  -2  386.96   13.30
  -2   6   2  362.56   11.20
  -1  -6   2  401.86   14.00
   1  -6  -2  422.16   12.70
   1   6  -2  414.16   14.00
  -1   6   2  420.56   13.00
   0  -6   2 1682.63   49.20
   0  -6  -2 1676.03   48.80
   0  -6  -2 1754.02   48.80
   0   6  -2 1744.83   49.30
   0   6   2 1705.63   48.90
   1  -6   2  415.96   13.40
  -1  -6  -2  422.96   14.10
  -1  -6  -2  426.16   14.00
   1   6   2  414.36   14.00
  -1   6  -2  426.46   13.60
  -2  -6  -2  386.86   13.10
  -2  -6  -2  354.86   13.00
   2  -6   2  362.36   11.60
   2   6   2  368.86   13.00
  -2   6  -2  374.56   12.00
  -3  -6  -2   22.80    3.40
   3  -6   2   16.00    1.70
  -3  -6  -2   19.20    3.10
  -3   6  -2   11.40    1.90
   3   6   2   17.10    3.20
  -4  -6  -2   13.60    3.20
   4  -6   2   11.50    1.50
  -4  -6  -2   13.80    3.30
   4   6   2   13.60    3.50
  -4   6  -2   10.40    1.90
  -5  -6  -2 2362.56   69.09
  -5  -6  -2 2346.77   69.39
  -5   6  -2 2364.36   66.49
  -6  -6  -2    4.50    3.30
  -6   6  -2    0.40    1.60
  -7  -6  -2  337.07   14.80
  -7   6  -2  348.37   12.00
  -8  -6  -2  110.89    9.00
  -9  -6  -2  189.58   11.80
 -10  -6  -2    0.50    4.40
 -10   6  -2   11.50    3.30
 -11  -6  -2  398.76   18.30
 -11   6  -2  383.36   15.20
 -12  -6  -2    7.30    5.10
 -12   6  -2   10.20    3.70
 -13  -6  -2   17.80    6.20
 -14  -6  -2   27.00    7.10
 -14  -7   2    0.10    5.10
 -13  -7   2   83.49   10.00
 -12  -7   2    1.40    5.00
 -11  -7   2  247.28   14.20
 -10  -7   2    1.10    4.60
 -10   7   2    2.90    2.30
  -9  -7   2  117.99    9.30
  -9   7   2  120.09    6.00
  -8  -7   2  843.32   29.60
  -8   7   2  841.52   25.20
  -8   7   2  830.42   25.10
  -7  -7   2   23.90    4.90
  -7   7   2   23.10    2.30
  -6  -7   2   52.79    6.20
  -6   7   2   59.09    3.10
  -5  -7   2   45.50    5.50
  -5   7   2   49.80    2.60
  -4  -7   2  220.08   10.60
  -4   7   2  228.68    7.20
  -3  -7   2  104.69    6.50
  -3   7   2  105.09    4.20
  -2  -7   2    0.30    2.20
   2  -7  -2    0.60    0.70
   2  -7  -2   -0.30    0.70
   2   7  -2    1.00    2.40
  -2   7   2   -1.00    1.30
   1  -7  -2  182.18    6.70
   1  -7  -2  191.88    6.70
  -1  -7   2  176.78    8.00
   1   7  -2  189.98    8.20
  -1   7   2  191.28    7.10
   0  -7   2    0.80    1.90
   0  -7  -2   -1.00    1.60
   0  -7  -2    2.20    1.60
   0   7   2   -0.50    1.60
   0   7  -2    1.50    2.10
   1  -7   2  182.78    7.10
  -1  -7  -2  190.88    7.70
  -1  -7  -2  169.98    7.60
   1   7   2  192.28    7.90
  -1   7  -2  183.28    7.40
  -2  -7  -2    1.50    2.00
   2  -7   2   -0.20    1.40
  -2  -7  -2    3.50    2.20
   2   7   2    0.40    2.30
  -2   7  -2    1.40    1.70
  -3  -7  -2  121.39    6.60
  -3  -7  -2  108.39    6.60
   3  -7   2  102.49    4.40
   3   7   2  126.09    6.70
  -3   7  -2  108.19    5.00
  -4  -7  -2  231.98   10.10
  -4  -7  -2  223.88   10.30
   4  -7   2  227.88    7.10
  -4   7  -2  211.88    8.00
  -5  -7  -2   51.29    5.60
  -5  -7  -2   48.30    6.10
  -5   7  -2   52.49    3.50
  -6  -7  -2   60.49    6.40
  -6   7  -2   54.59    3.80
  -7  -7  -2   22.80    4.80
  -7   7  -2   20.60    2.80
  -8  -7  -2  832.92   29.50
  -9  -7  -2  117.19    9.40
 -10  -7  -2   -0.50    4.20
 -10   7  -2   -1.90    2.40
 -11  -7  -2  244.58   14.50
 -11   7  -2  259.87   11.30
 -12  -7  -2   -4.70    4.30
 -13  -7  -2   81.79   10.10
 -14  -7  -2   -2.50    5.10
 -13  -8   2   -9.60    4.40
 -12  -8   2   86.99   10.40
 -11  -8   2    6.30    5.60
 -10  -8   2   42.90    7.00
 -10   8   2   43.20    4.00
  -9  -8   2   31.80    5.90
  -9   8   2   38.80    3.40
  -8  -8   2    8.70    4.40
  -8   8   2    8.50    2.00
  -8   8   2    7.00    1.90
  -7  -8   2   82.09    8.10
  -7   8   2   83.59    4.00
  -6  -8   2    4.40    3.70
  -6   8   2    0.70    1.10
  -5  -8   2  103.39    7.50
  -5   8   2   95.29    3.90
  -4  -8   2  149.29    8.60
  -4   8   2  150.68    5.40
  -3  -8   2  173.88    8.70
  -3   8   2  159.78    6.10
  -2  -8   2  218.18    9.80
   2  -8  -2  225.38    7.10
   2  -8  -2  235.48    7.10
  -2   8   2  229.88    8.20
   1  -8  -2  307.97   10.30
   1  -8  -2  305.37   10.20
  -1  -8   2  322.27   11.90
  -1   8   2  292.47   10.60
   1   8  -2  315.47   11.80
   0  -8  -2  672.33   20.50
   0  -8   2  654.83   20.80
   0  -8  -2  637.24   20.30
   0   8  -2  662.03   21.00
   0   8   2  645.24   20.60
  -1  -8  -2  311.47   11.60
   1  -8   2  318.47   11.10
  -1  -8  -2  326.57   11.80
  -1   8  -2  308.47   11.30
   1   8   2  312.77   11.80
  -2  -8  -2  230.08    9.70
  -2  -8  -2  233.58    9.70
   2  -8   2  223.08    8.20
  -2   8  -2  226.98    8.60
   3  -8   2  158.28    5.90
  -3  -8  -2  171.58    8.50
  -3  -8  -2  153.58    8.50
  -3   8  -2  163.38    6.70
  -4  -8  -2  157.38    8.50
  -4  -8  -2  160.48    8.80
   4  -8   2  156.18    5.10
  -4   8  -2  166.98    6.60
  -5  -8  -2   99.39    7.30
  -5   8  -2   98.99    4.90
  -6  -8  -2   -0.60    3.30
  -6   8  -2   -2.60    1.50
  -7  -8  -2  100.19    8.20
  -8  -8  -2    6.80    4.50
  -9  -8  -2   44.20    6.90
 -10  -8  -2   47.60    7.60
 -11  -8  -2    5.70    4.90
 -12  -8  -2   94.69   10.50
 -13  -8  -2    2.60    5.10
 -13  -9   2   21.10    7.30
 -12  -9   2  116.69   11.90
 -11  -9   2   66.49    9.10
 -10  -9   2   53.89    8.00
  -9  -9   2  102.19    9.90
  -9   9   2  104.89    5.10
  -8  -9   2   10.50    4.70
  -8   9   2   12.00    2.10
  -7  -9   2  209.78   12.10
  -7   9   2  215.68    7.40
  -6  -9   2   29.00    5.40
  -6   9   2   40.30    2.70
  -5  -9   2    0.40    3.30
  -5   9   2    2.20    1.30
  -4  -9   2  223.88   11.10
  -4   9   2  203.68    7.30
  -3  -9   2  235.78   11.00
  -3   9   2  226.68    8.10
  -2  -9   2   42.50    5.00
   2  -9  -2   40.80    2.40
   2  -9  -2   41.60    2.40
  -2   9   2   36.60    3.30
  -1  -9   2 1414.66   42.60
   1  -9  -2 1417.46   40.90
   1  -9  -2 1412.06   40.90
  -1   9   2 1429.46   41.50
   0  -9   2    0.10    2.30
   0  -9  -2   -2.80    1.70
   0  -9  -2    0.30    2.00
   0   9   2   -1.70    1.80
  -1  -9  -2 1416.26   42.00
   1  -9   2 1425.56   41.40
  -1  -9  -2 1425.16   42.10
  -1   9  -2 1377.96   41.60
   2  -9   2   41.90    3.50
  -2  -9  -2   55.59    5.10
  -2  -9  -2   39.30    4.60
  -2   9  -2   36.30    3.50
  -3  -9  -2  249.58   10.90
  -3  -9  -2  247.08   11.20
   3  -9   2  244.48    8.30
  -3   9  -2  241.38    9.20
  -4  -9  -2  205.58   10.40
  -4  -9  -2  197.28   10.20
  -4   9  -2  210.48    8.00
  -5  -9  -2    3.90    3.70
  -5   9  -2    2.90    1.90
  -6  -9  -2   31.70    5.60
  -6   9  -2   41.10    3.50
  -7  -9  -2  229.78   12.50
  -8  -9  -2   11.60    4.90
  -9  -9  -2  126.99   11.20
 -10  -9  -2   47.80    7.50
 -11  -9  -2   63.89    8.80
 -12  -9  -2   88.59   10.40
 -13  -9  -2   19.90    7.10
 -12 -10   2   -5.30    4.90
 -11 -10   2   21.90    6.60
 -10 -10   2   52.99    8.20
  -9 -10   2  177.28   12.10
  -8 -10   2   -0.80    4.70
  -8  10   2    1.40    1.70
  -7 -10   2  420.26   17.90
  -7  10   2  364.26   11.80
  -6 -10   2    0.40    3.70
  -6  10   2    2.10    1.30
  -5 -10   2  354.46   15.80
  -5  10   2  352.96   11.30
  -4 -10   2  519.55   19.40
  -4  10   2  476.25   15.30
  -3 -10   2  531.95   19.20
  -3  10   2  495.25   16.20
   2 -10  -2    0.90    1.20
  -2 -10   2   -1.20    2.40
   2 -10  -2    2.10    1.10
  -2  10   2   -0.30    1.70
   1 -10  -2   10.20    2.10
  -1 -10   2    7.40    3.10
   1 -10  -2    7.50    2.10
   0 -10  -2  369.76   12.90
   0 -10   2  368.86   13.40
   0 -10  -2  335.57   12.70
  -1 -10  -2    3.70    2.60
  -1 -10  -2    7.00    2.60
   1 -10   2   10.80    2.70
  -2 -10  -2   -2.00    2.60
   2 -10   2    1.90    1.90
  -2 -10  -2   -0.60    2.70
  -3 -10  -2  518.35   18.60
  -3 -10  -2  483.75   18.10
   3 -10   2  488.95   15.20
  -4 -10  -2  475.45   18.20
  -4 -10  -2  461.05   17.90
  -5 -10  -2  345.47   15.30
  -6 -10  -2    5.10    4.40
  -7 -10  -2  373.06   17.00
  -8 -10  -2   -2.00    3.70
  -9 -10  -2  177.78   12.10
 -10 -10  -2   32.40    6.90
 -11 -10  -2   25.90    6.70
 -12 -10  -2    8.40    5.80
 -12 -11   2   -0.40    5.30
 -11 -11   2   15.40    6.30
 -10 -11   2    2.00    5.20
  -9 -11   2   12.70    5.70
  -8 -11   2    6.40    4.50
  -7 -11   2   20.10    5.40
  -6 -11   2   -1.70    4.10
  -6  11   2    0.60    1.40
  -5 -11   2  481.05   19.30
  -5  11   2  472.05   14.90
  -4 -11   2   19.80    4.90
  -4  11   2   21.00    2.70
  -3 -11   2  419.36   17.00
  -3 -11   2  466.95   17.70
  -2 -11   2   16.20    4.00
   2 -11  -2   11.70    1.70
   2 -11  -2   14.50    1.80
  -1 -11   2   45.70    5.00
   1 -11  -2   57.39    4.00
   1 -11  -2   60.89    4.10
   0 -11   2    3.00    2.60
   0 -11  -2   -1.30    2.10
   0 -11  -2   -0.60    2.00
   1 -11   2   56.19    4.60
  -1 -11  -2   55.09    5.20
  -1 -11  -2   52.39    5.10
   2 -11   2   12.70    2.50
  -2 -11  -2   10.70    3.60
  -2 -11  -2   15.40    3.60
   2 -11   2   16.30    2.60
   3 -11   2  449.86   14.10
  -3 -11  -2  437.36   17.10
  -3 -11  -2  466.15   17.50
   3 -11   2  450.35   14.00
  -4 -11  -2   20.10    4.90
  -5 -11  -2  477.75   19.30
  -6 -11  -2   -1.20    3.60
  -7 -11  -2   12.80    5.30
  -8 -11  -2    3.00    4.40
  -9 -11  -2   10.70    4.90
 -10 -11  -2   -4.20    5.20
 -11 -11  -2   14.80    6.40
 -12 -11  -2    3.30    5.50
 -11 -12   2   39.60    8.50
 -10 -12   2   84.49   10.50
  -9 -12   2   16.00    5.50
  -8 -12   2   -1.30    4.10
  -7 -12   2  120.59   11.00
  -6 -12   2   75.99    8.30
  -5 -12   2  219.98   12.10
  -4 -12   2   -5.90    3.40
  -3 -12   2  146.59    9.40
   2 -12  -2   -1.20    1.30
  -2 -12   2   -0.90    3.30
   2 -12  -2   -0.60    1.20
  -2 -12   2   -0.90    3.00
   1 -12  -2   63.49    4.50
  -1 -12   2   62.59    5.90
  -1 -12   2   66.99    6.10
   1 -12  -2   55.29    4.30
   0 -12  -2  235.38    9.80
   0 -12   2  232.08   10.30
   0 -12   2  235.28   10.30
   0 -12  -2  233.68   10.00
   1 -12   2   60.19    4.90
  -1 -12  -2   58.09    5.50
   1 -12   2   61.49    4.90
  -1 -12  -2   61.39    5.60
   2 -12   2    2.00    2.10
   2 -12   2   -0.60    1.90
  -2 -12  -2   -1.60    2.90
  -2 -12  -2   -0.80    2.90
   3 -12   2  148.39    5.60
  -3 -12  -2  135.89    8.90
   3 -12   2  133.29    5.50
  -3 -12  -2  140.29    8.80
  -4 -12  -2    5.70    3.80
  -5 -12  -2  235.18   12.40
  -6 -12  -2   67.99    7.80
  -7 -12  -2  121.79    9.80
  -8 -12  -2   10.10    4.80
  -9 -12  -2   33.90    7.50
 -10 -12  -2   78.79   10.10
 -11 -12  -2   29.00    7.60
 -10 -13   2    3.40    5.20
  -9 -13   2  103.49   11.10
  -8 -13   2   15.80    5.60
  -7 -13   2   14.40    5.30
  -6 -13   2   -0.60    3.90
  -5 -13   2   13.20    4.70
  -4 -13   2   10.90    4.60
  -3 -13   2   38.90    5.70
   2 -13  -2   25.10    2.00
  -2 -13   2   36.90    5.50
   2 -13  -2   26.20    2.00
  -1 -13   2  352.96   14.40
   1 -13  -2  339.47   12.90
   1 -13  -2  361.06   12.40
   0 -13   2   -1.60    2.70
   0 -13  -2    5.20    2.70
   1 -13   2  369.96   13.20
  -1 -13  -2  319.97   13.70
  -2 -13  -2   30.50    4.80
   2 -13   2   26.30    3.20
   3 -13   2   44.20    2.80
   3 -13   2   41.00    2.70
  -3 -13  -2   45.30    6.20
  -4 -13  -2    7.90    4.00
  -5 -13  -2   11.60    4.40
  -6 -13  -2    3.90    4.50
  -7 -13  -2   17.80    5.30
  -8 -13  -2   15.30    5.50
  -9 -13  -2  123.39   11.90
 -10 -13  -2    4.90    6.20
  -9 -14   2   13.20    6.60
  -8 -14   2    7.00    5.60
  -7 -14   2   13.30    6.00
  -6 -14   2   19.60    6.10
  -5 -14   2   31.90    6.40
  -4 -14   2   21.80    5.20
  -3 -14   2   27.40    5.40
  -2 -14   2  115.69    8.40
  -1 -14   2   17.60    4.10
   1 -14  -2   18.10    3.00
   0 -14  -2  340.47   12.90
   0 -14   2  310.27   13.30
  -1 -14  -2   28.00    4.50
   1 -14   2   25.40    3.90
   2 -14   2  114.29    6.00
  -2 -14  -2  123.69    8.20
  -3 -14  -2   26.30    5.00
  -4 -14  -2   23.60    5.40
  -5 -14  -2   38.20    6.50
  -6 -14  -2   21.80    5.40
  -7 -14  -2   23.30    6.30
  -8 -14  -2    6.80    5.00
  -9 -14  -2   17.70    6.20
  -8 -15   2   16.80    6.30
  -7 -15   2   11.20    5.70
  -6 -15   2   -0.20    4.80
  -5 -15   2   66.09    8.30
  -4 -15   2    0.30    4.30
  -3 -15   2    3.70    4.20
  -2 -15   2   10.40    4.10
  -1 -15   2  120.89    8.30
   1 -15  -2  128.69    6.20
   0 -15  -2    2.70    2.70
   0 -15   2   -2.90    2.80
  -1 -15  -2  138.99    8.30
   1 -15   2  127.49    7.30
  -2 -15  -2    9.60    4.00
   2 -15   2    6.10    2.30
  -3 -15  -2    1.30    3.50
  -4 -15  -2   -2.70    3.60
  -5 -15  -2   75.39    8.60
  -6 -15  -2    3.90    5.10
  -7 -15  -2   19.30    6.30
  -8 -15  -2   20.10    6.40
  -6 -16   2    3.40    5.00
  -5 -16   2  204.78   13.10
  -4 -16   2    1.60    4.60
  -3 -16   2    0.80    4.30
  -2 -16   2    1.30    4.00
  -1 -16   2   -0.40    3.50
   0 -16   2   54.39    5.90
   0 -16  -2   53.69    5.10
   1 -16   2   -0.40    2.60
  -1 -16  -2   -2.20    2.90
  -2 -16  -2    4.10    3.80
  -3 -16  -2    7.90    4.30
  -4 -16  -2    9.70    4.60
  -5 -16  -2  223.58   13.50
  -6 -16  -2    1.00    4.80
  -4 -17   2   -0.80    4.70
  -3 -17   2   20.20    5.50
  -2 -17   2    2.40    4.30
  -1 -17   2   39.80    5.80
   0 -17   2   -0.40    3.10
  -1 -17  -2   31.70    5.00
  -2 -17  -2   -2.00    3.40
  -3 -17  -2   20.60    5.50
  -4 -17  -2    6.80    4.70
 -15   0   3   -3.50    4.40
 -14   0   3   -5.00    3.90
 -13   0   3    3.90    3.60
 -12   0   3   -1.20    3.60
 -11   0   3    1.80    3.20
 -10   0   3   -0.60    2.90
  -9   0   3   -1.90    2.40
  -8   0   3   -0.20    2.50
  -7   0   3   -0.30    2.50
  -6   0   3   -0.30    2.20
  -5   0   3   -0.30    2.30
   5   0  -3   -0.20    2.00
   4   0  -3   -0.40    1.70
  -4   0   3   -1.80    1.80
  -3   0   3   -0.80    1.40
   3   0  -3   -0.70    1.40
   2   0  -3    0.90    1.00
  -2   0   3    1.40    1.10
   1   0  -3   -2.70    0.80
  -1   0   3   -2.80    0.80
   0   0  -3   -5.20    0.70
   0   0   3   -6.90    0.60
  -1   0  -3   -2.70    0.90
   1   0   3   -2.60    0.90
  -2   0  -3    0.30    1.30
   2   0   3    0.00    1.20
   3   0   3   -0.30    1.60
  -3   0  -3   -0.60    1.60
  -4   0  -3   -0.30    1.80
   4   0   3    1.30    1.80
   5   0   3    0.40    2.40
  -5   0  -3   -0.80    2.00
  -6   0  -3    0.00    2.40
  -6   0  -3   -0.90    2.60
  -7   0  -3   -2.00    2.60
  -8   0  -3   -1.60    2.40
  -9   0  -3   -2.40    2.80
 -10   0  -3    4.30    3.40
 -11   0  -3   -4.20    3.50
 -12   0  -3   -4.60    3.10
 -13   0  -3   -0.30    4.00
 -14   0  -3   -1.10    4.40
 -15   0  -3   -4.30    4.40
 -15  -1   3   49.99    7.90
 -15   1   3   49.50    7.40
 -14  -1   3   -3.30    3.70
 -14   1   3   -1.20    3.40
 -13  -1   3   43.00    6.80
 -13   1   3   35.50    5.80
 -12  -1   3   -5.90    2.90
 -12   1   3   -1.50    3.30
 -11  -1   3   83.29    7.60
 -11   1   3   69.39    6.60
 -10  -1   3  414.96   16.60
 -10   1   3  405.96   15.90
  -9  -1   3  260.37   11.80
  -9   1   3  249.88   10.90
  -8  -1   3   55.89    5.40
  -8   1   3   57.59    4.80
  -7  -1   3  701.53   23.60
  -7   1   3  740.13   23.10
   7   1  -3  742.83   23.60
  -7   1   3  713.53   23.00
  -6  -1   3  686.93   22.20
   6   1  -3  694.03   22.10
  -6   1   3  684.13   21.50
  -5  -1   3  942.21   28.90
   5   1  -3  963.40   28.90
  -5   1   3  947.81   28.20
  -4  -1   3  835.22   25.00
   4   1  -3  826.02   25.00
  -4   1   3  813.22   24.20
  -3  -1   3  191.38    7.40
   3  -1  -3  196.88    6.70
  -3   1   3  211.38    6.80
   3   1  -3  201.18    7.40
  -2  -1   3  136.49    5.20
   2   1  -3  130.19    5.10
  -2   1   3  128.09    4.40
  -1  -1   3 2656.33   74.09
   1   1  -3 2548.15   74.09
  -1   1   3 2623.04   73.69
   0  -1  -3   -1.10    0.70
   0  -1   3   -1.40    0.70
   0   1  -3   -2.00    0.90
   0   1   3   -1.20    0.70
   1  -1   3 2600.44   71.69
  -1  -1  -3 2537.85   70.59
  -1   1  -3 2488.35   70.49
   1   1   3 2525.85   72.09
  -2  -1  -3  124.29    5.00
   2  -1   3  116.89    4.60
   2   1   3  114.29    4.90
  -2   1  -3  127.59    4.70
   3  -1   3  196.68    7.20
  -3  -1  -3  205.98    7.60
  -3   1  -3  197.38    7.10
   3   1   3  198.88    7.60
  -4  -1  -3  768.22   23.60
   4  -1   3  740.83   23.20
  -4  -1  -3  799.92   23.90
   4   1   3  770.52   23.70
  -4   1  -3  784.62   23.20
  -5  -1  -3  933.41   28.30
  -5  -1  -3  899.41   28.10
   5  -1   3  899.31   27.60
  -5   1  -3  938.01   27.70
  -6  -1  -3  673.53   21.90
  -6  -1  -3  676.13   22.10
  -6   1  -3  674.33   21.40
  -7  -1  -3  688.83   23.20
  -7   1  -3  722.03   23.00
  -7   1  -3  696.13   22.80
  -8  -1  -3   71.29    6.30
  -8   1  -3   53.79    5.60
  -9  -1  -3  278.17   12.60
  -9   1  -3  263.77   11.70
 -10  -1  -3  396.26   16.60
 -10   1  -3  396.36   16.10
 -11  -1  -3   84.09    7.90
 -11   1  -3   82.79    7.40
 -12  -1  -3    8.10    4.10
 -12   1  -3    1.60    3.30
 -13  -1  -3   36.70    6.40
 -13   1  -3   31.90    5.90
 -14  -1  -3    1.10    4.40
 -14   1  -3    1.30    4.30
 -15  -1  -3   54.39    8.20
 -15   1  -3   41.00    7.50
 -15  -2   3    9.40    5.70
 -14  -2   3    1.30    4.20
 -14   2   3    4.90    4.40
 -13  -2   3   14.70    4.90
 -13   2   3   27.80    5.10
 -12  -2   3  261.27   13.30
 -12   2   3  235.48   11.90
 -11  -2   3    7.30    4.20
 -11   2   3    5.20    3.30
 -10  -2   3  181.68   10.50
 -10   2   3  185.58    9.30
  -9  -2   3  356.56   14.60
  -9   2   3  338.97   13.30
  -8  -2   3    4.30    3.00
   8   2  -3    2.90    2.60
  -8   2   3    2.60    2.40
  -7  -2   3  349.37   14.00
  -7   2   3  359.96   12.80
   7   2  -3  375.06   14.00
  -7   2   3  364.16   12.70
  -6  -2   3  903.71   29.80
  -6   2   3  945.61   28.50
   6   2  -3 1046.10   30.20
  -6   2   3  941.11   28.60
  -5  -2   3   58.79    4.70
   5   2  -3   63.79    4.70
  -5   2   3   56.79    3.70
  -4  -2   3 1570.34   46.10
   4   2  -3 1575.34   46.00
  -4   2   3 1601.44   44.70
  -3  -2   3   45.10    3.80
  -3   2   3   45.40    2.40
   3   2  -3   43.90    3.70
  -2  -2   3  110.29    5.10
   2   2  -3  118.39    5.10
  -2   2   3  110.79    3.60
  -1  -2   3  351.66   11.30
  -1   2   3  373.26   10.20
   1   2  -3  351.66   11.30
   0  -2  -3 4347.77  120.39
   0  -2  -3 4268.07  120.49
   0  -2   3 4277.77  120.49
   0   2  -3 4089.69  121.99
   0   2   3 4266.87  119.19
  -1  -2  -3  359.46   11.10
  -1  -2  -3  341.97   11.00
   1  -2   3  351.26   10.90
   1   2   3  361.56   11.10
  -1   2  -3  364.86   10.90
  -2  -2  -3  101.49    4.70
  -2  -2  -3   95.49    4.60
   2  -2   3  101.69    4.20
  -2   2  -3  104.19    4.20
   2   2   3  106.09    4.80
  -3  -2  -3   37.10    3.50
  -3  -2  -3   43.90    3.80
   3  -2   3   42.70    3.10
   3   2   3   47.80    3.80
  -3   2  -3   46.30    3.10
  -4  -2  -3 1545.55   45.50
   4  -2   3 1514.15   44.60
  -4  -2  -3 1630.14   45.80
  -4   2  -3 1552.14   44.60
  -5  -2  -3   61.59    4.70
  -5  -2  -3   52.99    4.70
   5  -2   3   52.59    3.90
  -5   2  -3   62.99    4.10
  -6  -2  -3  933.91   29.00
  -6  -2  -3  884.01   28.70
  -6   2  -3  923.71   27.90
  -7  -2  -3  364.36   14.40
  -7   2  -3  367.96   13.30
  -8  -2  -3    5.50    3.70
  -8   2  -3    4.20    2.60
  -9  -2  -3  339.97   14.40
  -9   2  -3  333.27   13.60
 -10  -2  -3  202.38   10.90
 -10   2  -3  179.88    9.90
 -11  -2  -3    3.50    3.90
 -11   2  -3    5.30    3.80
 -12  -2  -3  247.88   13.20
 -12   2  -3  242.58   12.50
 -13  -2  -3   24.80    5.70
 -13   2  -3   18.70    5.30
 -14  -2  -3    6.10    4.80
 -14   2  -3    6.00    4.40
 -15  -2  -3    9.30    5.40
 -15   2  -3    7.20    5.00
 -15  -3   3    1.90    4.80
 -14  -3   3   30.50    6.20
 -13  -3   3    2.60    4.20
 -13   3   3    2.90    3.60
 -12  -3   3   52.19    7.00
 -12   3   3   39.00    5.40
 -11  -3   3   40.50    6.10
 -11   3   3   44.40    5.30
 -10  -3   3   11.90    4.20
 -10   3   3    9.10    3.30
  -9  -3   3    2.60    3.30
  -9   3   3    7.20    2.70
  -8  -3   3  434.36   16.70
   8   3  -3  405.96   16.10
  -8   3   3  421.06   14.50
  -7  -3   3    9.70    3.40
  -7   3   3    5.80    2.10
  -7   3   3    6.70    2.20
   7   3  -3    7.20    2.70
  -6  -3   3  104.29    6.60
  -6   3   3  103.09    5.00
  -6   3   3  100.89    5.00
   6   3  -3  116.49    6.70
  -5  -3   3   98.39    6.10
   5   3  -3   87.89    5.80
  -5   3   3   90.89    4.20
  -5   3   3   92.89    4.20
  -4  -3   3  109.39    6.00
  -4   3   3  102.99    4.00
   4   3  -3   99.69    5.80
  -3  -3   3   98.39    5.40
   3   3  -3  101.99    5.40
  -3   3   3   94.39    3.30
  -2  -3   3   20.90    2.80
   2   3  -3   27.00    2.90
  -1  -3   3   14.90    2.10
   1  -3  -3    9.30    0.70
   1  -3  -3   10.00    0.70
  -1   3   3    9.10    1.00
  -1   3   3   11.30    1.10
   1   3  -3   11.50    2.00
   0  -3  -3   -5.00    1.00
   0  -3   3   -3.20    1.50
   0  -3  -3   -3.60    1.10
   0   3   3   -6.30    1.10
   0   3   3   -4.70    1.20
   0   3  -3   -4.20    1.40
   1  -3   3   11.00    1.70
  -1  -3  -3    9.90    1.70
  -1  -3  -3    7.60    1.70
  -1   3  -3   12.10    1.80
   1   3   3   13.60    2.00
   1   3   3   11.00    2.00
  -2  -3  -3   26.20    2.80
  -2  -3  -3   23.70    2.80
   2  -3   3   28.70    2.30
   2   3   3   26.50    2.90
   2   3   3   25.70    2.80
  -2   3  -3   25.60    2.20
   3  -3   3   95.69    4.30
  -3  -3  -3   91.09    5.20
  -3   3  -3  103.29    4.40
   3   3   3   93.09    5.30
   4  -3   3  102.69    4.70
  -4  -3  -3  107.19    5.90
  -4  -3  -3  114.39    6.20
  -4   3  -3  104.59    4.90
  -5  -3  -3   80.19    5.80
   5  -3   3   88.99    4.60
  -5  -3  -3   85.99    5.70
  -5   3  -3   85.69    4.70
   6  -3   3  116.09    5.70
  -6  -3  -3  101.19    6.50
  -6  -3  -3  103.99    6.80
  -6   3  -3  102.59    5.50
  -7  -3  -3    4.10    3.40
  -7   3  -3    2.40    2.20
  -8  -3  -3  424.76   16.90
  -9  -3  -3    0.30    3.40
  -9   3  -3    3.10    2.90
 -10  -3  -3   10.30    4.30
 -10   3  -3   12.20    3.50
 -11  -3  -3   47.60    6.60
 -11   3  -3   45.40    5.60
 -12  -3  -3   41.60    6.80
 -12   3  -3   45.30    6.10
 -13  -3  -3    8.20    5.10
 -13   3  -3    4.40    3.90
 -14  -3  -3   34.90    6.90
 -14   3  -3   28.50    6.00
 -15  -3  -3    0.30    4.90
 -14  -4   3   16.60    6.30
 -13  -4   3   18.80    5.60
 -13   4   3   21.60    4.50
 -12  -4   3    1.00    3.90
 -12   4   3   -1.20    2.90
 -11  -4   3    3.00    4.00
 -11   4   3   10.90    3.60
 -10  -4   3   99.39    8.90
 -10   4   3   91.39    6.10
  -9  -4   3  146.49    9.70
  -9   4   3  133.19    7.00
  -8  -4   3   41.80    5.50
  -8   4   3   43.50    3.90
  -8   4   3   39.30    3.80
  -7  -4   3  308.17   12.80
  -7   4   3  285.87   10.20
   7   4  -3  283.87   12.30
  -7   4   3  283.07   10.20
  -6  -4   3    5.70    3.10
   6   4  -3    5.20    2.90
  -6   4   3    8.40    1.80
  -6   4   3    7.30    1.80
  -5  -4   3    3.20    2.80
  -5   4   3    0.70    1.20
   5   4  -3   -1.20    2.40
  -5   4   3    2.00    1.30
  -4  -4   3  157.78    7.80
  -4   4   3  161.18    5.30
   4   4  -3  170.38    7.80
  -3  -4   3   29.60    3.60
   3   4  -3   32.60    3.60
  -2  -4   3  110.69    5.70
  -2   4   3  117.29    3.60
   2   4  -3  116.49    5.80
  -2   4   3  119.39    3.60
   1  -4  -3   86.59    3.00
  -1  -4   3   91.29    4.60
  -1   4   3   88.29    3.40
   1   4  -3   77.29    4.40
  -1   4   3   84.99    3.40
   0  -4  -3   -1.00    1.20
   0  -4  -3    1.50    1.40
   0  -4   3    1.30    1.60
   0   4   3    0.00    1.50
   0   4   3    1.70    1.50
   0   4  -3   -0.70    1.80
  -1  -4  -3   91.49    4.40
  -1  -4  -3   88.99    4.30
   1  -4   3   85.89    4.10
  -1   4  -3   83.29    4.10
   1   4   3   89.19    4.40
  -2  -4  -3  115.39    5.90
   2  -4   3  120.99    4.80
  -2  -4  -3  109.09    5.50
  -2   4  -3  115.49    5.00
   2   4   3  117.29    5.60
  -3  -4  -3   23.60    3.20
  -3  -4  -3   26.20    3.40
   3  -4   3   26.60    2.30
  -3   4  -3   29.00    2.60
   3   4   3   23.20    3.20
  -4  -4  -3  159.28    7.60
   4  -4   3  152.48    5.90
  -4  -4  -3  162.88    7.80
  -4   4  -3  158.58    6.20
   4   4   3  152.28    7.50
   5  -4   3    1.70    1.70
  -5  -4  -3    5.30    2.60
  -5  -4  -3   -1.80    2.50
   5   4   3    0.00    2.40
  -5   4  -3    0.40    1.70
  -6  -4  -3    8.70    3.30
   6  -4   3    7.90    2.20
  -6   4  -3    9.00    2.20
  -7  -4  -3  305.07   12.80
  -7   4  -3  266.17   10.50
  -8  -4  -3   29.90    5.10
  -9  -4  -3  152.18    9.60
  -9   4  -3  141.99    7.80
 -10  -4  -3   96.59    8.70
 -10   4  -3   92.99    6.70
 -11  -4  -3    6.80    4.50
 -11   4  -3    4.30    3.60
 -12  -4  -3    2.10    4.20
 -12   4  -3    3.60    3.50
 -13  -4  -3   24.30    6.40
 -13   4  -3   26.40    5.30
 -14  -4  -3   17.50    5.90
 -14  -5   3   15.60    6.20
 -13  -5   3  175.28   12.10
 -12  -5   3   47.40    7.20
 -12   5   3   56.19    5.80
 -11  -5   3   47.80    6.80
 -11   5   3   59.69    5.50
 -10  -5   3   46.10    6.80
 -10   5   3   41.80    4.50
  -9  -5   3  325.47   15.20
  -9   5   3  351.56   12.50
  -8  -5   3  741.73   25.80
  -8   5   3  725.93   22.40
  -8   5   3  719.13   22.40
  -7  -5   3    1.00    3.10
  -7   5   3    1.90    1.60
  -7   5   3    2.10    1.70
  -6  -5   3 1064.49   34.10
  -6   5   3 1058.69   30.80
  -6   5   3 1084.89   30.80
  -5  -5   3  204.18    9.60
   5   5  -3  207.68    9.40
  -5   5   3  190.78    6.50
  -4  -5   3   98.59    6.30
  -4   5   3   90.99    3.20
   4   5  -3   88.29    5.90
  -3  -5   3  937.01   29.20
   3   5  -3  919.41   29.00
  -3   5   3  963.40   26.20
  -2  -5   3   -0.10    2.10
   2   5  -3    0.00    2.10
  -2   5   3    3.50    1.00
  -1  -5   3  403.46   13.40
   1  -5  -3  387.46   11.80
  -1   5   3  409.06   12.20
   1   5  -3  406.06   13.40
   0  -5  -3    3.00    1.50
   0  -5  -3   -1.40    1.30
   0  -5   3   -1.30    1.50
   0   5  -3    4.30    1.90
   0   5   3    0.60    1.50
  -1  -5  -3  409.16   13.10
  -1  -5  -3  399.56   13.10
   1  -5   3  384.46   12.60
  -1   5  -3  394.16   12.80
   1   5   3  397.76   13.00
   2  -5   3    2.30    1.60
  -2  -5  -3    0.70    1.90
  -2  -5  -3    0.70    2.10
   2   5   3    1.80    2.10
  -2   5  -3    3.90    1.70
  -3  -5  -3  996.90   29.30
   3  -5   3  943.11   27.50
  -3  -5  -3  916.41   29.20
  -3   5  -3  968.90   27.80
   3   5   3  933.31   29.20
  -4  -5  -3  100.59    6.00
   4  -5   3   90.79    4.20
  -4  -5  -3  110.59    6.40
  -4   5  -3   90.99    4.50
   4   5   3   88.29    5.80
  -5  -5  -3  187.38    9.00
   5  -5   3  196.38    7.10
  -5  -5  -3  208.18    9.60
  -5   5  -3  189.38    7.40
   5   5   3  182.38    9.00
   6  -5   3 1100.39   31.90
  -6  -5  -3 1097.29   34.80
  -6   5  -3 1074.59   32.30
  -7  -5  -3    1.80    3.20
  -7   5  -3    2.00    2.00
  -8  -5  -3  747.73   26.40
  -9  -5  -3  350.96   15.80
 -10  -5  -3   55.89    7.30
 -10   5  -3   35.80    4.80
 -11  -5  -3   46.20    7.00
 -11   5  -3   56.69    5.90
 -12  -5  -3   42.70    7.50
 -12   5  -3   46.60    5.90
 -13  -5  -3  177.18   12.60
 -13   5  -3  187.28   10.60
 -14  -5  -3   20.70    6.70
 -14  -6   3    0.80    5.00
 -13  -6   3   24.60    6.30
 -12  -6   3   -1.50    4.30
 -11  -6   3   11.50    4.80
 -11   6   3    6.10    2.90
 -10  -6   3   20.80    5.40
 -10   6   3   14.80    3.10
  -9  -6   3   -1.00    3.70
  -9   6   3   -1.40    2.00
  -8  -6   3   31.10    5.40
  -8   6   3   32.80    3.10
  -8   6   3   36.50    3.20
  -7  -6   3    4.60    3.50
  -7   6   3    2.60    1.50
  -7   6   3    4.00    1.60
  -6  -6   3   36.60    5.20
  -6   6   3   42.20    2.70
  -5  -6   3   10.10    3.60
  -4  -6   3  635.24   21.10
   4   6  -3  599.04   20.80
  -4   6   3  618.84   17.50
  -3  -6   3   42.90    4.50
   3   6  -3   45.70    4.50
  -3   6   3   45.70    2.10
  -2  -6   3  205.48    8.80
  -2   6   3  210.68    6.80
   2   6  -3  204.68    8.70
  -1  -6   3  125.59    6.40
   1  -6  -3  142.09    5.20
  -1   6   3  142.79    5.50
   1   6  -3  162.08    6.80
   0  -6  -3 1710.33   49.00
   0  -6  -3 1677.53   49.00
   0  -6   3 1722.63   49.60
   0   6   3 1760.82   49.20
   0   6  -3 1748.43   49.70
   1  -6   3  134.59    5.90
  -1  -6  -3  131.39    6.20
  -1  -6  -3  136.69    6.20
   1   6   3  138.29    6.30
  -1   6  -3  137.09    5.90
  -2  -6  -3  184.78    8.40
  -2  -6  -3  209.78    8.30
   2  -6   3  199.78    7.30
   2   6   3  195.68    8.30
  -2   6  -3  205.28    7.50
  -3  -6  -3   59.69    5.00
   3  -6   3   44.90    3.00
  -3  -6  -3   44.40    4.40
  -3   6  -3   44.40    3.30
   3   6   3   52.59    4.60
  -4  -6  -3  612.94   21.00
   4  -6   3  613.04   18.40
  -4  -6  -3  639.44   21.00
  -4   6  -3  603.04   18.80
   4   6   3  630.14   20.90
  -5  -6  -3    0.60    3.00
  -5  -6  -3   -2.00    2.60
   5  -6   3    2.90    1.40
  -5   6  -3    3.70    1.80
  -6  -6  -3   49.80    5.70
  -6   6  -3   44.80    3.70
  -7  -6  -3    5.20    3.60
  -7   6  -3    1.00    2.00
  -8  -6  -3   38.20    5.90
  -9  -6  -3    1.00    4.00
 -10  -6  -3   16.70    5.80
 -10   6  -3   16.60    3.70
 -11  -6  -3   15.20    5.30
 -11   6  -3    8.50    3.40
 -12  -6  -3    1.30    4.50
 -12   6  -3    3.00    3.10
 -13  -6  -3   30.50    6.90
 -14  -6  -3    0.80    5.20
 -14  -7   3   17.90    6.40
 -13  -7   3   64.29    9.00
 -12  -7   3   15.90    5.70
 -11  -7   3   66.29    8.50
 -10  -7   3   54.49    7.30
 -10   7   3   57.59    4.70
  -9  -7   3    1.30    4.00
  -9   7   3    5.90    2.10
  -8  -7   3  424.06   18.00
  -8   7   3  430.06   13.70
  -8   7   3  419.66   13.60
  -7  -7   3   18.10    4.60
  -7   7   3   19.60    2.10
  -7   7   3   18.90    2.10
  -6  -7   3    5.30    3.50
  -6   7   3    0.60    1.10
  -5  -7   3    3.80    3.30
  -5   7   3    9.60    1.10
  -4  -7   3   15.40    3.60
  -4   7   3   12.40    1.20
  -3  -7   3 1134.69   35.10
  -3   7   3 1131.19   32.10
  -2  -7   3  173.38    8.20
   2   7  -3  169.28    8.10
  -2   7   3  183.68    6.40
  -1  -7   3  138.59    6.70
   1  -7  -3  135.89    5.20
   1   7  -3  134.29    6.80
  -1   7   3  129.19    5.60
   0  -7  -3   -0.20    1.40
   0  -7   3   -3.00    1.80
   0  -7  -3    1.40    1.70
   0   7   3    0.50    1.60
   0   7  -3    4.00    1.90
  -1  -7  -3  134.99    6.40
  -1  -7  -3  137.99    6.40
   1  -7   3  133.79    6.00
   1   7   3  144.49    6.70
  -1   7  -3  127.79    6.10
  -2  -7  -3  193.38    8.00
  -2  -7  -3  178.58    7.90
   2  -7   3  168.98    6.70
  -2   7  -3  168.18    7.10
   2   7   3  170.88    7.90
  -3  -7  -3 1169.08   34.90
  -3  -7  -3 1126.19   34.50
   3  -7   3 1072.29   32.40
  -3   7  -3 1135.19   33.00
   3   7   3 1129.29   34.70
  -4  -7  -3   14.60    3.40
   4  -7   3   12.10    1.70
  -4  -7  -3    7.90    3.10
  -4   7  -3   13.80    2.20
  -5  -7  -3    7.80    3.40
   5  -7   3    4.40    1.40
  -5  -7  -3    5.30    3.10
  -5   7  -3    8.40    2.00
  -6  -7  -3    3.40    3.40
  -6   7  -3    1.20    1.80
  -7  -7  -3   14.00    4.40
  -8  -7  -3  446.16   18.80
  -9  -7  -3    2.40    4.20
 -10  -7  -3   52.49    7.40
 -11  -7  -3   68.89    8.70
 -11   7  -3   71.49    6.30
 -12  -7  -3   30.90    7.00
 -13  -7  -3   54.79    8.60
 -14  -7  -3   24.50    7.40
 -13  -8   3    4.10    5.60
 -12  -8   3    3.60    5.10
 -11  -8   3    3.70    4.80
 -10  -8   3   44.00    7.10
  -9  -8   3  535.05   22.40
  -9   8   3  570.44   17.50
  -8  -8   3    2.90    4.30
  -8   8   3   10.70    1.90
  -8   8   3    9.90    1.90
  -7  -8   3  154.18   10.00
  -7   8   3  145.29    5.40
  -6  -8   3   18.20    4.60
  -6   8   3   18.10    1.60
  -5  -8   3   -1.10    3.60
  -5   8   3    0.20    0.90
  -4  -8   3   21.10    4.20
  -4   8   3   25.10    2.00
  -3  -8   3  611.74   21.30
  -3   8   3  621.64   18.30
  -2  -8   3 1459.05   43.60
  -2   8   3 1427.96   41.30
  -1  -8   3  610.24   19.60
   1  -8  -3  591.74   17.60
   1  -8  -3  549.65   17.50
  -1   8   3  580.34   18.20
   1   8  -3  584.44   19.40
   0  -8   3 1566.34   45.40
   0  -8  -3 1517.75   44.70
   0  -8  -3 1565.64   44.70
   0   8  -3 1539.65   45.40
   0   8   3 1526.75   44.90
   1  -8   3  580.24   18.80
  -1  -8  -3  611.54   19.40
  -1  -8  -3  600.24   19.30
  -1   8  -3  586.74   19.00
   1   8   3  592.84   19.30
   2  -8   3 1396.56   42.60
  -2  -8  -3 1547.65   44.30
  -2  -8  -3 1535.55   44.40
  -2   8  -3 1447.26   43.00
  -3  -8  -3  608.34   20.80
  -3  -8  -3  616.64   21.00
   3  -8   3  611.94   18.60
  -3   8  -3  625.94   19.30
   4  -8   3   27.20    2.20
  -4  -8  -3   19.90    4.10
  -4  -8  -3   28.70    4.20
  -4   8  -3   26.20    2.90
  -5  -8  -3   -4.00    2.90
   5  -8   3    0.30    0.90
  -5   8  -3   -0.10    1.70
  -6  -8  -3   19.40    4.50
  -6   8  -3   18.20    2.70
  -7  -8  -3  156.98   10.20
  -8  -8  -3   11.30    4.80
  -9  -8  -3  580.54   23.40
 -10  -8  -3   48.20    7.50
 -11  -8  -3   13.10    5.60
 -12  -8  -3   -1.20    5.40
 -13  -8  -3    9.80    5.90
 -13  -9   3    1.30    5.40
 -12  -9   3    3.20    5.30
 -11  -9   3  115.09   11.40
 -10  -9   3  142.49   11.20
  -9  -9   3   45.30    7.30
  -9   9   3   43.60    3.60
  -8  -9   3   70.19    8.00
  -8   9   3   74.59    3.70
  -8   9   3   82.19    3.80
  -7  -9   3  121.99    9.20
  -7   9   3  106.89    4.20
  -6  -9   3  371.76   16.00
  -6   9   3  345.07   10.70
  -5  -9   3  860.41   29.20
  -5   9   3  846.72   24.40
  -4  -9   3  145.89    8.70
  -4   9   3  145.89    5.50
  -3  -9   3  185.88    9.60
  -3   9   3  168.08    6.50
   2  -9  -3  429.06   12.30
   2  -9  -3  422.16   12.30
  -2  -9   3  444.06   16.10
  -2   9   3  413.56   13.80
   1  -9  -3  360.76   12.00
   1  -9  -3  376.36   12.10
  -1  -9   3  383.26   14.00
  -1   9   3  362.56   12.70
   0  -9  -3    1.60    1.90
   0  -9   3    1.30    2.50
   0  -9  -3   -1.50    1.90
   0   9   3   -0.50    1.90
  -1  -9  -3  381.96   13.80
   1  -9   3  383.46   13.40
  -1  -9  -3  377.46   13.80
   2  -9   3  441.36   14.30
  -2  -9  -3  456.95   15.80
  -2  -9  -3  430.76   15.80
  -2   9  -3  406.16   14.60
  -3  -9  -3  187.88    9.60
   3  -9   3  176.78    7.00
  -3  -9  -3  184.38    9.00
  -3   9  -3  189.48    7.80
  -4  -9  -3  149.69    8.70
  -4  -9  -3  133.39    8.50
   4  -9   3  151.28    5.40
  -4   9  -3  140.39    6.50
  -5  -9  -3  932.91   30.40
  -5   9  -3  866.41   27.00
  -6  -9  -3  357.56   15.80
  -7  -9  -3  110.39    8.80
  -8  -9  -3   74.59    8.20
  -9  -9  -3   52.79    7.60
 -10  -9  -3  116.79   10.90
 -11  -9  -3  132.99   12.10
 -12  -9  -3    4.70    5.50
 -13  -9  -3   -5.20    5.30
 -12 -10   3    3.80    5.90
 -11 -10   3    8.80    5.60
 -10 -10   3    1.80    5.40
  -9 -10   3   88.69    9.80
  -8 -10   3   -2.10    4.20
  -7 -10   3   67.19    7.80
  -7  10   3   65.09    3.00
  -6 -10   3  193.38   11.20
  -6  10   3  182.48    6.20
  -5 -10   3   55.99    6.80
  -5  10   3   49.00    3.00
  -4 -10   3  672.93   23.40
  -4  10   3  626.44   19.40
  -3 -10   3    4.30    3.10
  -3  10   3    1.70    1.80
  -2 -10   3   22.20    4.20
   2 -10  -3   20.10    1.60
   2 -10  -3   23.70    1.70
  -2  10   3   22.30    2.90
   1 -10  -3   21.40    2.60
   1 -10  -3   26.80    2.70
  -1 -10   3   28.10    4.10
   0 -10   3  366.06   13.40
   0 -10  -3  356.56   12.70
   0 -10  -3  344.87   12.60
   1 -10   3   21.30    3.30
  -1 -10  -3   33.80    4.00
  -1 -10  -3   26.20    3.70
   2 -10   3   19.40    2.90
  -2 -10  -3   20.70    3.80
  -2 -10  -3   19.70    3.70
  -3 -10  -3    2.80    3.10
  -3 -10  -3    8.70    3.60
   3 -10   3    3.70    1.90
   4 -10   3  643.74   18.50
  -4 -10  -3  641.24   22.80
  -4 -10  -3  601.84   22.20
  -5 -10  -3   51.69    6.30
  -6 -10  -3  192.58   11.20
  -7 -10  -3   77.49    8.10
  -8 -10  -3    6.20    4.70
  -9 -10  -3   78.59    8.90
 -10 -10  -3    7.00    5.00
 -11 -10  -3    6.50    5.20
 -12 -10  -3   11.40    6.10
 -12 -11   3   10.30    5.80
 -11 -11   3   37.70    7.70
 -10 -11   3   61.19    8.70
  -9 -11   3    5.30    4.90
  -8 -11   3    6.50    4.70
  -7 -11   3  149.88   11.10
  -6 -11   3   44.90    6.60
  -6  11   3   45.80    2.70
  -5 -11   3  169.88   10.30
  -5  11   3  159.28    6.10
  -4 -11   3  347.67   15.10
  -4  11   3  312.27   10.90
  -3 -11   3  705.83   24.90
   2 -11  -3   72.49    2.90
  -2 -11   3   69.59    6.50
   2 -11  -3   71.29    2.90
   1 -11  -3   28.10    3.00
  -1 -11   3   33.80    4.50
   1 -11  -3   37.80    3.30
   0 -11  -3    0.30    2.10
   0 -11   3   -0.10    2.70
   0 -11  -3    0.90    2.10
  -1 -11  -3   36.10    4.40
   1 -11   3   30.00    3.80
  -1 -11  -3   35.70    4.20
   2 -11   3   82.09    5.10
  -2 -11  -3   81.79    6.40
  -2 -11  -3   83.99    6.30
   3 -11   3  713.23   21.20
  -3 -11  -3  716.63   24.40
  -3 -11  -3  653.43   23.90
   4 -11   3  327.47   10.10
  -4 -11  -3  364.96   15.30
   4 -11   3  331.77   10.10
  -5 -11  -3  192.48   11.50
  -6 -11  -3   47.00    6.70
  -7 -11  -3  167.78   11.00
  -8 -11  -3   11.50    4.90
  -9 -11  -3   -8.50    3.60
 -10 -11  -3   46.90    8.00
 -11 -11  -3   42.70    8.00
 -12 -11  -3    3.10    5.70
 -11 -12   3    4.40    5.70
 -10 -12   3    2.10    5.20
  -9 -12   3   22.80    6.40
  -8 -12   3   -4.90    3.90
  -7 -12   3   68.29    8.30
  -6 -12   3   -3.30    4.00
  -5 -12   3    6.80    4.60
  -4 -12   3   39.10    5.80
  -3 -12   3  236.78   11.70
  -2 -12   3  102.79    7.70
   1 -12  -3    4.10    1.80
  -1 -12   3    1.90    3.10
   1 -12  -3    7.50    2.20
   0 -12  -3  284.67   11.30
   0 -12  -3  292.27   11.40
   0 -12   3  299.97   12.20
  -1 -12  -3   -0.20    2.40
  -1 -12  -3    3.70    2.90
   1 -12   3    5.50    2.70
  -2 -12  -3   95.29    7.00
   2 -12   3   94.19    5.70
  -2 -12  -3  110.19    7.40
   2 -12   3   95.49    5.70
  -3 -12  -3  236.28   11.80
  -3 -12  -3  272.97   12.40
   3 -12   3  246.78    9.00
  -4 -12  -3   45.50    5.90
  -5 -12  -3   12.20    4.80
  -6 -12  -3   -1.00    4.10
  -7 -12  -3   77.79    8.70
  -8 -12  -3    0.30    4.20
  -9 -12  -3   14.70    5.70
 -10 -12  -3    4.20    5.20
 -11 -12  -3   -5.00    5.80
 -10 -13   3  104.99   11.60
  -9 -13   3   69.39    9.50
  -8 -13   3   29.10    6.80
  -7 -13   3   65.69    8.30
  -6 -13   3   53.59    7.30
  -5 -13   3  142.79   10.00
  -4 -13   3    0.10    3.90
  -3 -13   3   36.50    6.00
  -2 -13   3  145.69    9.10
  -1 -13   3   31.30    4.90
   1 -13  -3   31.30    3.30
   0 -13  -3    0.00    2.50
   0 -13   3    2.90    3.00
  -1 -13  -3   34.70    4.60
   1 -13   3   42.80    4.60
  -2 -13  -3  151.88    8.70
   2 -13   3  142.99    7.10
   3 -13   3   43.40    3.40
  -3 -13  -3   36.20    5.50
  -4 -13  -3   -0.90    3.60
  -5 -13  -3  115.49    9.40
  -6 -13  -3   46.90    7.00
  -7 -13  -3   96.49    9.60
  -8 -13  -3   27.30    6.50
  -9 -13  -3   71.29    9.50
 -10 -13  -3  115.69   12.00
  -9 -14   3   84.79   10.40
  -8 -14   3    5.60    5.60
  -7 -14   3   79.69    9.60
  -6 -14   3   14.80    5.60
  -5 -14   3    3.70    4.50
  -4 -14   3   37.40    6.30
  -3 -14   3  154.18   10.20
  -2 -14   3   97.99    7.90
   1 -14  -3  132.89    6.20
  -1 -14   3  134.59    8.80
   0 -14   3   25.70    4.40
   0 -14  -3   22.00    3.60
   1 -14   3  151.08    8.00
  -1 -14  -3  141.69    8.30
  -2 -14  -3   94.69    7.60
   2 -14   3   95.99    5.70
   3 -14   3  133.59    5.40
  -3 -14  -3  129.09    8.90
  -4 -14  -3   44.40    6.50
  -5 -14  -3    3.90    4.30
  -6 -14  -3   13.50    5.00
  -7 -14  -3   84.19    9.60
  -8 -14  -3    3.40    4.90
  -9 -14  -3   70.09    9.70
  -8 -15   3  135.59   12.90
  -7 -15   3    6.50    5.00
  -6 -15   3   23.20    6.00
  -5 -15   3    7.40    5.20
  -4 -15   3   98.29    9.40
  -3 -15   3  179.58   11.10
  -2 -15   3   -3.30    3.50
  -1 -15   3   19.30    4.60
   1 -15  -3   23.60    2.90
   0 -15   3    4.10    3.40
   0 -15  -3   -0.70    2.60
   1 -15   3   29.90    4.30
  -1 -15  -3   30.50    4.60
   2 -15   3   -1.40    2.10
  -2 -15  -3   -0.10    3.30
  -3 -15  -3  169.38   10.30
  -4 -15  -3   77.69    8.10
  -5 -15  -3    3.00    4.50
  -6 -15  -3   21.90    6.10
  -7 -15  -3   10.90    5.40
  -8 -15  -3  134.79   12.60
  -6 -16   3    5.10    4.80
  -5 -16   3   24.60    6.10
  -4 -16   3    3.50    4.60
  -3 -16   3   31.90    6.20
  -2 -16   3    0.50    3.70
  -1 -16   3    2.10    3.70
   0 -16  -3   29.80    4.00
   0 -16   3   28.70    4.80
   1 -16   3    0.00    2.80
  -1 -16  -3   11.00    3.70
  -2 -16  -3    0.90    3.60
  -3 -16  -3   19.70    5.00
  -4 -16  -3   11.30    4.80
  -5 -16  -3   16.10    5.50
  -6 -16  -3    1.10    4.80
  -4 -17   3   25.10    6.10
  -3 -17   3  155.18   11.00
  -2 -17   3    5.20    4.40
  -1 -17   3    1.80    3.70
   0 -17   3    1.90    3.30
  -1 -17  -3    0.00    3.10
  -2 -17  -3   11.30    4.40
  -3 -17  -3  139.99   10.10
  -4 -17  -3   16.20    5.50
 -15   0   4   40.60    7.00
 -14   0   4  107.59    8.90
 -13   0   4   -5.00    3.60
 -12   0   4   30.50    5.40
 -11   0   4  589.84   21.80
 -10   0   4  674.73   23.70
  -9   0   4    7.10    3.30
  -8   0   4   21.80    3.70
  -7   0   4   83.49    5.70
  -6   0   4 2124.89   61.49
   6   0  -4 2141.59   61.39
   5   0  -4 3678.13  104.79
  -5   0   4 3794.22  104.99
  -4   0   4   62.79    3.90
   4   0  -4   63.09    4.00
   3   0  -4  823.02   24.20
  -3   0   4  827.82   24.20
  -2   0   4 5322.37  154.18
   2   0  -4 5465.15  151.08
  -1   0   4  622.44   17.80
   1   0  -4  607.44   17.80
   0   0  -4    3.60    1.30
   0   0   4    6.70    1.40
  -1   0  -4  604.04   17.70
   1   0   4  604.24   17.70
  -2   0  -4 5439.66  151.18
   2   0   4 5138.29  149.39
  -3   0  -4  766.92   23.10
   3   0   4  784.32   23.20
  -4   0  -4   57.89    4.10
   4   0   4   54.59    4.30
   5   0   4 3475.65  101.39
  -5   0  -4 3717.73  101.49
  -6   0  -4 2121.09   62.59
  -6   0  -4 2160.58   62.79
   6   0   4 2205.78   62.79
  -7   0  -4   88.39    6.00
  -8   0  -4   21.80    4.00
  -9   0  -4    8.30    3.80
 -10   0  -4  664.63   23.90
 -11   0  -4  604.94   22.80
 -12   0  -4   32.20    5.60
 -13   0  -4    1.90    3.90
 -14   0  -4  126.09   11.10
 -15   0  -4   15.60    5.80
 -15  -1   4    0.20    4.90
 -14  -1   4   -1.80    3.60
 -14   1   4   -5.40    3.40
 -13  -1   4    9.30    4.70
 -13   1   4    7.00    4.30
 -12  -1   4   13.30    4.80
 -12   1   4   10.00    3.80
 -11  -1   4   73.49    7.40
 -11   1   4   98.59    7.50
 -10  -1   4  148.09    8.70
 -10   1   4  133.89    8.30
  -9  -1   4  159.48    9.10
  -9   1   4  168.68    8.40
  -8  -1   4   30.90    4.50
  -8   1   4   33.60    4.10
  -7  -1   4  175.28    8.60
  -7   1   4  161.68    7.70
   7   1  -4  179.38    8.30
  -6  -1   4 1327.37   40.30
  -6   1   4 1356.16   39.70
   6   1  -4 1366.86   40.30
   5  -1  -4  336.77   11.30
  -5  -1   4  342.97   12.20
   5   1  -4  334.87   12.00
  -5   1   4  332.77   11.50
   4  -1  -4    1.90    1.50
  -4  -1   4    4.90    2.10
  -4   1   4    2.90    1.80
   4   1  -4   -0.30    2.00
   3  -1  -4  265.07    8.60
  -3  -1   4  273.47    9.40
   3   1  -4  260.97    9.30
  -3   1   4  273.97    8.70
   2  -1  -4  711.63   21.50
  -2  -1   4  770.12   22.40
   2   1  -4  792.52   22.40
  -2   1   4  760.32   21.60
  -1  -1   4  932.91   25.60
   1  -1  -4  807.42   24.90
   1   1  -4  882.91   25.60
  -1   1   4  929.51   25.10
   0  -1  -4   -1.00    0.80
   0  -1   4   -0.90    1.00
   0   1   4   -1.10    0.90
   0   1  -4    1.00    1.00
  -1  -1  -4  842.12   24.80
   1  -1   4  868.01   24.90
   1   1   4  881.31   24.90
  -1   1  -4  861.41   24.80
   2  -1   4  737.13   21.70
  -2  -1  -4  715.93   21.80
  -2   1  -4  735.73   21.70
   2   1   4  764.62   21.90
  -3  -1  -4  258.57    9.20
   3  -1   4  253.77    8.90
  -3   1  -4  275.37    9.10
   3   1   4  250.07    9.20
   4  -1   4    2.50    2.10
  -4  -1  -4   -0.20    2.00
  -4   1  -4   -1.80    1.80
   4   1   4    0.10    2.10
  -5  -1  -4  343.07   12.30
  -5  -1  -4  323.37   12.00
   5  -1   4  327.97   11.80
  -5   1  -4  335.47   11.70
   5   1   4  325.27   12.10
  -6  -1  -4 1220.38   39.10
   6  -1   4 1345.27   39.10
  -6  -1  -4 1350.46   39.70
  -6   1  -4 1313.97   39.00
  -7  -1  -4  167.58    8.50
  -8  -1  -4   30.30    4.60
  -8   1  -4   35.90    4.50
  -9  -1  -4  175.28    9.40
  -9   1  -4  153.88    8.70
 -10  -1  -4  128.19    8.70
 -10   1  -4  129.49    8.30
 -11  -1  -4  101.89    8.10
 -11   1  -4   86.09    7.90
 -12  -1  -4   21.40    5.50
 -12   1  -4   18.10    4.50
 -13  -1  -4   10.30    5.30
 -13   1  -4    7.70    4.60
 -14  -1  -4   -6.60    4.40
 -14   1  -4   -1.50    4.20
 -15  -1  -4   19.60    6.50
 -15   1  -4    7.00    5.40
 -15  -2   4   10.50    5.60
 -14  -2   4   17.00    5.10
 -14   2   4   17.30    4.90
 -13  -2   4   33.50    6.00
 -13   2   4   39.10    5.80
 -12  -2   4   27.30    5.80
 -12   2   4   18.60    4.40
 -11  -2   4    2.50    3.50
 -11   2   4    3.00    3.10
 -10  -2   4  202.18   11.00
 -10   2   4  183.28    9.40
  -9  -2   4   24.80    4.60
  -9   2   4   36.90    4.40
  -8  -2   4   25.40    4.20
  -8   2   4   18.00    3.20
   8   2  -4   16.60    3.60
  -7  -2   4  257.47   11.10
  -7   2   4  258.27    9.90
  -7   2   4  268.47   10.00
   7   2  -4  241.38   10.80
  -6  -2   4  112.49    6.80
  -6   2   4  132.99    5.90
   6   2  -4  140.09    7.10
  -5  -2   4  229.78    9.30
   5   2  -4  222.38    9.10
  -5   2   4  210.88    7.90
  -4  -2   4    2.50    2.30
  -4   2   4    0.80    1.40
   4   2  -4   -1.10    2.00
  -3  -2   4   -2.60    2.00
   3   2  -4    2.10    1.90
  -3   2   4    0.90    1.10
  -2  -2   4 1713.53   48.00
   2   2  -4 1630.64   47.90
  -2   2   4 1681.23   46.60
  -1  -2   4  169.08    6.50
   1   2  -4  185.08    6.70
  -1   2   4  184.88    5.60
   0  -2  -4  725.63   21.90
   0  -2   4  753.42   22.40
   0   2   4  777.32   22.00
   0   2  -4  771.32   22.40
  -1  -2  -4  183.98    6.50
   1  -2   4  186.48    6.60
   1   2   4  186.98    6.60
  -1   2  -4  180.58    6.50
  -2  -2  -4 1584.04   46.00
   2  -2   4 1613.44   45.70
  -2  -2  -4 1544.65   46.10
  -2   2  -4 1644.04   45.70
   2   2   4 1649.83   46.10
  -3  -2  -4   -2.00    2.00
  -3  -2  -4   -0.40    1.80
   3  -2   4    1.20    1.60
  -3   2  -4    1.60    1.50
   3   2   4    0.30    2.10
   4  -2   4    2.10    1.80
  -4  -2  -4   -0.60    2.10
  -4  -2  -4    1.60    2.40
  -4   2  -4    2.10    1.70
   4   2   4    0.30    2.20
   5  -2   4  212.98    8.20
  -5  -2  -4  210.78    9.10
  -5  -2  -4  208.58    8.90
  -5   2  -4  210.78    8.10
   5   2   4  190.58    8.80
   6  -2   4  113.29    6.10
  -6  -2  -4  114.69    6.90
  -6  -2  -4  129.29    6.90
  -6   2  -4  125.09    6.30
  -7  -2  -4  239.88   10.80
  -8  -2  -4   15.10    3.90
  -9  -2  -4   26.50    4.90
  -9   2  -4   29.50    4.50
 -10  -2  -4  191.88   10.90
 -10   2  -4  205.48   10.50
 -11  -2  -4    2.60    3.70
 -11   2  -4    1.30    3.10
 -12  -2  -4   23.30    5.50
 -12   2  -4   30.80    5.20
 -13  -2  -4   28.50    6.70
 -13   2  -4   44.00    6.50
 -14  -2  -4   23.70    6.10
 -14   2  -4   15.10    5.30
 -15  -2  -4    3.90    5.10
 -15   2  -4    9.60    5.10
 -15  -3   4   40.70    8.80
 -14  -3   4    6.10    5.10
 -13  -3   4   30.80    6.10
 -13   3   4   30.50    5.40
 -12  -3   4  127.99   10.10
 -12   3   4  130.09    8.30
 -11  -3   4   91.49    8.60
 -11   3   4   72.89    6.40
 -10  -3   4   77.49    7.50
 -10   3   4   89.89    6.20
  -9  -3   4   10.50    3.80
  -9   3   4   13.00    3.10
  -8  -3   4   19.30    4.20
  -8   3   4   21.10    3.20
   8   3  -4   18.60    4.00
  -7  -3   4  363.36   14.80
   7   3  -4  387.36   14.90
  -7   3   4  413.86   13.30
  -7   3   4  387.76   13.20
  -6  -3   4  771.22   26.00
   6   3  -4  848.82   26.30
  -6   3   4  798.92   24.10
  -5  -3   4  259.67   10.80
  -5   3   4  272.97    8.90
   5   3  -4  269.77   10.80
  -4  -3   4 1614.54   46.10
  -4   3   4 1563.84   43.80
   4   3  -4 1513.35   45.80
  -3  -3   4   67.79    4.50
   3   3  -4   49.90    4.20
  -3   3   4   55.99    2.30
  -2  -3   4  197.58    7.70
  -2   3   4  190.98    5.50
   2   3  -4  183.38    7.50
   1  -3  -4  250.67    7.40
   1   3  -4  239.88    8.90
  -1   3   4  256.97    7.70
   0  -3  -4   -2.40    1.10
   0  -3  -4   -2.00    1.10
   0  -3   4   -2.40    1.40
   0   3  -4   -2.60    1.50
   0   3   4   -1.10    1.30
  -1  -3  -4  250.07    8.80
  -1  -3  -4  247.58    8.80
   1  -3   4  256.47    8.80
   1   3   4  264.87    8.90
  -1   3  -4  276.37    8.90
   2  -3   4  184.28    6.70
  -2  -3  -4  183.18    7.30
  -2  -3  -4  187.08    7.30
   2   3   4  181.98    7.30
  -2   3  -4  193.88    6.80
  -3  -3  -4   57.19    4.30
  -3  -3  -4   44.10    4.00
   3  -3   4   49.40    3.40
  -3   3  -4   53.59    3.40
   3   3   4   52.19    4.20
  -4  -3  -4 1542.65   45.50
   4  -3   4 1509.75   44.30
  -4  -3  -4 1575.04   45.70
   4   3   4 1583.34   45.80
  -4   3  -4 1537.05   44.50
  -5  -3  -4  263.67   10.80
  -5  -3  -4  284.67   11.20
   5  -3   4  277.87    9.80
  -5   3  -4  257.37    9.70
  -6  -3  -4  762.52   25.30
  -6  -3  -4  782.02   25.20
   6  -3   4  781.12   23.80
  -6   3  -4  752.42   23.80
  -7  -3  -4  411.66   15.90
  -8  -3  -4   17.80    3.90
  -9  -3  -4    2.30    4.00
  -9   3  -4    4.30    3.20
 -10  -3  -4   75.39    7.80
 -10   3  -4   84.79    6.40
 -11  -3  -4   80.79    8.30
 -11   3  -4   92.19    7.80
 -12  -3  -4  114.19    9.50
 -12   3  -4  123.29    8.70
 -13  -3  -4   24.10    6.40
 -13   3  -4   22.10    5.20
 -14  -3  -4    1.60    5.20
 -14   3  -4    3.50    4.10
 -15  -3  -4   52.09    8.40
 -14  -4   4   10.70    5.10
 -13  -4   4  109.39   10.20
 -13   4   4   94.49    7.50
 -12  -4   4  269.37   14.50
 -12   4   4  266.37   12.20
 -11  -4   4   28.20    5.60
 -11   4   4   23.00    4.00
 -10  -4   4   18.90    4.80
 -10   4   4   11.10    3.10
  -9  -4   4   38.40    5.70
  -9   4   4   37.40    4.00
  -8  -4   4   -2.00    3.00
  -8   4   4    3.90    2.20
  -8   4   4    4.20    2.10
  -7  -4   4   13.70    3.90
  -7   4   4   11.80    2.30
   7   4  -4    9.50    3.40
  -7   4   4   13.60    2.40
  -6  -4   4  397.46   15.60
   6   4  -4  430.96   16.00
  -6   4   4  423.46   13.30
  -6   4   4  429.46   13.30
  -5  -4   4  546.55   18.70
  -5   4   4  533.05   15.70
   5   4  -4  509.75   18.20
  -5   4   4  532.85   15.80
  -4  -4   4 1191.08   36.50
  -4   4   4 1197.08   33.70
   4   4  -4 1226.48   36.60
  -3  -4   4  364.56   12.90
   3   4  -4  349.17   12.70
  -2  -4   4  338.07   12.00
   2   4  -4  343.67   12.00
  -2   4   4  341.17    9.70
  -2   4   4  338.47    9.70
  -1  -4   4  460.05   15.50
   1  -4  -4  491.95   13.90
  -1   4   4  511.05   14.30
  -1   4   4  488.55   14.20
   1   4  -4  467.95   15.50
   0  -4  -4 6545.54  186.38
   0  -4  -4 6495.85  189.78
   0  -4   4 6628.94  190.18
   0   4   4 6857.91  188.18
   0   4  -4 6875.31  189.18
   0   4   4 6707.13  187.58
  -1  -4  -4  480.65   15.40
   1  -4   4  484.75   15.40
  -1  -4  -4  496.55   15.50
   1   4   4  513.55   15.70
   1   4   4  502.15   15.60
  -1   4  -4  511.25   15.50
  -2  -4  -4  337.37   11.60
  -2  -4  -4  319.17   11.70
   2  -4   4  332.67   11.00
  -2   4  -4  346.27   11.10
   2   4   4  345.47   11.70
   2   4   4  342.67   11.70
  -3  -4  -4  329.47   11.90
  -3  -4  -4  330.47   12.10
   3  -4   4  328.47   10.80
   3   4   4  337.07   12.00
  -3   4  -4  340.77   11.00
   4  -4   4 1146.09   33.60
  -4  -4  -4 1165.18   35.40
  -4  -4  -4 1165.88   35.20
  -4   4  -4 1167.38   33.80
   5  -4   4  523.15   16.30
  -5  -4  -4  521.85   18.00
  -5  -4  -4  516.55   18.10
  -5   4  -4  501.35   16.40
   6  -4   4  425.36   13.80
  -6  -4  -4  396.76   15.60
  -6   4  -4  407.46   13.90
  -7  -4  -4   15.60    4.10
  -8  -4  -4    4.30    3.70
  -9  -4  -4   48.70    6.40
 -10  -4  -4    4.50    4.30
 -10   4  -4   12.80    3.60
 -11  -4  -4   37.50    6.30
 -11   4  -4   21.20    4.50
 -12  -4  -4  304.87   15.60
 -12   4  -4  296.47   13.70
 -13  -4  -4   98.99   10.40
 -13   4  -4  114.89    8.80
 -14  -4  -4    9.60    6.00
 -14  -5   4    9.20    5.30
 -13  -5   4   21.70    6.10
 -12  -5   4   56.19    7.70
 -12   5   4   58.49    5.80
 -11  -5   4   11.00    4.70
 -11   5   4   12.70    3.20
 -10  -5   4   22.20    5.10
 -10   5   4   26.30    3.80
  -9  -5   4   26.80    5.30
  -9   5   4   25.60    3.30
  -8  -5   4    4.20    3.70
  -8   5   4    7.80    2.20
  -8   5   4    3.80    1.90
  -7  -5   4   36.00    5.10
  -7   5   4   41.10    3.20
  -7   5   4   30.80    2.80
  -6  -5   4   20.20    4.10
  -6   5   4   16.00    1.90
  -6   5   4   17.20    2.10
  -5  -5   4    4.50    3.20
  -5   5   4    8.80    1.30
  -5   5   4    9.50    1.30
   5   5  -4   11.70    3.20
  -4  -5   4  482.25   16.80
  -4   5   4  475.25   13.30
   4   5  -4  457.05   16.50
  -3  -5   4  124.49    6.60
   3   5  -4  118.19    6.50
  -2  -5   4  114.59    6.00
  -2   5   4  109.59    3.80
   2   5  -4  105.69    5.80
   1  -5  -4    1.40    1.00
  -1  -5   4    3.70    2.30
  -1   5   4   -0.50    1.30
  -1   5   4    4.70    1.40
   1   5  -4    3.40    2.40
   0  -5  -4   -0.50    1.40
   0  -5  -4    0.10    1.40
   0  -5   4   -0.40    1.90
   0   5   4    2.30    1.60
   0   5   4    0.60    1.60
   0   5  -4    2.60    2.10
   1  -5   4    2.30    1.80
  -1  -5  -4    2.00    1.90
  -1  -5  -4    2.70    1.70
  -1   5  -4    2.60    2.00
   1   5   4    2.70    2.00
   2  -5   4  109.49    4.90
  -2  -5  -4  111.69    6.00
  -2  -5  -4  116.89    5.70
  -2   5  -4  111.79    5.20
   2   5   4  116.49    6.10
  -3  -5  -4  127.99    6.50
   3  -5   4  126.29    5.30
  -3  -5  -4  119.69    6.80
   3   5   4  129.59    6.60
  -3   5  -4  134.59    5.60
   4  -5   4  459.95   14.80
  -4  -5  -4  508.45   16.90
  -4  -5  -4  470.45   16.80
  -4   5  -4  467.75   15.20
   4   5   4  492.85   16.80
  -5  -5  -4    7.70    2.90
  -5  -5  -4   11.90    3.40
   5  -5   4    8.00    2.00
  -5   5  -4    6.20    2.00
   5   5   4    5.60    2.80
  -6  -5  -4   14.00    4.00
   6  -5   4   10.10    2.30
  -6   5  -4   12.20    2.60
  -7  -5  -4   38.30    5.50
  -8  -5  -4    2.00    3.60
  -9  -5  -4   25.70    5.50
 -10  -5  -4   27.00    6.30
 -10   5  -4   29.10    4.40
 -11  -5  -4   12.60    4.90
 -11   5  -4   11.50    3.90
 -12  -5  -4   58.49    8.30
 -12   5  -4   75.79    7.30
 -13  -5  -4   22.10    6.00
 -13   5  -4   14.70    4.50
 -14  -5  -4    0.30    4.90
 -14  -6   4   13.30    6.00
 -13  -6   4   46.70    7.60
 -12  -6   4  250.67   14.80
 -11  -6   4   10.80    4.80
 -11   6   4    1.30    2.50
 -10  -6   4   61.39    7.50
 -10   6   4   62.29    4.90
  -9  -6   4  279.27   13.70
  -9   6   4  258.47    9.90
  -8  -6   4   15.40    4.60
  -8   6   4   15.10    2.40
  -8   6   4   13.30    2.30
  -7  -6   4   12.30    4.20
  -7   6   4   21.10    2.20
  -7   6   4   15.70    2.10
  -6  -6   4   68.99    6.90
  -6   6   4   64.59    3.00
  -6   6   4   61.39    3.00
  -5  -6   4   21.20    4.20
  -5   6   4   22.20    1.40
  -4  -6   4  152.18    8.40
   4   6  -4  150.38    7.90
  -3  -6   4   24.40    3.70
  -3   6   4   26.90    1.50
   3   6  -4   25.90    3.70
  -2  -6   4  257.97   10.50
   2   6  -4  264.27   10.40
  -2   6   4  269.57    8.40
  -1  -6   4  628.74   20.60
   1  -6  -4  655.43   18.90
  -1   6   4  655.13   19.40
   1   6  -4  662.43   20.70
   0  -6  -4 1109.29   33.90
   0  -6  -4 1196.98   34.00
   0  -6   4 1206.58   34.80
   0   6  -4 1182.38   34.80
   0   6   4 1183.38   34.20
  -1  -6  -4  651.43   20.30
   1  -6   4  646.54   20.10
  -1  -6  -4  631.24   20.20
  -1   6  -4  658.83   20.10
   1   6   4  668.73   20.40
  -2  -6  -4  276.17   10.40
  -2  -6  -4  277.67   10.70
   2  -6   4  270.77    9.60
  -2   6  -4  283.87    9.80
   2   6   4  281.67   10.60
  -3  -6  -4   33.30    3.90
   3  -6   4   23.70    2.50
  -3  -6  -4   22.10    3.50
  -3   6  -4   25.80    2.80
   3   6   4   28.40    3.80
   4  -6   4  161.78    6.30
  -4  -6  -4  151.98    8.10
  -4  -6  -4  169.68    8.20
   4   6   4  149.59    8.00
  -4   6  -4  166.98    6.70
   5  -6   4   21.30    2.50
  -5  -6  -4   24.80    4.10
  -5  -6  -4   29.10    4.60
  -5   6  -4   23.20    2.80
   6  -6   4   74.19    4.20
  -6  -6  -4   75.89    7.00
  -6   6  -4   68.69    4.60
  -7  -6  -4   21.20    4.60
  -8  -6  -4   12.90    4.50
  -9  -6  -4  252.37   13.30
 -10  -6  -4   56.59    7.50
 -11  -6  -4    5.60    5.50
 -11   6  -4    0.70    3.00
 -12  -6  -4  258.47   14.80
 -12   6  -4  243.98   11.90
 -13  -6  -4   47.20    8.20
 -14  -6  -4    4.30    5.50
 -14  -7   4   13.20    6.30
 -13  -7   4   18.00    6.30
 -12  -7   4    0.30    4.50
 -11  -7   4   22.60    5.80
 -10  -7   4  128.89   10.00
 -10   7   4  121.29    6.30
  -9  -7   4   97.39    9.20
  -9   7   4  111.89    5.50
  -8  -7   4  818.02   28.60
  -8   7   4  789.72   23.60
  -8   7   4  786.72   23.60
  -7  -7   4   77.29    7.60
  -7   7   4   84.69    3.80
  -7   7   4   83.29    3.80
  -6  -7   4  325.27   13.90
  -6   7   4  298.17    9.10
  -6   7   4  286.57    9.00
  -5  -7   4   18.20    4.40
  -5   7   4   20.50    1.30
  -4  -7   4  390.96   15.30
  -4   7   4  405.26   11.50
  -3  -7   4   -0.60    2.60
  -3   7   4   -0.60    1.00
  -2  -7   4    0.50    2.30
  -2   7   4    5.60    1.50
   2   7  -4    4.70    2.50
  -1  -7   4 1642.74   48.60
   1  -7  -4 1654.53   46.70
   1   7  -4 1663.03   48.60
  -1   7   4 1658.63   47.20
   0  -7  -4   -1.40    1.40
   0  -7  -4   -0.80    1.60
   0  -7   4    1.20    2.20
   0   7   4    1.20    1.80
   0   7  -4    1.40    2.10
   1  -7   4 1602.44   47.80
  -1  -7  -4 1648.34   48.10
  -1  -7  -4 1673.63   48.00
   1   7   4 1662.63   48.20
  -1   7  -4 1685.83   48.00
   2  -7   4    4.70    1.90
  -2  -7  -4    6.70    2.40
  -2  -7  -4   11.10    2.80
  -2   7  -4    1.90    2.00
   2   7   4    5.10    2.30
   3  -7   4    1.50    1.60
  -3  -7  -4   -2.10    2.10
  -3  -7  -4    1.70    2.90
  -3   7  -4   -0.20    1.70
  -4  -7  -4  410.16   15.50
   4  -7   4  405.76   12.90
  -4  -7  -4  398.86   15.10
  -4   7  -4  401.06   13.40
  -5  -7  -4   20.80    4.00
  -5  -7  -4   16.10    4.10
   5  -7   4   18.00    2.20
  -5   7  -4   23.30    2.90
  -6  -7  -4  288.07   13.20
   6  -7   4  293.07    9.70
  -6   7  -4  298.17   10.70
  -7  -7  -4   82.29    7.80
  -8  -7  -4  828.82   29.50
  -9  -7  -4   99.19    9.30
 -10  -7  -4  129.79   10.30
 -11  -7  -4   31.50    6.60
 -11   7  -4   16.30    4.00
 -12  -7  -4   -0.10    4.90
 -13  -7  -4   24.00    7.30
 -14  -7  -4   10.20    6.20
 -13  -8   4   51.49    8.60
 -12  -8   4    0.70    4.90
 -11  -8   4   -3.30    4.40
 -10  -8   4   28.80    6.20
  -9  -8   4    7.50    4.60
  -9   8   4   22.80    2.60
  -8  -8   4   77.59    8.10
  -8   8   4   95.99    4.10
  -8   8   4   81.59    4.00
  -7  -8   4   35.60    5.80
  -7   8   4   34.90    2.30
  -7   8   4   39.90    2.30
  -6  -8   4    0.30    3.30
  -6   8   4    1.10    0.70
  -5  -8   4   49.20    5.80
  -5   8   4   53.89    2.20
  -4  -8   4    8.10    3.50
  -4   8   4   10.10    1.30
  -3  -8   4   40.80    4.80
  -3   8   4   34.10    2.50
  -2  -8   4   64.09    5.60
  -2   8   4   61.79    3.70
  -1  -8   4  149.49    7.60
   1  -8  -4  137.89    5.50
  -1   8   4  143.79    6.10
   0  -8  -4   16.90    2.60
   0  -8   4   19.50    3.30
   0  -8  -4   18.00    2.60
   0   8  -4   27.50    3.40
   0   8   4   20.50    3.00
   1  -8   4  142.19    6.70
  -1  -8  -4  141.29    7.00
  -1  -8  -4  144.79    6.80
  -1   8  -4  158.18    7.00
   1   8   4  141.39    7.00
  -2  -8  -4   63.69    4.90
  -2  -8  -4   64.49    5.50
   2  -8   4   60.69    4.30
  -2   8  -4   63.69    4.40
   3  -8   4   40.70    3.40
  -3  -8  -4   43.80    4.80
  -3  -8  -4   44.10    5.00
  -3   8  -4   37.70    3.60
  -4  -8  -4    6.50    3.30
  -4  -8  -4    7.30    3.30
   4  -8   4    9.40    1.90
  -4   8  -4    9.00    2.30
  -5  -8  -4   49.90    6.10
   5  -8   4   58.49    3.20
  -5   8  -4   59.09    4.20
  -6  -8  -4    4.90    3.80
   6  -8   4    1.30    1.30
  -7  -8  -4   41.90    6.10
  -8  -8  -4   97.59    9.30
  -9  -8  -4    9.40    4.90
 -10  -8  -4   27.00    6.20
 -11  -8  -4    0.60    4.60
 -12  -8  -4   15.30    6.20
 -13  -8  -4   41.70    8.40
 -13  -9   4   31.90    8.40
 -12  -9   4   33.90    7.20
 -11  -9   4    0.10    4.60
 -10  -9   4   74.79    9.10
  -9  -9   4    0.80    4.60
  -8  -9   4  199.88   12.30
  -8   9   4  210.28    6.90
  -8   9   4  204.58    6.90
  -7  -9   4  221.28   12.30
  -7   9   4  212.38    6.70
  -7   9   4  219.28    6.80
  -6  -9   4  340.37   15.10
  -6   9   4  316.67    9.50
  -5  -9   4    6.80    3.70
  -5   9   4    4.40    1.00
  -4  -9   4  257.67   11.90
  -4   9   4  247.08    8.10
  -3  -9   4  251.27   11.50
  -3   9   4  257.47    8.70
  -2  -9   4    6.50    3.00
  -2   9   4    5.30    1.80
  -1  -9   4   14.20    3.40
   1  -9  -4    3.00    1.20
   1  -9  -4    9.50    1.90
  -1   9   4    8.60    2.20
   0  -9   4   -1.40    2.30
   0  -9  -4   -1.20    1.90
   0  -9  -4   -0.30    1.80
   0   9   4   -2.70    1.80
  -1  -9  -4    7.50    2.80
   1  -9   4   20.30    3.10
  -1  -9  -4    6.70    2.50
  -2  -9  -4   10.50    3.10
   2  -9   4    3.10    2.20
  -2  -9  -4    1.70    2.60
  -3  -9  -4  259.57   11.50
   3  -9   4  262.17    9.30
  -3  -9  -4  253.37   11.00
  -3   9  -4  247.58   10.50
   4  -9   4  262.27    9.00
  -4  -9  -4  276.37   12.30
  -4  -9  -4  240.38   11.40
  -5  -9  -4    3.40    4.00
   5  -9   4    3.90    1.40
  -6  -9  -4  340.97   15.30
  -7  -9  -4  216.38   12.50
  -8  -9  -4  242.68   13.40
  -9  -9  -4    9.20    5.00
 -10  -9  -4   86.59    9.60
 -11  -9  -4   -7.00    4.30
 -12  -9  -4   21.10    6.60
 -13  -9  -4   32.40    8.20
 -12 -10   4    9.40    6.10
 -11 -10   4   45.80    8.10
 -10 -10   4  114.39   11.10
  -9 -10   4   -2.60    4.10
  -8 -10   4   10.40    4.70
  -7 -10   4   26.60    5.50
  -6 -10   4   14.80    4.70
  -6  10   4   17.70    1.40
  -5 -10   4  583.54   22.10
  -5  10   4  567.24   16.80
  -4 -10   4   46.50    5.90
  -4  10   4   55.19    3.30
  -3 -10   4  282.57   12.40
  -3  10   4  268.37    9.50
  -2 -10   4 1043.00   33.00
  -2  10   4 1017.60   30.60
   1 -10  -4   -0.20    1.60
   1 -10  -4    0.10    1.20
  -1 -10   4   -0.90    2.70
   0 -10  -4  377.76   13.20
   0 -10  -4  360.26   13.10
   0 -10   4  389.66   14.10
  -1 -10  -4   -0.60    2.20
   1 -10   4    3.30    2.30
  -1 -10  -4    0.70    2.20
   2 -10   4 1081.89   32.50
  -2 -10  -4 1076.59   33.70
  -2 -10  -4 1086.29   33.90
   3 -10   4  276.77    9.90
  -3 -10  -4  267.47   12.00
  -3 -10  -4  274.57   11.90
  -4 -10  -4   45.70    6.00
   4 -10   4   56.99    3.60
  -4 -10  -4   54.99    6.20
   5 -10   4  571.04   16.50
  -5 -10  -4  578.94   21.70
  -6 -10  -4   10.70    4.40
  -7 -10  -4   25.60    5.60
  -8 -10  -4    1.20    4.00
  -9 -10  -4    7.90    5.00
 -10 -10  -4  110.19   10.90
 -11 -10  -4   37.90    7.50
 -12 -10  -4   18.70    7.50
 -12 -11   4   16.10    6.60
 -11 -11   4   24.20    7.00
 -10 -11   4    3.60    5.00
  -9 -11   4    3.10    4.60
  -8 -11   4   44.80    7.30
  -7 -11   4   62.99    8.00
  -6 -11   4    8.80    4.50
  -6  11   4   10.40    1.30
  -5 -11   4  441.46   18.40
  -5  11   4  431.66   13.30
  -4 -11   4    5.80    3.80
  -4  11   4    6.20    1.90
  -3 -11   4   -7.70    3.10
  -3  11   4    1.60    1.90
  -2 -11   4   32.20    5.00
   1 -11  -4    3.90    1.90
  -1 -11   4    0.50    2.90
   1 -11  -4    1.30    1.00
   0 -11  -4   -1.50    1.90
   0 -11  -4   -0.20    2.20
   0 -11   4   -1.90    2.80
  -1 -11  -4    1.50    2.30
  -1 -11  -4    6.90    2.80
   1 -11   4    3.10    2.60
  -2 -11  -4   27.20    4.50
  -2 -11  -4   46.90    5.10
   2 -11   4   42.30    4.00
  -3 -11  -4   -0.40    3.00
  -3 -11  -4    4.70    3.60
   3 -11   4   -1.70    1.80
  -4 -11  -4    6.20    4.20
   4 -11   4    7.40    1.80
  -5 -11  -4  445.76   18.40
  -6 -11  -4   14.10    4.60
  -7 -11  -4   57.39    7.40
  -8 -11  -4   34.80    6.50
  -9 -11  -4   -1.50    4.30
 -10 -11  -4    1.50    4.70
 -11 -11  -4   23.60    7.10
 -12 -11  -4    4.20    5.80
 -11 -12   4   11.10    6.40
 -10 -12   4   44.60    8.00
  -9 -12   4   17.20    6.00
  -8 -12   4    4.30    4.80
  -7 -12   4   20.90    5.70
  -6 -12   4   21.80    5.40
  -5 -12   4   90.09    8.80
  -5  12   4   91.09    4.40
  -4 -12   4   48.10    6.70
  -3 -12   4   59.19    6.80
  -2 -12   4  599.94   21.80
  -1 -12   4   42.30    5.40
   1 -12  -4   44.10    3.60
   0 -12  -4  122.09    6.60
   0 -12  -4  116.69    6.50
   0 -12   4  131.19    7.50
  -1 -12  -4   31.90    4.30
  -1 -12  -4   41.30    4.70
   1 -12   4   46.30    4.80
  -2 -12  -4  611.24   21.40
  -2 -12  -4  599.64   21.30
   2 -12   4  606.84   19.80
  -3 -12  -4   64.29    6.60
   3 -12   4   52.89    4.10
  -3 -12  -4   61.09    6.40
   4 -12   4   53.99    3.10
   4 -12   4   51.09    3.00
  -4 -12  -4   57.49    6.70
  -5 -12  -4   86.49    8.30
  -6 -12  -4   18.90    5.40
  -7 -12  -4   32.70    6.80
  -8 -12  -4    4.20    4.50
  -9 -12  -4   22.90    6.40
 -10 -12  -4   56.59    8.60
 -11 -12  -4   21.50    7.10
 -10 -13   4   43.70    8.80
  -9 -13   4   -2.00    4.70
  -8 -13   4  143.59   11.50
  -7 -13   4    4.50    4.60
  -6 -13   4  238.18   13.60
  -5 -13   4   15.70    5.10
  -4 -13   4  116.09    8.80
  -3 -13   4   87.99    8.10
  -2 -13   4   78.29    7.20
  -1 -13   4   82.69    7.10
   1 -13  -4   67.49    4.40
   0 -13  -4   -1.50    2.30
   0 -13   4   -0.70    3.00
   1 -13   4   74.29    5.90
  -1 -13  -4   75.19    6.10
   2 -13   4   87.39    5.70
  -2 -13  -4   87.19    6.80
  -3 -13  -4   88.69    7.40
   3 -13   4   90.49    5.00
  -4 -13  -4  119.09    8.50
  -5 -13  -4   17.10    5.20
  -6 -13  -4  223.08   12.80
  -7 -13  -4    8.90    4.80
  -8 -13  -4  172.68   12.20
  -9 -13  -4   -1.30    4.70
 -10 -13  -4   47.20    9.10
  -9 -14   4    6.60    5.40
  -8 -14   4   16.70    6.10
  -7 -14   4   11.50    5.70
  -6 -14   4   -3.60    4.50
  -5 -14   4  101.19    9.90
  -4 -14   4   21.20    5.40
  -3 -14   4   58.39    7.20
  -2 -14   4   12.50    4.30
  -1 -14   4   54.89    6.40
   1 -14  -4   57.39    3.90
   0 -14  -4   22.10    3.50
   0 -14   4   18.10    4.00
  -1 -14  -4   63.59    5.90
   1 -14   4   72.69    6.10
   2 -14   4   15.80    3.20
  -2 -14  -4    8.10    3.70
   3 -14   4   54.69    3.90
  -3 -14  -4   47.00    6.20
  -4 -14  -4   14.10    4.60
  -5 -14  -4   83.99    8.50
  -6 -14  -4    3.90    4.00
  -7 -14  -4   15.10    5.40
  -8 -14  -4   15.70    6.40
  -9 -14  -4    7.40    5.70
  -8 -15   4   49.90    8.60
  -7 -15   4    0.10    5.30
  -6 -15   4   86.69    9.60
  -5 -15   4    1.20    4.50
  -4 -15   4   48.50    6.90
  -3 -15   4    0.20    3.90
  -2 -15   4    1.50    3.80
  -1 -15   4   48.00    6.00
   1 -15  -4   40.20    3.30
   0 -15  -4   -1.10    2.50
   0 -15   4   -2.70    3.00
   1 -15   4   40.50    4.90
  -1 -15  -4   49.10    5.60
   2 -15   4    0.40    2.50
  -2 -15  -4   -3.10    3.20
   3 -15   4    1.80    1.90
  -3 -15  -4   -1.10    3.60
  -4 -15  -4   38.20    6.30
  -5 -15  -4    6.70    4.70
  -6 -15  -4   77.59    8.90
  -7 -15  -4   12.70    6.00
  -8 -15  -4   51.89    8.40
  -6 -16   4   -8.30    4.50
  -5 -16   4   -2.40    3.80
  -4 -16   4  154.48   11.30
  -3 -16   4   -0.10    4.10
  -2 -16   4   11.70    5.00
  -1 -16   4   49.00    6.30
   0 -16  -4  309.37   11.90
   0 -16   4  314.17   13.70
  -1 -16  -4   51.49    5.70
   1 -16   4   53.29    5.50
   2 -16   4   21.20    3.30
  -2 -16  -4   12.20    4.20
  -3 -16  -4   -3.00    3.30
  -4 -16  -4  188.38   11.90
  -5 -16  -4    6.90    4.70
  -6 -16  -4    0.70    4.60
  -4 -17   4   50.89    7.80
  -3 -17   4    5.60    4.70
  -2 -17   4   25.10    5.70
  -1 -17   4   -1.00    3.50
   0 -17   4    1.30    3.40
  -1 -17  -4    0.20    3.00
   1 -17   4   -0.50    2.90
  -2 -17  -4   17.20    4.70
  -3 -17  -4    3.50    4.00
  -4 -17  -4   49.00    7.20
 -15   0   5   -4.30    3.90
 -14   0   5    1.60    4.30
 -13   0   5    1.10    3.30
 -12   0   5   -7.90    2.60
 -11   0   5    2.10    3.60
 -10   0   5    0.30    3.50
  -9   0   5    2.30    2.70
  -8   0   5   -2.80    2.50
   7   0  -5   -1.30    2.10
  -7   0   5    1.40    2.50
  -6   0   5    0.50    2.30
   6   0  -5   -0.70    1.60
  -5   0   5   -2.00    1.90
   5   0  -5    1.00    1.90
  -4   0   5   -1.50    1.90
   4   0  -5   -0.70    1.50
   3   0  -5    1.90    1.60
  -3   0   5    3.80    1.80
   2   0  -5    2.00    1.20
  -2   0   5    0.80    1.50
  -1   0   5    0.50    1.30
   1   0  -5   -1.50    1.10
   0   0  -5    0.50    1.10
   0   0   5   -0.60    1.10
   1   0   5    0.30    1.30
  -1   0  -5   -1.10    1.30
  -2   0  -5    1.70    1.60
   2   0   5   -1.30    1.40
  -3   0  -5    2.10    1.80
   3   0   5    0.40    1.80
  -4   0  -5   -1.50    1.80
   4   0   5    0.50    2.10
   5   0   5   -2.00    2.10
  -5   0  -5   -0.60    2.10
  -6   0  -5    0.40    2.30
   6   0   5    0.10    2.30
  -7   0  -5   -0.60    2.70
  -8   0  -5   -1.30    2.80
  -9   0  -5    0.80    3.00
 -10   0  -5    2.20    3.80
 -11   0  -5    4.80    4.20
 -12   0  -5   -1.30    4.10
 -13   0  -5   -5.90    3.80
 -14   0  -5    2.50    4.30
 -15   0  -5   -5.10    4.70
 -15  -1   5    1.50    4.80
 -14  -1   5    3.80    4.00
 -14   1   5    8.40    4.00
 -13  -1   5   -0.90    3.50
 -13   1   5    3.50    3.90
 -12  -1   5    1.70    3.90
 -12   1   5   -0.60    3.30
 -11  -1   5  505.85   20.00
 -11   1   5  546.25   19.90
 -10  -1   5   15.20    4.40
 -10   1   5   22.30    4.10
  -9  -1   5    3.20    3.00
  -9   1   5   -1.50    2.30
  -8  -1   5 1892.31   57.29
   8   1  -5 1987.70   57.39
  -8   1   5 1921.91   56.69
  -7  -1   5   18.40    3.50
   7   1  -5   21.70    3.40
  -7   1   5   21.00    3.20
   6  -1  -5  154.48    6.70
  -6  -1   5  157.48    7.50
  -6   1   5  155.98    7.00
   6   1  -5  166.68    7.50
  -5  -1   5   18.20    3.20
   5  -1  -5   21.70    2.50
   5   1  -5   18.20    2.90
  -5   1   5   18.90    2.70
  -4  -1   5  409.16   13.90
   4  -1  -5  408.46   13.00
   4   1  -5  426.86   13.80
  -4   1   5  407.26   13.10
  -3  -1   5  258.07    9.00
   3  -1  -5  249.58    8.10
   3   1  -5  241.18    8.80
  -3   1   5  240.48    8.20
   2  -1  -5   14.10    1.50
  -2  -1   5   15.80    2.20
   2   1  -5   12.50    1.90
  -2   1   5   17.00    1.70
  -1  -1   5   60.49    3.30
   1  -1  -5   56.89    2.80
  -1   1   5   59.29    2.80
   1   1  -5   59.59    3.40
   0  -1  -5   -0.20    1.30
   0  -1   5   -1.70    1.30
   0   1  -5   -2.10    1.30
   0   1   5   -2.00    1.10
  -1  -1  -5   56.79    3.10
   1  -1   5   59.69    3.20
  -1   1  -5   56.89    3.20
   1   1   5   53.49    3.30
  -2  -1  -5   14.60    2.20
   2  -1   5   17.10    2.30
  -2   1  -5   13.50    2.00
   2   1   5   17.30    2.30
  -3  -1  -5  236.98    8.80
   3  -1   5  229.08    8.50
   3   1   5  223.28    8.70
  -3   1  -5  252.27    8.60
   4  -1   5  396.96   13.20
  -4  -1  -5  376.16   13.40
  -4   1  -5  416.76   13.30
   4   1   5  383.26   13.50
  -5  -1  -5   16.00    3.10
   5  -1   5   14.90    2.70
   5   1   5   13.60    2.90
  -5   1  -5   22.40    3.20
  -6  -1  -5  155.08    7.90
   6  -1   5  158.38    7.60
  -6  -1  -5  146.49    7.50
   6   1   5  154.98    7.80
  -6   1  -5  153.68    7.30
  -7  -1  -5   16.00    3.80
   7  -1   5   15.60    3.40
  -8  -1  -5 1980.90   58.29
  -8   1  -5 1902.41   57.59
  -9  -1  -5   -6.10    3.10
  -9   1  -5    3.10    3.10
 -10  -1  -5   13.20    4.30
 -10   1  -5   23.70    4.80
 -11  -1  -5  538.05   21.40
 -11   1  -5  540.85   20.80
 -12  -1  -5    5.50    4.00
 -12   1  -5    3.10    3.70
 -13  -1  -5   11.60    4.70
 -13   1  -5    8.70    4.90
 -14  -1  -5    4.50    5.20
 -14   1  -5    0.80    3.70
 -15  -1  -5   -2.60    5.40
 -15   1  -5    8.60    5.00
 -15  -2   5   21.20    6.20
 -14  -2   5   94.29    9.30
 -14   2   5   69.99    7.70
 -13  -2   5    4.00    4.00
 -13   2   5    1.00    3.30
 -12  -2   5  153.48   10.00
 -12   2   5  149.29    9.20
 -11  -2   5   71.69    7.30
 -11   2   5   64.79    6.30
 -10  -2   5  136.99    8.90
 -10   2   5  100.19    7.00
  -9  -2   5    4.20    3.10
   9   2  -5   11.50    3.30
  -9   2   5    9.10    3.00
  -8  -2   5   50.49    5.40
  -8   2   5   58.29    4.70
   8   2  -5   59.59    5.70
  -7  -2   5  247.28   11.00
  -7   2   5  268.27   10.10
   7   2  -5  263.27   11.20
  -6  -2   5  553.34   19.20
  -6   2   5  558.04   17.80
   6   2  -5  587.34   19.20
  -5  -2   5  705.03   23.10
   5   2  -5  768.32   23.30
  -5   2   5  715.63   21.80
  -4  -2   5  220.38    8.80
  -4   2   5  211.48    7.30
   4   2  -5  207.98    8.60
  -3  -2   5  461.65   14.90
  -3   2   5  442.56   13.40
   3   2  -5  454.45   14.80
  -2  -2   5  147.39    6.20
  -2   2   5  149.09    5.00
   2   2  -5  151.58    6.20
  -1  -2   5  142.19    5.80
   1   2  -5  137.59    5.60
  -1   2   5  136.19    4.70
   0  -2   5 6225.98  182.28
   0  -2  -5 6439.66  179.68
   0   2   5 6549.04  180.98
   0   2  -5 6498.45  180.78
   1  -2   5  135.09    5.30
  -1  -2  -5  128.39    5.20
   1   2   5  136.89    5.30
  -1   2  -5  132.89    5.30
  -2  -2  -5  152.48    6.20
   2  -2   5  153.38    5.90
  -2   2  -5  147.49    5.90
   2   2   5  159.28    6.40
   3  -2   5  412.66   13.70
  -3  -2  -5  423.46   14.30
   3   2   5  465.15   14.50
  -3   2  -5  431.46   13.90
  -4  -2  -5  206.48    8.60
  -4  -2  -5  210.48    8.80
   4  -2   5  199.28    8.00
  -4   2  -5  211.48    8.00
   4   2   5  224.58    8.90
  -5  -2  -5  683.73   22.50
   5  -2   5  704.83   21.90
  -5  -2  -5  702.13   22.80
  -5   2  -5  726.73   22.00
   5   2   5  690.93   22.60
  -6  -2  -5  518.65   18.30
  -6  -2  -5  529.05   18.60
   6  -2   5  533.75   17.60
  -6   2  -5  537.25   17.60
   7  -2   5  261.27   10.50
  -7  -2  -5  240.98   11.10
  -8  -2  -5   50.99    5.80
  -9  -2  -5    8.00    3.90
  -9   2  -5    5.10    3.40
 -10  -2  -5  119.59    8.80
 -10   2  -5  122.39    8.00
 -11  -2  -5   63.79    7.60
 -11   2  -5   75.19    7.20
 -12  -2  -5  136.29   10.50
 -12   2  -5  142.99    9.30
 -13  -2  -5    1.60    4.30
 -13   2  -5    2.20    3.70
 -14  -2  -5   66.99    8.90
 -14   2  -5   91.59    9.10
 -15  -2  -5   19.80    6.20
 -15   2  -5   10.80    5.50
 -15  -3   5    1.50    5.00
 -14  -3   5   46.60    7.40
 -13  -3   5   31.30    6.00
 -13   3   5   32.20    5.40
 -12  -3   5    9.30    4.60
 -12   3   5    0.60    3.20
 -11  -3   5    3.30    3.80
 -11   3   5    1.90    3.00
 -10  -3   5  217.88   11.60
 -10   3   5  229.08   10.10
  -9  -3   5  240.38   11.90
  -9   3   5  226.58    9.80
  -8  -3   5    5.80    3.40
   8   3  -5    4.70    3.00
  -8   3   5    2.20    2.20
  -7  -3   5   13.30    3.60
   7   3  -5   18.40    3.60
  -7   3   5   19.60    2.80
  -6  -3   5  242.88   10.70
  -6   3   5  250.67    8.80
   6   3  -5  245.38   10.60
  -5  -3   5  245.88   10.30
  -5   3   5  244.98    8.30
   5   3  -5  245.28   10.20
  -4  -3   5   81.99    5.40
  -4   3   5   79.19    3.40
   4   3  -5   74.49    5.10
  -3  -3   5   69.69    4.70
  -3   3   5   65.39    2.70
   3   3  -5   68.09    4.70
  -2  -3   5  514.55   16.30
  -2   3   5  506.65   14.40
   2   3  -5  491.85   16.20
  -1  -3   5  827.12   24.30
   1  -3  -5  796.22   22.80
   1   3  -5  790.02   24.20
  -1   3   5  819.12   23.00
   0  -3  -5    0.20    1.30
   0  -3   5    0.60    1.70
   0  -3  -5   -0.10    1.20
   0   3   5    0.10    1.40
   0   3  -5    1.30    1.70
   1  -3   5  828.32   24.30
  -1  -3  -5  811.82   24.10
  -1  -3  -5  802.12   24.20
   1   3   5  812.12   24.20
  -1   3  -5  841.62   24.20
   2  -3   5  497.75   15.50
  -2  -3  -5  492.15   16.00
  -2  -3  -5  504.05   16.00
  -2   3  -5  505.95   15.60
   2   3   5  496.45   16.00
   3  -3   5   69.99    4.00
  -3  -3  -5   61.59    4.60
  -3  -3  -5   59.79    4.40
   3   3   5   65.09    4.70
  -3   3  -5   66.69    4.10
  -4  -3  -5   72.59    5.30
  -4  -3  -5   84.89    5.30
   4  -3   5   74.19    4.30
   4   3   5   87.09    5.40
  -4   3  -5   73.49    4.50
  -5  -3  -5  240.48   10.10
  -5  -3  -5  241.48   10.30
   5  -3   5  233.98    9.10
   5   3   5  239.38   10.20
  -5   3  -5  244.98    9.20
   6  -3   5  246.18    9.70
  -6  -3  -5  245.38   10.90
  -6  -3  -5  239.78   10.50
  -6   3  -5  243.48    9.70
  -7  -3  -5   19.60    4.10
   7  -3   5   16.60    3.20
  -8  -3  -5    0.40    3.30
  -9  -3  -5  237.88   12.40
 -10  -3  -5  209.58   12.20
 -10   3  -5  228.18   11.00
 -11  -3  -5   -2.00    3.70
 -11   3  -5    2.10    3.40
 -12  -3  -5    8.20    4.70
 -12   3  -5    7.80    4.10
 -13  -3  -5   32.60    6.60
 -13   3  -5   34.30    5.90
 -14  -3  -5   64.39    8.90
 -14   3  -5   54.89    7.40
 -15  -3  -5    1.10    5.10
 -14  -4   5  135.09   12.20
 -13  -4   5   55.89    7.90
 -12  -4   5   -2.00    4.30
 -12   4   5   -0.60    3.10
 -11  -4   5  134.89    9.70
 -11   4   5  137.99    7.80
 -10  -4   5   25.20    5.10
 -10   4   5   31.90    4.00
  -9  -4   5  106.39    7.90
  -9   4   5   92.09    5.80
  -8  -4   5   -0.20    3.20
  -8   4   5    0.60    1.90
  -8   4   5    3.50    2.00
  -7  -4   5  161.78    9.40
  -7   4   5  167.68    6.80
  -7   4   5  163.28    6.70
  -6  -4   5   79.19    6.10
  -6   4   5   65.49    3.70
   6   4  -5   74.79    5.80
  -5  -4   5 1405.26   43.60
  -5   4   5 1462.15   40.80
   5   4  -5 1467.45   43.60
  -4  -4   5   27.40    3.90
  -4   4   5   31.80    1.90
   4   4  -5   32.70    4.00
  -3  -4   5  357.66   13.10
  -3   4   5  365.76   10.30
   3   4  -5  364.16   13.00
  -2  -4   5  925.31   28.10
   2   4  -5  920.71   28.00
  -2   4   5  922.31   25.80
   1  -4  -5  191.78    6.10
  -1  -4   5  193.48    7.70
  -1   4   5  189.48    6.40
   1   4  -5  198.48    7.70
   0  -4  -5   61.49    3.40
   0  -4   5   67.79    4.00
   0  -4  -5   62.79    3.30
   0   4   5   60.59    3.50
   0   4  -5   60.79    4.00
  -1  -4  -5  192.88    7.20
   1  -4   5  188.28    7.20
  -1  -4  -5  191.78    7.30
  -1   4  -5  194.28    7.30
   1   4   5  187.68    7.30
  -2  -4  -5  908.51   27.20
  -2  -4  -5  876.71   27.30
   2  -4   5  910.31   26.70
   2   4   5  899.21   27.30
  -2   4  -5  935.81   26.80
  -3  -4  -5  348.37   12.90
  -3  -4  -5  357.66   12.80
   3  -4   5  358.96   11.90
  -3   4  -5  364.86   12.00
   3   4   5  378.66   13.00
  -4  -4  -5   45.20    4.40
   4  -4   5   25.90    2.80
  -4  -4  -5   33.50    4.10
  -4   4  -5   28.20    2.90
   4   4   5   31.50    3.90
  -5  -4  -5 1375.86   42.60
  -5  -4  -5 1452.55   42.50
   5  -4   5 1405.46   40.90
  -5   4  -5 1391.06   41.00
  -6  -4  -5   53.79    5.70
   6  -4   5   64.49    4.40
  -6   4  -5   75.09    4.80
  -7  -4  -5  153.48    9.10
   7  -4   5  166.78    7.50
  -8  -4  -5    3.00    3.60
  -9  -4  -5   89.09    8.30
 -10  -4  -5   24.50    5.50
 -10   4  -5   26.70    4.50
 -11  -4  -5  137.49   10.20
 -11   4  -5  136.19    8.80
 -12  -4  -5    0.40    4.20
 -12   4  -5    3.60    3.70
 -13  -4  -5   56.69    8.40
 -13   4  -5   48.50    6.60
 -14  -4  -5  158.28   12.80
 -14   4  -5  132.89   10.30
 -14  -5   5    2.60    4.70
 -13  -5   5   38.00    6.90
 -12  -5   5    9.30    4.80
 -12   5   5   17.10    4.00
 -11  -5   5  125.49   10.20
 -11   5   5  129.29    7.30
 -10  -5   5  530.45   21.20
 -10   5   5  528.55   17.90
  -9  -5   5  210.08   11.50
  -9   5   5  199.08    8.40
  -8  -5   5   16.30    4.50
  -8   5   5   22.10    2.80
  -8   5   5   25.60    2.90
  -7  -5   5  197.38   10.30
  -7   5   5  197.58    7.30
  -7   5   5  193.48    7.30
  -6  -5   5  869.51   29.60
  -6   5   5  911.01   26.10
  -6   5   5  924.51   26.20
  -5  -5   5  271.87   11.70
  -5   5   5  271.67    8.30
   5   5  -5  271.17   11.50
  -5   5   5  271.77    8.30
  -4  -5   5  154.38    8.10
   4   5  -5  174.28    8.40
  -4   5   5  162.88    4.80
  -3  -5   5   47.40    4.50
   3   5  -5   46.90    4.50
  -2  -5   5 1802.82   53.39
  -2   5   5 1891.31   51.09
  -2   5   5 1906.61   51.09
   2   5  -5 1728.33   53.19
   1  -5  -5 2034.10   55.69
  -1  -5   5 1950.80   57.49
   1   5  -5 2026.70   57.59
  -1   5   5 1986.00   56.09
  -1   5   5 2009.10   56.09
   0  -5  -5    0.90    1.50
   0  -5  -5   -0.70    1.30
   0  -5   5   -0.80    1.70
   0   5   5    2.60    1.70
   0   5  -5    0.20    1.90
   0   5   5   -0.50    1.60
  -1  -5  -5 1952.90   56.39
  -1  -5  -5 1987.60   56.29
   1  -5   5 1965.30   56.39
   1   5   5 1951.80   56.39
   1   5   5 2028.30   56.59
  -1   5  -5 1982.90   56.39
  -2  -5  -5 1863.21   54.19
  -2  -5  -5 1888.81   54.09
   2  -5   5 1876.11   53.49
   2   5   5 1857.31   54.19
   2   5   5 1872.71   54.19
  -2   5  -5 1901.11   53.59
   3  -5   5   55.19    3.70
  -3  -5  -5   53.79    4.50
  -3  -5  -5   44.00    4.30
   3   5   5   48.30    4.40
  -3   5  -5   56.89    3.80
  -4  -5  -5  175.18    8.00
   4  -5   5  152.78    6.40
  -4  -5  -5  150.88    7.90
  -4   5  -5  158.68    6.70
  -5  -5  -5  273.97   11.60
  -5  -5  -5  250.27   11.00
   5  -5   5  256.77    9.50
  -5   5  -5  271.97    9.80
   6  -5   5  957.50   28.00
  -6  -5  -5  933.51   30.40
  -6   5  -5  893.11   28.20
  -7  -5  -5  212.28   11.00
   7  -5   5  217.38    8.80
  -8  -5  -5   20.50    4.80
  -9  -5  -5  182.38   11.00
 -10  -5  -5  518.35   21.20
 -11  -5  -5  128.29   10.10
 -11   5  -5  110.89    7.80
 -12  -5  -5    7.60    5.00
 -12   5  -5   20.60    4.60
 -13  -5  -5   41.00    7.40
 -13   5  -5   39.90    6.30
 -14  -5  -5   -2.90    5.40
 -14  -6   5   15.50    6.40
 -13  -6   5    3.50    4.80
 -12  -6   5   91.59    9.90
 -11  -6   5   -2.50    3.90
 -11   6   5    1.90    2.40
 -10  -6   5  167.98   11.10
 -10   6   5  185.78    8.10
  -9  -6   5   11.00    4.70
  -9   6   5   17.50    2.80
  -8  -6   5   53.79    6.60
  -8   6   5   59.39    3.80
  -8   6   5   58.59    3.80
  -7  -6   5   17.10    4.50
  -7   6   5   19.70    2.20
  -7   6   5   19.70    2.10
  -6  -6   5    3.10    3.40
  -6   6   5    2.50    1.10
  -6   6   5    2.10    1.00
  -5  -6   5   30.60    4.60
  -5   6   5   26.80    1.40
  -5   6   5   26.30    1.40
  -4  -6   5  190.78    9.40
   4   6  -5  194.78    9.20
  -3  -6   5   23.20    3.60
  -3   6   5   25.70    1.50
   3   6  -5   27.60    3.80
  -2  -6   5   67.39    5.40
   2   6  -5   66.09    4.90
  -2   6   5   70.09    3.10
  -1  -6   5  807.32   25.70
   1  -6  -5  832.82   23.80
   1   6  -5  860.91   25.90
  -1   6   5  822.42   24.30
   0  -6  -5  661.93   20.20
   0  -6   5  665.83   21.10
   0  -6  -5  676.83   20.30
   0   6  -5  686.53   21.20
   0   6   5  668.33   20.40
   1  -6   5  805.12   25.40
  -1  -6  -5  820.52   25.50
  -1  -6  -5  861.21   25.50
   1   6   5  855.41   25.60
  -1   6  -5  863.61   25.60
  -2  -6  -5   69.89    4.60
  -2  -6  -5   63.49    4.90
   2  -6   5   66.09    4.30
  -2   6  -5   73.89    4.40
   2   6   5   80.19    5.20
  -3  -6  -5   25.10    3.80
  -3  -6  -5   29.90    3.90
   3  -6   5   26.30    2.80
  -3   6  -5   24.00    2.90
   3   6   5   23.60    3.60
  -4  -6  -5  191.98    9.20
  -4  -6  -5  198.88    9.20
   4  -6   5  190.68    7.40
  -4   6  -5  186.28    7.60
  -5  -6  -5   20.00    3.70
   5  -6   5   27.90    2.80
  -5  -6  -5   27.90    4.60
  -5   6  -5   25.70    3.10
  -6  -6  -5    4.00    3.30
   6  -6   5    0.00    1.80
  -6   6  -5   -1.20    1.90
  -7  -6  -5   20.40    4.60
   7  -6   5   17.00    2.80
  -8  -6  -5   55.19    6.90
  -9  -6  -5    5.50    4.80
 -10  -6  -5  186.58   11.80
 -11  -6  -5    1.70    4.50
 -11   6  -5    4.40    3.20
 -12  -6  -5   72.19    9.00
 -12   6  -5   75.49    7.50
 -13  -6  -5    2.20    4.90
 -14  -6  -5   29.50    7.20
 -14  -7   5   17.70    6.40
 -13  -7   5   38.70    8.10
 -12  -7   5   -4.60    4.90
 -11  -7   5   32.60    6.70
 -10  -7   5  162.18   11.10
 -10   7   5  159.38    7.20
  -9  -7   5  674.43   25.90
  -9   7   5  692.83   21.10
  -8  -7   5   13.30    4.60
  -8   7   5   19.80    2.20
  -8   7   5   21.60    2.30
  -7  -7   5  430.36   17.90
  -7   7   5  436.36   13.20
  -7   7   5  448.66   13.30
  -6  -7   5   19.50    4.60
  -6   7   5   24.10    1.50
  -6   7   5   21.10    1.40
  -5  -7   5   34.40    5.10
  -4  -7   5   30.60    4.60
  -3  -7   5  167.68    8.60
  -3   7   5  174.18    5.70
  -2  -7   5  122.39    7.00
  -2   7   5  129.99    5.00
   2   7  -5  133.59    7.00
   1  -7  -5  400.46   12.30
  -1  -7   5  408.26   14.50
   1   7  -5  390.66   14.20
  -1   7   5  411.26   12.90
   0  -7  -5    0.50    1.60
   0  -7   5    3.30    2.40
   0  -7  -5    0.30    1.60
   0   7  -5   -4.00    2.00
   0   7   5   -1.00    1.80
  -1  -7  -5  396.66   13.60
   1  -7   5  397.26   13.60
  -1  -7  -5  398.46   13.70
  -1   7  -5  411.96   13.70
   1   7   5  389.36   13.70
  -2  -7  -5  132.09    6.70
  -2  -7  -5  129.69    6.60
   2  -7   5  128.49    5.90
  -2   7  -5  118.59    6.00
   2   7   5  124.69    6.70
   3  -7   5  169.98    7.00
  -3  -7  -5  175.28    8.20
  -3  -7  -5  180.98    8.80
  -3   7  -5  169.58    7.30
  -4  -7  -5   25.20    3.80
   4  -7   5   35.90    3.10
  -4  -7  -5   38.40    5.20
  -4   7  -5   39.20    3.60
  -5  -7  -5   38.40    5.50
  -5  -7  -5   35.40    5.20
   5  -7   5   36.20    3.10
  -5   7  -5   37.70    3.60
   6  -7   5   22.90    2.60
  -6  -7  -5   19.70    4.50
  -7  -7  -5  453.45   18.70
   7  -7   5  477.85   15.10
  -8  -7  -5   16.30    5.10
  -9  -7  -5  692.33   26.30
 -10  -7  -5  189.78   12.80
 -11  -7  -5   31.10    6.50
 -12  -7  -5   -2.50    4.90
 -13  -7  -5   28.40    7.20
 -14  -7  -5   27.60    7.70
 -13  -8   5   15.20    6.20
 -12  -8   5  106.29   10.90
 -11  -8   5   27.20    6.90
 -10  -8   5   81.19    9.10
  -9  -8   5   11.10    4.80
  -9   8   5    4.50    1.70
  -9   8   5    3.30    1.60
  -8  -8   5   76.99    8.10
  -8   8   5   75.59    3.50
  -8   8   5   87.09    3.70
  -7  -8   5  393.16   16.90
  -7   8   5  373.56   11.20
  -7   8   5  382.66   11.20
  -6  -8   5   54.09    6.40
  -5  -8   5  523.75   19.80
  -4  -8   5  825.12   27.00
  -4   8   5  778.02   22.50
  -3  -8   5  335.77   13.70
  -3   8   5  326.27   10.30
  -2  -8   5  372.36   14.30
  -2   8   5  386.26   12.20
  -1  -8   5   13.70    3.50
   1  -8  -5   19.40    2.10
  -1   8   5   18.80    2.50
   0  -8  -5  111.39    5.50
   0  -8  -5  113.89    5.40
   0  -8   5  112.39    6.30
   0   8  -5  102.59    5.90
   0   8   5  113.09    5.70
  -1  -8  -5   17.40    3.00
  -1  -8  -5   24.70    3.20
   1  -8   5   20.80    3.20
  -1   8  -5   18.20    2.90
   1   8   5   13.50    2.90
  -2  -8  -5  418.86   15.00
   2  -8   5  412.46   14.00
  -2  -8  -5  423.86   14.90
  -2   8  -5  397.76   14.10
   3  -8   5  311.37   11.30
  -3  -8  -5  313.27   13.10
  -3  -8  -5  363.16   13.10
  -3   8  -5  328.27   11.70
  -4  -8  -5  763.32   26.10
   4  -8   5  790.52   24.00
  -4  -8  -5  810.82   26.70
  -4   8  -5  824.02   24.70
   5  -8   5  532.35   16.60
  -5  -8  -5  533.65   19.90
  -6  -8  -5   63.69    6.90
   6  -8   5   58.09    3.60
  -7  -8  -5  358.66   16.00
  -8  -8  -5   89.79    8.80
  -9  -8  -5    9.60    5.00
 -10  -8  -5   55.49    7.90
 -11  -8  -5   17.50    5.90
 -12  -8  -5  110.29   11.40
 -13  -8  -5    6.30    6.70
 -13  -9   5   11.70    7.10
 -12  -9   5   91.79   10.90
 -11  -9   5   18.10    6.50
 -10  -9   5   -3.30    4.30
  -9  -9   5    3.70    4.50
  -8  -9   5  319.57   15.90
  -8   9   5  340.07    9.90
  -8   9   5  329.47    9.90
  -7  -9   5  188.58   11.40
  -6  -9   5    5.10    3.80
  -5  -9   5  119.99    8.50
  -4  -9   5  460.85   17.80
  -4   9   5  450.15   13.50
  -3  -9   5    2.30    3.00
  -3   9   5    0.10    1.40
  -2  -9   5  230.28   10.50
  -2   9   5  229.98    8.40
   1  -9  -5   20.30    2.20
  -1  -9   5   28.80    4.20
  -1   9   5   21.10    2.90
   0  -9   5    0.20    2.40
   0  -9  -5   -3.90    1.70
   0  -9  -5   -1.10    1.70
   0   9   5    0.60    2.00
  -1  -9  -5   23.70    3.30
   1  -9   5   23.70    3.50
  -1  -9  -5   21.40    3.40
   2  -9   5  250.57    9.80
  -2  -9  -5  246.28   10.60
  -2  -9  -5  242.98   10.50
   3  -9   5   -1.40    1.90
  -3  -9  -5    0.30    2.40
  -3  -9  -5    5.90    3.30
   4  -9   5  471.65   14.80
  -4  -9  -5  430.06   16.90
  -4  -9  -5  462.25   17.50
  -5  -9  -5  124.69    8.50
   5  -9   5  127.59    5.40
  -6  -9  -5    5.50    4.00
   6  -9   5    3.60    1.40
  -7  -9  -5  207.38   12.00
  -8  -9  -5  333.87   16.10
  -9  -9  -5    8.10    4.90
 -10  -9  -5   -7.30    4.00
 -11  -9  -5   12.70    5.80
 -12  -9  -5   69.29    9.70
 -13  -9  -5    6.90    5.90
 -12 -10   5    4.80    5.90
 -11 -10   5   20.40    6.80
 -10 -10   5   -1.50    4.50
  -9 -10   5   11.30    5.10
  -8 -10   5   60.79    7.90
  -7 -10   5    3.00    3.90
  -6 -10   5  166.98   11.00
  -5 -10   5  238.58   12.40
  -5  10   5  215.48    6.90
  -4 -10   5   59.29    6.50
  -4  10   5   53.29    3.10
  -3 -10   5    7.80    3.80
  -3  10   5    6.30    1.90
  -2 -10   5   33.70    4.60
  -2  10   5   26.90    3.00
  -1 -10   5   37.90    4.80
   1 -10  -5   41.60    3.30
   0 -10  -5  253.47    9.60
   0 -10  -5  242.78    9.50
   0 -10   5  249.97   10.70
  -1 -10  -5   43.70    4.30
  -1 -10  -5   34.40    4.10
   1 -10   5   29.30    3.90
  -2 -10  -5   30.70    4.30
  -2 -10  -5   30.20    4.10
   2 -10   5   27.70    3.50
  -3 -10  -5    7.70    3.50
  -3 -10  -5    5.30    3.40
   3 -10   5    1.60    2.10
  -4 -10  -5   50.19    5.90
  -4 -10  -5   54.39    6.30
   4 -10   5   60.99    4.00
  -5 -10  -5  240.08   12.00
   5 -10   5  226.48    8.00
  -6 -10  -5  178.58   11.30
  -7 -10  -5    1.50    4.00
  -8 -10  -5   73.39    8.30
  -9 -10  -5   16.00    5.50
 -10 -10  -5   -2.00    4.20
 -11 -10  -5   17.00    6.10
 -12 -10  -5   -0.70    5.50
 -12 -11   5   39.50    8.60
 -11 -11   5   49.10    8.60
 -10 -11   5    2.50    5.10
  -9 -11   5    5.90    5.40
  -8 -11   5  517.05   22.50
  -7 -11   5    5.70    5.00
  -6 -11   5   19.60    5.20
  -5 -11   5   33.40    6.10
  -5  11   5   27.60    2.20
  -4 -11   5  388.56   16.40
  -4  11   5  379.86   12.30
  -3 -11   5   48.80    6.10
  -3  11   5   45.30    3.70
  -2 -11   5  150.38    9.10
  -1 -11   5  743.03   25.80
   1 -11  -5  797.32   23.30
   0 -11   5   -3.60    2.40
   0 -11  -5   -0.90    2.10
   0 -11  -5    1.50    2.10
   1 -11   5  749.73   24.20
  -1 -11  -5  743.83   24.20
  -1 -11  -5  745.13   24.20
   2 -11   5  146.19    7.40
  -2 -11  -5  162.08    8.60
  -2 -11  -5  159.28    8.30
   3 -11   5   43.70    3.90
  -3 -11  -5   35.70    5.10
  -3 -11  -5   47.80    5.70
   4 -11   5  399.56   13.10
  -4 -11  -5  395.26   16.60
  -5 -11  -5   32.40    5.50
   5 -11   5   30.90    2.40
  -6 -11  -5    6.00    4.10
  -7 -11  -5    1.90    3.90
  -8 -11  -5  539.55   22.90
  -9 -11  -5    0.90    4.40
 -10 -11  -5    2.20    4.80
 -11 -11  -5   44.70    8.40
 -12 -11  -5   14.20    6.40
 -11 -12   5    9.00    6.00
 -10 -12   5   78.89   10.10
  -9 -12   5   58.39    8.70
  -8 -12   5   23.30    6.10
  -7 -12   5   21.00    5.70
  -6 -12   5    4.10    4.20
  -5 -12   5  159.08   10.80
  -5  12   5  158.38    5.90
  -4 -12   5   78.49    7.80
  -3 -12   5   13.20    4.10
  -2 -12   5   10.20    4.00
  -1 -12   5   -2.50    3.10
   1 -12  -5   -0.50    1.70
   1 -12  -5    0.00    0.80
   0 -12   5   27.70    4.40
   0 -12  -5   28.80    3.60
   0 -12  -5   26.50    3.50
   1 -12   5    0.70    2.60
  -1 -12  -5   -0.30    2.70
  -1 -12  -5   -1.50    2.60
  -2 -12  -5    8.10    3.30
   2 -12   5    2.70    2.60
  -2 -12  -5    0.90    3.00
  -3 -12  -5   14.60    4.10
   3 -12   5    5.20    2.40
  -3 -12  -5    8.00    3.50
  -4 -12  -5   73.69    7.50
   4 -12   5   74.89    4.30
  -5 -12  -5  153.78   10.30
  -6 -12  -5    1.40    3.90
  -7 -12  -5   30.60    6.60
  -8 -12  -5   14.10    5.30
  -9 -12  -5   64.69    8.70
 -10 -12  -5   90.79   10.60
 -11 -12  -5   10.00    6.80
 -10 -13   5   11.60    6.10
  -9 -13   5    9.30    5.70
  -8 -13   5   65.69    8.80
  -7 -13   5   18.60    5.60
  -6 -13   5   69.59    8.20
  -5 -13   5    3.90    4.40
  -4 -13   5   11.80    4.60
  -3 -13   5   84.29    8.00
  -2 -13   5   21.30    4.70
   1 -13  -5   28.40    2.90
  -1 -13   5   31.80    5.00
   1 -13  -5   23.60    2.60
   0 -13  -5   -0.90    2.30
   0 -13   5   -1.70    3.00
   1 -13   5   24.30    4.10
  -1 -13  -5   28.30    4.20
  -2 -13  -5   17.60    4.10
   2 -13   5   18.70    3.50
   3 -13   5   82.09    5.20
  -3 -13  -5   71.19    7.00
   4 -13   5   10.80    2.00
  -4 -13  -5   13.60    4.40
  -5 -13  -5    2.80    4.00
  -6 -13  -5   63.09    7.90
  -7 -13  -5    4.30    4.90
  -8 -13  -5   69.49    9.10
  -9 -13  -5    2.80    5.80
 -10 -13  -5   -3.30    5.10
  -9 -14   5   37.70    8.30
  -8 -14   5   -1.30    4.80
  -7 -14   5   75.39    9.10
  -6 -14   5    0.70    5.00
  -5 -14   5   49.20    7.40
  -4 -14   5  141.99   10.50
  -3 -14   5   31.50    5.80
  -2 -14   5  133.09    9.20
   1 -14  -5  135.39    5.70
  -1 -14   5  126.49    8.70
   0 -14   5   70.99    6.70
   0 -14  -5   77.19    5.50
   1 -14   5  141.89    8.20
  -1 -14  -5  150.08    8.30
  -2 -14  -5  138.09    8.60
   2 -14   5  126.99    7.30
   3 -14   5   35.30    3.60
  -3 -14  -5   26.30    5.00
  -4 -14  -5  147.29    9.90
  -5 -14  -5   54.59    7.20
  -6 -14  -5    3.20    4.40
  -7 -14  -5   88.39    9.40
  -8 -14  -5    2.30    4.90
  -9 -14  -5   36.90    8.20
  -8 -15   5    5.20    5.40
  -7 -15   5   36.80    7.70
  -6 -15   5   80.39    9.50
  -5 -15   5    1.40    4.00
  -4 -15   5    1.00    4.40
  -3 -15   5   35.50    6.30
  -2 -15   5   -1.30    3.70
  -1 -15   5  111.29    8.30
   0 -15  -5    0.20    2.30
   0 -15   5   -6.90    3.00
  -1 -15  -5  111.69    7.30
   1 -15   5  117.79    7.50
  -2 -15  -5    1.30    3.50
   2 -15   5    1.90    2.60
  -3 -15  -5   51.39    6.60
   3 -15   5   49.50    4.00
  -4 -15  -5    3.50    4.10
  -5 -15  -5    8.70    4.60
  -6 -15  -5   83.79    9.20
  -7 -15  -5   24.10    6.30
  -8 -15  -5    5.50    5.70
  -6 -16   5   -1.30    4.50
  -5 -16   5    5.40    5.30
  -4 -16   5   78.59    8.90
  -3 -16   5   71.59    8.30
  -2 -16   5    3.20    3.80
  -1 -16   5   -1.00    3.70
   0 -16  -5   19.70    3.30
   0 -16   5   22.40    4.70
   1 -16   5    0.20    3.20
  -1 -16  -5    3.80    3.30
   2 -16   5    0.20    2.50
  -2 -16  -5    3.80    3.40
  -3 -16  -5   70.59    7.70
  -4 -16  -5   79.49    8.40
  -5 -16  -5    0.20    4.50
  -6 -16  -5    2.30    4.90
  -4 -17   5    6.30    4.90
  -3 -17   5   -1.70    4.40
  -2 -17   5   52.69    7.20
  -1 -17   5   37.80    6.10
   0 -17   5    1.00    3.60
   1 -17   5   38.70    5.00
  -1 -17  -5   34.50    4.80
  -2 -17  -5   58.39    6.50
  -3 -17  -5    2.30    4.20
  -4 -17  -5    3.10    4.50
 -15   0   6    6.00    4.30
 -14   0   6   45.70    7.00
 -13   0   6   10.70    4.70
 -12   0   6   98.49    7.80
 -11   0   6  786.02   27.10
 -10   0   6 1002.10   32.60
  -9   0   6  419.56   16.00
  -8   0   6   34.70    4.60
   8   0  -6   38.00    4.40
  -7   0   6 1033.60   30.90
   7   0  -6  954.60   30.50
   6   0  -6  327.57   12.00
  -6   0   6  335.67   12.10
   5   0  -6 3738.93  105.39
  -5   0   6 3769.92  105.49
  -4   0   6   80.89    4.50
   4   0  -6   83.49    4.60
   3   0  -6   67.99    3.90
  -3   0   6   67.09    4.10
  -2   0   6 2632.74   73.89
   2   0  -6 2642.74   73.89
  -1   0   6 3795.62  102.49
   1   0  -6 3574.94  102.29
   0   0   6 4617.24  127.29
   0   0  -6 4327.47  123.79
   1   0   6 3733.93  102.09
  -1   0  -6 3593.94  101.99
  -2   0  -6 2372.96   68.29
   2   0   6 2470.45   68.39
   3   0   6   64.49    4.10
  -3   0  -6   62.19    4.10
   4   0   6   77.59    4.80
  -4   0  -6   73.59    4.70
   5   0   6 3494.35  101.09
  -5   0  -6 3652.23  101.09
  -6   0  -6  348.47   12.80
   6   0   6  323.37   12.70
   7   0   6  978.50   31.00
  -8   0  -6   35.70    5.10
  -9   0  -6  436.46   17.30
 -10   0  -6  974.50   32.70
 -11   0  -6  802.92   28.30
 -12   0  -6   95.99    8.90
 -13   0  -6   13.30    4.90
 -14   0  -6   52.69    7.70
 -15   0  -6    3.80    5.20
 -15  -1   6   42.10    7.30
 -14  -1   6    4.30    4.00
 -14   1   6   -1.30    4.00
 -13  -1   6   59.99    7.60
 -13   1   6   58.49    6.80
 -12  -1   6  107.09    8.20
 -12   1   6   97.29    8.30
 -11  -1   6  185.58   10.30
 -11   1   6  184.88    9.90
 -10  -1   6   94.89    7.10
 -10   1   6   81.89    6.70
  -9  -1   6   97.29    7.30
   9   1  -6   94.49    7.00
  -9   1   6  101.69    6.40
  -8  -1   6   15.70    3.80
   8   1  -6    9.50    3.30
  -8   1   6   11.30    3.20
  -7  -1   6    8.40    2.90
  -7   1   6    7.60    2.70
   7   1  -6    9.20    2.80
   6  -1  -6  250.97    9.30
  -6  -1   6  270.97   10.50
  -6   1   6  243.28    9.50
   6   1  -6  240.08    9.90
   5  -1  -6   26.30    2.70
  -5  -1   6   22.80    3.30
   5   1  -6   26.60    3.20
  -5   1   6   24.10    2.80
   4  -1  -6   81.79    4.20
  -4  -1   6   77.59    4.80
   4   1  -6   82.29    4.80
  -4   1   6   88.79    4.40
   3  -1  -6   42.20    2.80
  -3  -1   6   47.30    3.90
  -3   1   6   41.40    2.90
   3   1  -6   42.40    3.40
  -2  -1   6   34.10    3.10
   2  -1  -6   36.70    2.40
   2   1  -6   36.90    3.10
  -2   1   6   38.20    2.60
  -1  -1   6  694.63   20.30
   1  -1  -6  674.63   19.80
   1   1  -6  657.43   20.20
  -1   1   6  687.03   19.80
   0  -1  -6   -1.80    1.30
   0  -1   6   -1.70    1.40
   0   1   6   -1.60    1.40
   0   1  -6    0.30    1.50
   1  -1   6  650.23   19.70
  -1  -1  -6  634.84   19.60
  -1   1  -6  670.23   19.70
   1   1   6  672.03   19.70
  -2  -1  -6   34.00    2.80
   2  -1   6   30.30    2.90
  -2   1  -6   37.20    3.20
   2   1   6   33.00    3.10
  -3  -1  -6   37.50    3.50
   3  -1   6   37.50    3.30
  -3   1  -6   43.60    3.50
   3   1   6   39.70    3.70
  -4  -1  -6   81.69    5.00
   4  -1   6   82.39    5.00
  -4   1  -6   74.59    4.70
   4   1   6   82.19    5.10
   5  -1   6   24.20    3.20
  -5  -1  -6   22.80    3.50
   5   1   6   22.20    3.40
  -5   1  -6   30.00    3.60
   6  -1   6  240.88    9.80
  -6  -1  -6  227.38    9.90
  -6  -1  -6  243.18   10.30
   6   1   6  235.28   10.10
  -6   1  -6  227.18    9.60
  -7  -1  -6   10.20    3.30
   7  -1   6    7.50    3.20
   7   1   6    9.10    3.50
  -8  -1  -6    7.50    3.60
  -9  -1  -6   90.39    7.30
  -9   1  -6  101.59    7.20
 -10  -1  -6   85.79    7.80
 -10   1  -6   87.59    7.90
 -11  -1  -6  190.68   11.20
 -11   1  -6  198.48   10.90
 -12  -1  -6  114.59   10.20
 -12   1  -6  111.69    9.20
 -13  -1  -6   46.10    7.00
 -13   1  -6   63.69    7.70
 -14  -1  -6   -7.10    4.40
 -14   1  -6    6.10    4.90
 -15  -1  -6   37.40    7.30
 -15   1  -6   39.00    7.40
 -15  -2   6    1.40    5.20
 -14  -2   6   58.39    7.70
 -14   2   6   71.29    7.70
 -13  -2   6   27.90    6.00
 -13   2   6   26.00    5.20
 -12  -2   6  121.49    9.50
 -12   2   6  124.19    8.30
 -11  -2   6   52.79    6.50
 -11   2   6   42.30    5.30
 -10  -2   6   93.09    8.20
 -10   2   6   95.89    6.70
  -9  -2   6   66.19    6.40
  -9   2   6   62.19    5.50
   9   2  -6   66.69    6.60
  -8  -2   6    9.00    3.40
  -8   2   6   11.70    2.90
   8   2  -6   11.50    3.70
  -7  -2   6  318.87   13.10
   7   2  -6  345.47   13.10
  -7   2   6  333.47   12.00
  -6  -2   6   97.29    6.20
   6   2  -6  100.09    6.40
  -6   2   6  102.19    5.30
   5  -2  -6  734.63   22.70
  -5  -2   6  751.02   24.60
   5   2  -6  869.11   24.80
  -5   2   6  752.42   23.10
  -4  -2   6  180.68    8.10
   4   2  -6  191.48    8.10
  -4   2   6  196.88    6.90
  -3  -2   6 1647.74   47.50
  -3   2   6 1642.04   46.00
   3   2  -6 1625.34   47.30
  -2  -2   6   81.39    4.90
  -2   2   6   82.99    3.40
   2   2  -6   80.09    4.50
   1  -2  -6   -1.70    1.10
  -1  -2   6   -3.30    1.80
  -1   2   6   -2.80    1.20
   1   2  -6   -4.80    1.70
   0  -2  -6 1372.06   38.60
   0  -2   6 1391.16   39.20
   0   2  -6 1290.27   39.00
   0   2   6 1384.26   38.60
  -1  -2  -6   -3.30    1.50
   1  -2   6   -2.00    1.70
  -1   2  -6   -4.70    1.60
   1   2   6   -1.40    1.80
   2  -2   6   83.09    4.30
  -2  -2  -6   85.39    4.50
   2   2   6   85.89    4.60
  -2   2  -6   85.19    4.60
  -3  -2  -6 1530.75   45.80
   3  -2   6 1555.44   45.50
  -3   2  -6 1634.64   45.60
   3   2   6 1607.24   46.00
   4  -2   6  175.08    7.40
  -4  -2  -6  171.88    7.80
   4   2   6  179.88    7.90
  -4   2  -6  178.98    7.30
  -5  -2  -6  742.53   23.50
  -5  -2  -6  690.83   23.00
   5  -2   6  718.73   22.60
  -5   2  -6  717.53   22.50
   5   2   6  730.43   23.30
  -6  -2  -6  100.79    6.40
   6  -2   6  105.89    6.10
  -6  -2  -6   99.39    6.70
  -6   2  -6  101.09    5.70
   6   2   6  106.19    6.60
  -7  -2  -6  350.56   14.30
   7  -2   6  343.47   13.20
  -8  -2  -6   12.40    3.80
   8  -2   6   17.60    3.80
  -9  -2  -6   49.70    6.20
 -10  -2  -6   91.89    8.40
 -10   2  -6   98.49    7.40
 -11  -2  -6   37.30    6.20
 -11   2  -6   36.90    5.40
 -12  -2  -6  112.49    9.40
 -12   2  -6  134.39    9.50
 -13  -2  -6   22.20    6.00
 -13   2  -6   21.00    5.60
 -14  -2  -6   52.09    8.10
 -14   2  -6   49.90    7.40
 -15  -2  -6   14.70    6.20
 -15   2  -6   22.40    6.20
 -15  -3   6   28.70    7.20
 -14  -3   6    5.90    4.80
 -13  -3   6   99.69    9.80
 -13   3   6   94.99    7.60
 -12  -3   6    2.10    3.90
 -12   3   6    5.60    3.40
 -11  -3   6  209.78   12.00
 -11   3   6  201.28   10.00
 -10  -3   6   14.60    4.50
 -10   3   6   15.60    3.50
  -9  -3   6   63.59    6.60
  -9   3   6   59.79    4.90
  -8  -3   6  336.67   14.40
  -8   3   6  345.37   12.30
   8   3  -6  333.97   13.90
  -7  -3   6    2.40    2.90
   7   3  -6    0.40    2.50
  -7   3   6   -0.30    1.80
  -6  -3   6   -5.20    2.50
   6   3  -6    1.50    2.40
  -6   3   6   -0.30    1.60
  -5  -3   6 1681.83   50.89
   5   3  -6 1771.02   50.99
  -5   3   6 1719.83   48.80
  -4  -3   6  130.59    6.80
  -4   3   6  126.79    4.80
   4   3  -6  132.19    6.70
  -3  -3   6 1475.15   43.50
  -3   3   6 1462.55   41.40
   3   3  -6 1504.05   43.40
   2  -3  -6  688.43   19.60
  -2  -3   6  728.13   21.90
   2  -3  -6  705.23   19.60
   2   3  -6  679.13   21.70
  -2   3   6  723.93   20.10
  -1  -3   6 5493.95  156.38
   1   3  -6 5621.84  156.38
  -1   3   6 5765.42  159.28
   0  -3   6   -0.30    1.80
   0  -3  -6   -0.10    1.30
   0   3  -6   -2.90    1.70
   0   3   6    0.20    1.50
  -1  -3  -6 5784.72  163.18
  -1  -3  -6 5801.92  165.98
   1  -3   6 5733.93  163.88
  -1   3  -6 5952.90  161.08
   1   3   6 5737.13  165.18
  -2  -3  -6  682.53   21.30
   2  -3   6  692.43   20.90
  -2  -3  -6  681.63   21.10
   2   3   6  698.53   21.30
  -2   3  -6  689.83   20.90
   3  -3   6 1337.57   40.70
  -3  -3  -6 1390.76   41.40
  -3  -3  -6 1399.66   41.70
   3   3   6 1487.95   41.80
  -3   3  -6 1448.56   40.90
  -4  -3  -6  137.39    7.20
   4  -3   6  136.49    6.20
  -4  -3  -6  143.19    7.00
  -4   3  -6  142.19    6.20
   4   3   6  124.79    6.90
  -5  -3  -6 1688.93   50.59
  -5  -3  -6 1763.22   50.99
   5  -3   6 1633.34   49.50
   5   3   6 1733.43   50.79
  -5   3  -6 1746.73   49.70
  -6  -3  -6   -2.50    2.70
   6  -3   6    4.30    2.40
  -6   3  -6    0.80    1.90
   6   3   6   -1.60    2.80
  -7  -3  -6    0.50    3.10
   7  -3   6   -0.20    2.40
   8  -3   6  338.97   13.40
  -8  -3  -6  348.07   14.70
  -9  -3  -6   55.49    6.60
 -10  -3  -6   16.70    5.00
 -10   3  -6   20.60    4.40
 -11  -3  -6  185.38   11.40
 -11   3  -6  178.78   10.00
 -12  -3  -6   -1.10    4.10
 -12   3  -6    1.30    3.80
 -13  -3  -6  106.69   10.40
 -13   3  -6   98.29    9.10
 -14  -3  -6    2.50    4.90
 -14   3  -6    2.40    4.50
 -15  -3  -6   29.10    7.90
 -14  -4   6    0.90    4.50
 -13  -4   6   23.20    5.80
 -12  -4   6   83.59    8.90
 -12   4   6   70.89    6.60
 -11  -4   6   25.90    5.80
 -11   4   6   32.10    4.30
 -10  -4   6    5.50    4.00
 -10   4   6    2.70    2.60
  -9  -4   6  190.68   10.80
  -9   4   6  204.18    8.70
  -8  -4   6    4.90    3.40
  -8   4   6    1.70    2.00
  -8   4   6    1.70    2.00
  -7  -4   6  342.87   14.20
  -7   4   6  342.47   11.60
  -6  -4   6  390.46   15.30
   6   4  -6  397.96   15.10
  -6   4   6  401.06   12.60
  -5  -4   6  492.55   18.00
   5   4  -6  542.75   18.10
  -5   4   6  504.45   15.20
  -4  -4   6  976.00   30.10
   4   4  -6  928.21   29.80
  -4   4   6  975.20   27.10
  -3  -4   6 2429.06   67.69
  -3   4   6 2262.77   64.79
   3   4  -6 2349.36   67.49
  -2  -4   6   17.00    2.90
  -2   4   6   16.10    1.40
   2   4  -6   18.80    3.10
   1  -4  -6   23.80    1.90
  -1  -4   6   26.10    3.20
   1   4  -6   13.70    2.60
  -1   4   6   20.70    2.00
   0  -4  -6  286.87    9.80
   0  -4  -6  297.67    9.70
   0  -4   6  297.97   10.60
   0   4  -6  320.87   10.70
   0   4   6  299.07   10.00
   1  -4   6   24.30    2.80
  -1  -4  -6   20.90    2.60
  -1  -4  -6   17.80    2.40
   1   4   6   20.20    2.60
  -1   4  -6   21.40    2.70
  -2  -4  -6   18.40    2.80
  -2  -4  -6   16.90    2.70
   2  -4   6   16.40    2.30
  -2   4  -6   20.90    2.80
   2   4   6   16.40    2.80
  -3  -4  -6 2268.67   64.89
   3  -4   6 2256.17   64.19
  -3  -4  -6 2203.78   65.09
   3   4   6 2322.67   65.09
  -3   4  -6 2259.27   64.19
  -4  -4  -6  935.41   28.90
   4  -4   6  900.51   27.70
  -4  -4  -6  917.91   29.10
   4   4   6  946.51   29.20
  -4   4  -6  940.31   27.90
  -5  -4  -6  550.14   18.20
  -5  -4  -6  508.05   17.70
   5  -4   6  488.65   16.20
  -5   4  -6  473.35   16.30
   5   4   6  486.35   17.70
   6  -4   6  410.06   14.10
  -6  -4  -6  417.46   15.90
  -6   4  -6  396.06   14.20
  -7  -4  -6  348.17   14.70
   7  -4   6  357.16   13.10
   8  -4   6    1.20    2.70
  -8  -4  -6   -3.90    3.20
  -9  -4  -6  206.68   11.50
 -10  -4  -6   -1.50    3.70
 -11  -4  -6   18.70    5.40
 -11   4  -6   27.10    5.00
 -12  -4  -6   66.39    8.60
 -12   4  -6   81.79    7.90
 -13  -4  -6   21.70    6.10
 -13   4  -6   16.10    4.90
 -14  -4  -6    0.20    5.20
 -14   4  -6    1.50    4.20
 -14  -5   6    1.90    5.70
 -13  -5   6   16.80    5.70
 -12  -5   6   16.90    6.00
 -12   5   6   20.70    4.00
 -11  -5   6    5.10    4.50
 -11   5   6    2.10    2.50
 -10  -5   6   30.60    5.70
 -10   5   6   34.20    4.10
  -9  -5   6   29.00    5.40
  -9   5   6   32.50    3.50
  -8  -5   6   14.60    4.60
  -8   5   6   21.40    2.70
  -8   5   6   21.80    2.70
  -7  -5   6  151.38    9.00
  -7   5   6  155.28    6.00
  -7   5   6  133.49    5.80
  -6  -5   6   14.50    3.90
  -6   5   6    9.70    1.70
  -6   5   6    8.90    1.70
  -5  -5   6  453.45   16.80
   5   5  -6  468.75   16.70
  -5   5   6  444.66   13.30
  -4  -5   6  369.16   13.90
  -4   5   6  358.86   10.30
   4   5  -6  355.26   13.60
  -3  -5   6   16.20    3.30
   3   5  -6   13.60    3.10
  -3   5   6   15.00    1.20
  -2  -5   6    9.70    2.80
  -2   5   6    8.50    1.30
   2   5  -6    9.20    2.70
   1  -5  -6  437.06   12.90
  -1  -5   6  427.06   14.70
  -1   5   6  442.96   13.40
   1   5  -6  432.76   14.70
   0  -5   6   -0.10    1.90
   0  -5  -6   -1.00    1.40
   0  -5  -6    2.10    1.50
   0   5   6    0.20    1.60
   0   5  -6   -1.50    1.90
  -1  -5  -6  436.36   14.20
   1  -5   6  429.66   14.30
  -1  -5  -6  426.76   14.30
  -1   5  -6  440.86   14.40
   1   5   6  446.56   14.40
  -2  -5  -6    7.00    2.60
  -2  -5  -6    8.40    2.40
   2  -5   6    7.90    2.20
  -2   5  -6    9.20    2.40
   2   5   6    4.10    2.40
  -3  -5  -6   11.60    2.80
  -3  -5  -6   13.60    3.20
   3  -5   6   15.40    2.40
  -3   5  -6   11.20    2.50
   3   5   6   10.60    3.20
  -4  -5  -6  365.86   13.60
  -4  -5  -6  360.16   13.30
   4  -5   6  330.47   11.90
   4   5   6  347.67   13.50
  -4   5  -6  364.96   12.30
  -5  -5  -6  460.95   16.90
  -5  -5  -6  456.45   16.50
   5  -5   6  454.85   14.90
  -5   5  -6  437.96   15.00
  -6  -5  -6    8.50    3.70
   6  -5   6   12.90    2.60
  -6   5  -6    8.50    2.60
   7  -5   6  149.69    7.20
  -7  -5  -6  145.89    9.00
  -8  -5  -6   22.00    5.00
   8  -5   6   13.60    3.10
  -9  -5  -6   18.20    5.00
 -10  -5  -6   21.20    5.50
 -11  -5  -6    1.40    4.20
 -11   5  -6   -0.40    3.00
 -12  -5  -6   19.70    6.40
 -12   5  -6   22.30    4.70
 -13  -5  -6   20.70    6.40
 -13   5  -6    8.10    4.60
 -14  -5  -6    1.80    5.10
 -14  -6   6    3.30    5.80
 -13  -6   6   56.19    8.30
 -12  -6   6   27.50    6.70
 -11  -6   6   -4.00    3.70
 -11   6   6    4.00    2.40
 -10  -6   6    6.90    4.60
 -10   6   6   11.30    2.70
  -9  -6   6  362.66   16.20
  -9   6   6  343.97   12.10
  -8  -6   6   58.79    6.90
  -8   6   6   62.59    3.80
  -8   6   6   54.99    3.60
  -7  -6   6  645.84   23.10
  -7   6   6  619.74   18.70
  -7   6   6  622.14   18.60
  -6  -6   6   85.29    7.10
  -6   6   6   82.99    3.40
  -6   6   6   91.59    3.50
  -5  -6   6  390.56   15.50
  -5   6   6  398.66   11.20
  -5   6   6  391.66   11.20
  -4  -6   6  206.08    9.80
  -3  -6   6 1833.72   54.79
   3   6  -6 1834.12   54.69
  -3   6   6 1891.71   51.49
  -2  -6   6   78.99    5.40
   2   6  -6   73.89    5.30
  -2   6   6   76.59    3.50
  -1  -6   6  165.68    7.60
   1  -6  -6  164.68    5.70
  -1   6   6  159.38    6.10
  -1   6   6  167.78    6.30
   1   6  -6  165.08    7.60
   0  -6  -6 3746.43  104.09
   0  -6  -6 3877.91  104.19
   0  -6   6 3647.24  105.09
   0   6   6 3665.13  104.19
   0   6  -6 3724.63  105.09
   0   6   6 3712.23  104.39
  -1  -6  -6  165.68    7.10
   1  -6   6  152.38    7.10
  -1  -6  -6  168.08    7.00
   1   6   6  177.88    7.30
   1   6   6  164.58    7.30
  -1   6  -6  163.78    7.30
  -2  -6  -6   66.49    4.80
  -2  -6  -6   76.49    5.00
   2  -6   6   70.59    4.50
   2   6   6   80.09    5.40
  -2   6  -6   68.79    4.60
   2   6   6   72.49    5.10
   3  -6   6 1827.02   53.39
  -3  -6  -6 1975.20   54.69
  -3  -6  -6 1840.52   54.69
  -3   6  -6 1814.72   53.49
  -4  -6  -6  231.48    9.70
   4  -6   6  192.28    8.00
  -4  -6  -6  199.18    9.60
  -4   6  -6  218.28    8.40
  -5  -6  -6  395.76   15.00
   5  -6   6  393.66   13.20
  -5  -6  -6  397.76   15.40
  -5   6  -6  370.26   13.30
   6  -6   6   82.29    4.90
  -6  -6  -6   76.09    7.00
   7  -6   6  681.63   21.10
  -7  -6  -6  635.04   23.80
   8  -6   6   66.59    5.00
  -8  -6  -6   54.39    6.90
  -9  -6  -6  306.07   14.90
 -10  -6  -6    6.90    5.20
 -11  -6  -6    7.60    4.80
 -12  -6  -6   24.00    6.10
 -12   6  -6   27.70    5.00
 -13  -6  -6   55.49    8.40
 -14  -6  -6    3.40    5.50
 -13  -7   6   89.39   10.50
 -12  -7   6   -1.00    4.30
 -11  -7   6   27.40    6.20
 -10  -7   6   11.40    5.40
 -10   7   6   14.40    2.60
  -9  -7   6   11.40    4.70
  -9   7   6   19.50    2.50
  -8  -7   6   26.50    5.70
  -8   7   6   25.90    2.40
  -8   7   6   23.50    2.30
  -7  -7   6    7.50    4.00
  -7   7   6    7.50    1.30
  -7   7   6    7.80    1.30
  -6  -7   6   16.70    4.40
  -6   7   6   13.20    1.00
  -5  -7   6  255.27   11.90
  -4  -7   6    5.90    3.20
  -3  -7   6 1639.74   49.40
  -2  -7   6  430.46   16.00
   2   7  -6  460.15   16.80
  -2   7   6  442.16   13.60
  -1  -7   6 1518.05   44.30
   1  -7  -6 1469.55   42.00
   1   7  -6 1497.15   44.30
  -1   7   6 1465.55   42.60
   0  -7  -6   -0.80    1.50
   0  -7   6    0.80    2.10
   0  -7  -6    1.10    1.70
   0   7  -6   -0.50    2.20
   0   7   6    0.50    1.80
  -1  -7  -6 1547.35   44.30
  -1  -7  -6 1496.75   44.40
   1  -7   6 1555.94   44.60
  -1   7  -6 1540.95   44.60
   1   7   6 1446.96   44.40
  -2  -7  -6  455.05   15.90
   2  -7   6  452.55   15.10
  -2  -7  -6  455.35   15.70
  -2   7  -6  447.16   15.20
   2   7   6  458.55   15.70
  -3  -7  -6 1716.13   48.50
   3  -7   6 1554.24   46.90
  -3  -7  -6 1673.13   48.70
  -3   7  -6 1564.14   47.20
  -4  -7  -6    6.20    2.90
   4  -7   6    8.00    2.20
  -4  -7  -6    8.70    3.70
  -4   7  -6    6.50    2.30
  -5  -7  -6  249.38   12.50
  -5  -7  -6  292.97   12.40
   5  -7   6  269.27    9.80
  -5   7  -6  252.37   10.00
   6  -7   6   10.80    2.40
  -6  -7  -6   16.20    4.20
   7  -7   6    4.10    2.30
  -7  -7  -6    6.70    4.20
  -8  -7  -6   22.90    5.60
  -9  -7  -6   13.90    5.10
 -10  -7  -6   14.80    5.30
 -11  -7  -6   30.50    6.70
 -12  -7  -6    3.40    4.90
 -13  -7  -6  100.69   11.10
 -13  -8   6   62.89    9.50
 -12  -8   6    8.10    5.50
 -11  -8   6    6.30    5.40
 -10  -8   6   23.70    6.20
  -9  -8   6   -2.30    3.90
  -9   8   6    3.80    1.60
  -9   8   6    4.60    1.50
  -8  -8   6    5.70    4.40
  -8   8   6   10.20    1.50
  -8   8   6    9.50    1.40
  -7  -8   6    2.90    3.80
  -6  -8   6   94.69    8.40
  -5  -8   6   62.49    6.50
  -4  -8   6  411.66   16.50
  -3  -8   6  434.16   16.20
  -3   8   6  415.36   12.80
  -2  -8   6   10.30    3.20
  -2   8   6   13.80    2.10
  -1  -8   6  516.85   18.00
   1  -8  -6  524.35   15.60
  -1   8   6  509.35   16.40
   0  -8  -6  741.03   22.90
   0  -8   6  762.22   24.10
   0  -8  -6  751.82   22.80
   0   8   6  747.33   23.20
   1  -8   6  522.95   17.50
  -1  -8  -6  522.45   17.30
  -1  -8  -6  532.15   17.40
  -1   8  -6  529.05   17.70
   1   8   6  512.25   17.40
  -2  -8  -6    9.40    2.80
  -2  -8  -6    8.90    2.70
   2  -8   6   10.70    2.60
  -2   8  -6    9.90    2.70
   3  -8   6  432.16   14.50
  -3  -8  -6  445.16   16.20
  -3  -8  -6  431.16   15.80
  -3   8  -6  420.16   14.70
  -4  -8  -6  404.26   15.60
   4  -8   6  406.56   13.30
  -4  -8  -6  360.26   14.90
   5  -8   6   63.89    4.20
  -5  -8  -6   69.99    6.70
  -6  -8  -6   81.09    7.80
   6  -8   6   99.39    5.00
   7  -8   6    1.10    1.90
  -7  -8  -6    0.90    3.80
  -8  -8  -6   10.10    4.60
  -9  -8  -6    4.00    4.50
 -10  -8  -6   27.50    6.40
 -11  -8  -6   12.40    5.70
 -12  -8  -6   24.90    7.00
 -13  -8  -6   64.59   10.00
 -13  -9   6   31.70    8.20
 -12  -9   6    9.80    5.80
 -11  -9   6   54.99    8.30
 -10  -9   6   11.20    5.40
  -9  -9   6   13.00    5.20
  -8  -9   6    5.40    4.50
  -7  -9   6    7.80    4.50
  -6  -9   6  324.47   15.00
  -5  -9   6   74.59    7.30
  -4  -9   6   61.89    6.40
  -4   9   6   63.49    2.90
  -3  -9   6  522.35   19.20
  -3   9   6  504.75   15.50
  -2  -9   6  185.98    9.70
  -2   9   6  203.38    7.50
  -1  -9   6  331.47   13.30
   1  -9  -6  330.17   10.90
  -1   9   6  360.56   12.00
   0  -9   6   -2.50    2.50
   0  -9  -6   -1.60    1.80
   0  -9  -6   -0.30    1.70
   0   9   6   -1.30    1.90
  -1  -9  -6  348.47   12.80
  -1  -9  -6  355.66   12.80
   1  -9   6  338.97   13.00
   2  -9   6  212.18    9.00
  -2  -9  -6  225.78    9.70
  -2  -9  -6  205.58    9.40
  -3  -9  -6  527.25   18.60
  -3  -9  -6  522.45   18.90
   3  -9   6  523.15   17.20
  -4  -9  -6   62.79    6.40
   4  -9   6   72.39    4.70
  -4  -9  -6   84.79    7.30
   5  -9   6   77.19    4.50
  -5  -9  -6   62.89    6.80
   6  -9   6  336.17   11.00
  -6  -9  -6  299.17   14.50
   7  -9   6   -0.70    1.50
  -7  -9  -6    3.30    4.70
  -8  -9  -6   -5.30    3.40
  -9  -9  -6    9.10    4.90
 -10  -9  -6    9.50    5.30
 -11  -9  -6   38.30    8.00
 -12  -9  -6   14.40    7.00
 -13  -9  -6   50.99    9.00
 -12 -10   6   10.10    6.60
 -11 -10   6   75.29   10.30
 -10 -10   6    1.10    4.70
  -9 -10   6  208.38   13.70
  -8 -10   6    4.30    5.00
  -7 -10   6  371.46   17.20
  -6 -10   6   62.39    7.40
  -5 -10   6  280.07   14.00
  -4 -10   6  127.09    8.60
  -4  10   6  128.09    4.90
  -3 -10   6   91.29    7.60
  -3  10   6   85.69    4.40
  -2 -10   6   13.30    3.70
  -2  10   6   21.40    2.80
  -1 -10   6  301.17   12.60
   1 -10  -6  292.67    9.90
   0 -10  -6   52.99    4.30
   0 -10  -6   58.29    4.30
   0 -10   6   59.79    5.50
  -1 -10  -6  305.37   11.60
   1 -10   6  293.17   11.70
  -1 -10  -6  280.47   11.40
  -2 -10  -6   13.60    3.50
   2 -10   6   20.00    3.40
  -2 -10  -6   23.40    3.80
  -3 -10  -6   82.69    6.60
  -3 -10  -6   94.89    6.70
   3 -10   6   94.39    5.60
   4 -10   6  138.19    6.30
  -4 -10  -6  123.49    8.60
  -4 -10  -6  119.19    8.20
  -5 -10  -6  262.47   13.40
   5 -10   6  280.27    9.70
  -6 -10  -6   61.99    7.30
   6 -10   6   60.39    3.50
  -7 -10  -6  392.46   17.90
  -8 -10  -6    2.00    4.20
  -9 -10  -6  226.58   13.80
 -10 -10  -6   -1.40    4.50
 -11 -10  -6   66.29    9.40
 -12 -10  -6    4.50    5.80
 -11 -11   6    1.40    5.90
 -10 -11   6   27.60    6.70
  -9 -11   6    3.80    4.90
  -8 -11   6   -0.20    4.20
  -7 -11   6   43.80    6.90
  -6 -11   6    6.00    4.40
  -5 -11   6  103.59    8.50
  -4 -11   6  117.99    8.60
  -4  11   6  105.79    4.70
  -3 -11   6    3.90    3.50
  -3  11   6    1.00    1.70
  -2 -11   6  169.08    9.60
  -1 -11   6   75.59    6.90
   1 -11  -6   81.09    4.30
   0 -11  -6   -1.30    2.00
   0 -11   6   -0.60    2.70
   0 -11  -6   -1.20    1.90
  -1 -11  -6   78.69    5.60
  -1 -11  -6   70.99    5.60
   1 -11   6   78.99    5.80
  -2 -11  -6  179.08    9.30
   2 -11   6  190.88    8.60
  -2 -11  -6  176.38    9.00
  -3 -11  -6   -0.90    2.80
   3 -11   6    0.50    2.20
  -3 -11  -6    5.50    3.60
  -4 -11  -6  131.69    8.40
   4 -11   6  110.49    5.80
  -5 -11  -6   96.59    8.70
   5 -11   6   93.69    4.70
   6 -11   6    2.50    1.00
  -6 -11  -6    5.80    4.20
  -7 -11  -6   38.70    6.40
  -8 -11  -6    0.60    4.20
  -9 -11  -6   -1.10    4.70
 -10 -11  -6   11.90    5.60
 -11 -11  -6   -8.80    5.20
 -11 -12   6    5.80    5.80
 -10 -12   6   27.30    7.40
  -9 -12   6   27.60    6.90
  -8 -12   6   12.00    5.60
  -7 -12   6    9.40    5.30
  -6 -12   6    2.30    4.60
  -5 -12   6  100.19    9.20
  -4 -12   6   -5.00    3.70
  -4  12   6   -0.80    1.80
  -3 -12   6    3.30    3.90
  -2 -12   6   29.40    5.30
  -1 -12   6  208.08   10.60
   1 -12  -6  193.28    7.40
   1 -12  -6  215.18    7.70
   0 -12  -6   73.79    5.20
   0 -12   6   80.89    6.40
   0 -12  -6   83.79    5.30
   1 -12   6  215.68    9.90
  -1 -12  -6  209.98    9.70
  -1 -12  -6  216.88    9.80
  -2 -12  -6   18.30    4.10
  -2 -12  -6   20.60    4.20
   2 -12   6   13.40    3.20
   3 -12   6    1.40    2.40
  -3 -12  -6   -1.80    3.00
  -3 -12  -6    2.90    3.30
  -4 -12  -6    5.50    3.80
   4 -12   6   -1.30    1.90
  -5 -12  -6  105.29    9.20
   5 -12   6   98.59    4.50
  -6 -12  -6   -2.80    3.40
  -7 -12  -6   -1.70    4.40
  -8 -12  -6    5.50    4.70
  -9 -12  -6   22.60    6.30
 -10 -12  -6   31.60    7.40
 -11 -12  -6   15.90    6.50
 -10 -13   6   17.70    6.80
  -9 -13   6   18.30    6.40
  -8 -13   6   16.10    6.00
  -7 -13   6   -3.50    4.10
  -6 -13   6    0.50    4.60
  -5 -13   6   60.09    7.60
  -4 -13   6   16.20    5.20
  -3 -13   6  350.36   15.90
  -2 -13   6    5.60    3.90
  -1 -13   6  209.98   10.80
   1 -13  -6  190.38    7.20
   1 -13  -6  196.08    7.20
   0 -13  -6   -1.60    2.20
   0 -13   6    0.00    2.90
   1 -13   6  222.18   10.30
  -1 -13  -6  194.88    9.60
  -2 -13  -6    1.80    3.10
   2 -13   6    1.70    2.70
  -3 -13  -6  365.16   15.50
   3 -13   6  369.26   13.30
  -4 -13  -6   25.60    5.20
   4 -13   6   19.30    2.70
  -5 -13  -6   69.49    7.70
  -6 -13  -6   -9.40    3.60
  -7 -13  -6    4.30    5.00
  -8 -13  -6   18.60    6.10
  -9 -13  -6   22.40    6.50
 -10 -13  -6   15.70    6.90
  -9 -14   6   95.29   11.10
  -8 -14   6   -1.70    4.50
  -7 -14   6  103.79   10.70
  -6 -14   6   -6.10    4.60
  -5 -14   6   11.60    5.50
  -4 -14   6   -0.70    4.30
  -3 -14   6  133.59    9.90
  -2 -14   6   -2.50    3.40
   1 -14  -6   46.20    3.10
  -1 -14   6   41.30    5.80
   0 -14   6   76.69    7.10
   0 -14  -6   69.29    5.20
  -1 -14  -6   46.40    5.10
   1 -14   6   43.60    5.30
   2 -14   6    3.40    2.90
  -2 -14  -6   -2.50    2.80
   3 -14   6  136.69    7.00
  -3 -14  -6  131.39    9.10
  -4 -14  -6   -4.70    3.50
   4 -14   6    3.50    1.80
  -5 -14  -6   19.20    5.20
  -6 -14  -6    6.70    4.90
  -7 -14  -6  124.89   11.60
  -8 -14  -6    3.30    5.40
  -9 -14  -6  101.49   11.10
  -8 -15   6   15.00    6.60
  -7 -15   6    5.40    5.10
  -6 -15   6    6.00    5.40
  -5 -15   6    5.40    4.40
  -4 -15   6   46.10    7.50
  -3 -15   6    9.40    4.70
  -2 -15   6   21.90    5.30
  -1 -15   6   -2.40    3.60
   0 -15  -6   -3.50    2.20
   0 -15   6    0.80    3.30
   1 -15   6    1.90    3.30
  -1 -15  -6   -2.40    2.70
   2 -15   6   27.60    4.10
  -2 -15  -6   29.40    4.90
  -3 -15  -6    4.60    3.80
   3 -15   6    3.60    2.40
  -4 -15  -6   37.30    6.20
  -5 -15  -6    1.70    4.30
  -6 -15  -6    8.10    4.70
  -7 -15  -6   16.20    5.80
  -8 -15  -6    8.60    5.40
  -6 -16   6    6.10    5.70
  -5 -16   6    8.90    5.30
  -4 -16   6    9.00    5.20
  -3 -16   6  193.98   12.20
  -2 -16   6    5.80    4.40
  -1 -16   6    1.80    3.70
   0 -16  -6   11.00    2.90
   0 -16   6    6.30    4.00
  -1 -16  -6    0.30    3.00
   1 -16   6   -0.30    3.20
  -2 -16  -6   -1.50    3.30
   2 -16   6   -0.20    2.70
  -3 -16  -6  159.28   10.30
  -4 -16  -6    9.90    4.60
  -5 -16  -6   11.50    4.90
  -6 -16  -6    4.10    4.80
  -4 -17   6   24.10    6.40
  -3 -17   6  123.09   10.10
  -2 -17   6   15.90    5.00
  -1 -17   6   73.09    7.90
   0 -17   6   -3.60    3.50
  -1 -17  -6   74.79    6.20
   1 -17   6   78.69    6.90
  -2 -17  -6   10.40    4.20
  -3 -17  -6  137.19    9.80
  -4 -17  -6   25.70    6.00
 -15   0   7   -2.00    4.20
 -14   0   7   -5.90    3.60
 -13   0   7    4.80    4.10
 -12   0   7    5.80    4.00
 -11   0   7    1.20    3.50
 -10   0   7    0.90    3.40
  -9   0   7    1.60    2.70
   8   0  -7   -0.60    2.20
  -8   0   7   -0.80    2.60
   7   0  -7   -0.90    1.90
  -7   0   7    0.90    2.30
  -6   0   7    0.80    2.10
   6   0  -7   -2.90    1.80
  -5   0   7    3.20    2.30
   5   0  -7    0.00    1.80
  -4   0   7    2.10    2.00
   4   0  -7   -0.60    1.70
  -3   0   7   -0.10    1.90
   3   0  -7   -0.20    1.70
   2   0  -7   -2.70    1.50
  -2   0   7    0.70    1.80
  -1   0   7    0.50    1.50
   1   0  -7    0.20    1.40
   0   0   7    2.40    1.60
   0   0  -7    2.70    1.80
  -1   0  -7    0.50    1.60
   1   0   7   -1.40    1.60
   2   0   7   -0.60    1.70
  -2   0  -7   -2.50    1.60
  -3   0  -7   -1.00    2.00
   3   0   7    0.20    1.90
  -4   0  -7    3.40    2.20
   4   0   7    0.00    2.20
  -5   0  -7    1.00    2.20
   5   0   7    1.70    2.30
  -6   0  -7   -1.30    2.10
   6   0   7    0.10    2.30
   7   0   7   -1.20    2.90
  -8   0  -7    4.10    3.30
   8   0   7    1.40    2.90
  -9   0  -7    2.50    3.30
 -10   0  -7    4.10    4.10
 -11   0  -7   -3.20    3.20
 -13   0  -7   -3.40    3.70
 -14   0  -7   -0.70    4.10
 -15   0  -7    1.60    4.90
 -15  -1   7   15.40    5.50
 -14  -1   7   14.60    5.40
 -14   1   7   21.30    5.50
 -13  -1   7   27.50    5.70
 -13   1   7   19.80    4.80
 -12  -1   7  190.18   11.00
 -12   1   7  194.68   10.40
 -11  -1   7    3.40    3.70
 -11   1   7   -2.60    2.60
 -10  -1   7   11.60    4.20
 -10   1   7   18.00    3.90
  -9  -1   7    2.60    3.40
  -9   1   7    5.10    3.00
   9   1  -7    2.70    3.00
  -8  -1   7  287.67   12.20
  -8   1   7  281.27   11.40
   8   1  -7  286.87   12.00
   7  -1  -7   24.20    3.20
  -7  -1   7   18.70    3.80
   7   1  -7   23.50    3.50
  -7   1   7   22.00    3.20
  -6  -1   7  621.24   20.50
   6  -1  -7  605.24   19.40
  -6   1   7  627.54   19.70
   6   1  -7  615.64   20.30
  -5  -1   7  649.43   21.80
   5  -1  -7  675.23   21.00
   5   1  -7  735.53   22.10
  -5   1   7  701.33   21.30
   4  -1  -7 2731.53   76.19
  -4  -1   7 2683.93   76.99
   4   1  -7 2750.32   76.99
  -4   1   7 2695.13   76.29
  -3  -1   7  828.52   25.00
   3  -1  -7  829.32   24.20
   3   1  -7  826.42   24.90
  -3   1   7  831.72   24.30
   2  -1  -7 2123.29   58.79
  -2  -1   7 2057.99   59.39
   2   1  -7 2095.69   59.39
  -2   1   7 2097.89   58.79
  -1  -1   7 6337.67  181.98
   1  -1  -7 6302.87  179.38
   1   1  -7 6429.26  175.88
  -1   1   7 6325.67  177.78
   0  -1   7   -3.80    1.60
   0  -1  -7   -3.10    1.40
   0   1  -7    0.00    1.70
   0   1   7   -3.10    1.70
   1  -1   7 6197.48  172.38
  -1  -1  -7 5904.51  169.28
  -1   1  -7 6176.18  173.38
   1   1   7 6183.28  173.78
   2  -1   7 1964.50   57.49
  -2  -1  -7 1981.80   57.49
   2   1   7 2183.08   57.79
  -2   1  -7 1958.80   57.39
  -3  -1  -7  809.12   24.50
   3  -1   7  813.22   24.40
  -3   1  -7  786.72   24.30
  -4  -1  -7 2715.93   75.49
   4  -1   7 2624.04   75.19
   4   1   7 2545.55   75.39
  -4   1  -7 2686.63   75.19
   5  -1   7  653.13   21.40
  -5  -1  -7  663.43   21.60
  -5   1  -7  673.23   21.40
   5   1   7  678.03   21.80
   6  -1   7  636.94   20.00
  -6  -1  -7  552.24   19.60
   6   1   7  580.44   20.00
  -6   1  -7  572.04   19.40
   7  -1   7   29.00    4.20
  -7  -1  -7   18.20    3.80
   7   1   7   26.00    4.20
   8  -1   7  289.97   12.40
  -8  -1  -7  308.87   13.20
  -9  -1  -7    4.80    3.90
  -9   1  -7    5.40    3.40
 -10  -1  -7   14.10    4.70
 -10   1  -7    4.70    3.70
 -11  -1  -7    5.60    4.60
 -11   1  -7   -0.20    3.40
 -12  -1  -7  166.68   11.00
 -12   1  -7  167.28   10.60
 -13  -1  -7   27.30    6.10
 -13   1  -7   29.30    5.90
 -14  -1  -7   18.20    6.40
 -14   1  -7   36.30    7.10
 -15  -1  -7   15.00    6.60
 -15   1  -7   28.70    6.50
 -15  -2   7   -1.40    5.00
 -14  -2   7   61.29    8.00
 -13  -2   7    8.70    4.90
 -13   2   7    9.50    4.20
 -12  -2   7  227.08   12.20
 -12   2   7  215.78   11.10
 -11  -2   7   77.89    7.70
 -11   2   7   75.39    6.60
 -10  -2   7  373.16   16.10
 -10   2   7  413.36   15.30
  -9  -2   7  191.28   10.10
  -9   2   7  208.68    9.30
   9   2  -7  189.88   10.10
  -8  -2   7    4.60    3.10
  -8   2   7    0.60    2.30
   8   2  -7    3.90    3.00
  -7  -2   7  752.82   25.10
  -7   2   7  780.22   23.80
   7   2  -7  755.02   25.00
  -6  -2   7  226.88   10.10
  -6   2   7  238.48    8.90
   6   2  -7  246.18   10.10
   5  -2  -7 1530.85   44.70
  -5  -2   7 1555.44   46.50
  -5   2   7 1569.24   45.00
   5   2  -7 1632.24   46.50
  -4  -2   7    3.00    2.30
   4  -2  -7    4.00    1.30
  -4   2   7    3.60    1.60
   4   2  -7    4.80    2.30
  -3  -2   7  549.45   18.10
  -3   2   7  568.24   16.80
   3   2  -7  577.34   18.20
  -2  -2   7  703.63   21.60
   2  -2  -7  681.63   20.20
  -2   2   7  695.33   20.40
   2   2  -7  728.53   21.70
  -1  -2   7  600.74   18.20
   1  -2  -7  591.64   17.20
  -1   2   7  584.44   17.30
   1   2  -7  553.14   18.00
   0  -2  -7 9583.44  270.67
   0  -2   7 9553.34  275.87
   0   2  -7 9657.03  273.37
   0   2   7 9999.00  272.27
   1  -2   7  571.14   17.90
  -1  -2  -7  588.44   17.80
  -1   2  -7  578.94   17.90
   1   2   7  583.24   17.80
   2  -2   7  654.13   20.30
  -2  -2  -7  653.23   20.30
  -2   2  -7  652.43   20.20
   2   2   7  687.23   20.50
   3  -2   7  557.44   17.80
  -3  -2  -7  562.24   18.00
   3   2   7  547.75   18.10
  -3   2  -7  573.24   17.70
  -4  -2  -7    1.40    2.20
   4  -2   7    4.20    2.30
  -4   2  -7    2.20    2.20
   4   2   7    4.00    2.50
   5  -2   7 1503.45   45.40
  -5  -2  -7 1487.35   45.90
   5   2   7 1592.44   46.30
  -5   2  -7 1606.64   45.50
   6  -2   7  242.28    9.90
  -6  -2  -7  232.98   10.50
   6   2   7  235.78   10.40
  -6   2  -7  215.98    9.40
   7  -2   7  797.62   25.40
  -7  -2  -7  809.82   26.40
   7   2   7  732.33   25.90
   8  -2   7   -1.20    2.90
  -8  -2  -7   -2.20    3.00
  -9  -2  -7  215.28   11.40
 -10  -2  -7  409.76   17.60
 -10   2  -7  399.86   16.40
 -11  -2  -7   66.39    7.60
 -11   2  -7   72.19    7.20
 -12  -2  -7  233.98   13.10
 -12   2  -7  212.98   11.90
 -13  -2  -7   16.00    5.50
 -13   2  -7   15.80    4.90
 -14  -2  -7   83.69    9.40
 -14   2  -7   69.89    8.60
 -15  -2  -7   10.10    6.30
 -15   2  -7    4.80    4.80
 -14  -3   7   -1.10    4.70
 -13  -3   7   16.60    5.60
 -13   3   7   12.90    4.20
 -12  -3   7   34.20    6.00
 -12   3   7   45.50    5.50
 -11  -3   7    1.20    3.60
 -11   3   7    1.50    2.60
 -10  -3   7  337.27   15.20
 -10   3   7  326.97   13.10
  -9  -3   7   13.00    4.00
  -9   3   7   14.80    3.20
  -8  -3   7   23.80    4.40
  -8   3   7   25.70    3.40
   8   3  -7   25.70    4.30
  -7  -3   7  168.78    9.30
  -7   3   7  165.58    7.10
   7   3  -7  165.78    8.90
  -6  -3   7 1554.44   48.10
   6   3  -7 1665.83   48.30
  -6   3   7 1598.24   46.10
  -5  -3   7  258.57   10.90
  -5   3   7  264.17    9.00
   5   3  -7  283.87   11.10
  -4  -3   7  280.37   11.30
  -4   3   7  289.97    9.30
   4   3  -7  307.37   11.40
   3  -3  -7   -0.20    0.60
  -3  -3   7   -1.90    2.20
  -3   3   7   -1.90    1.10
   3   3  -7   -0.40    2.10
  -2  -3   7 1041.60   30.30
  -2   3   7  983.40   28.50
   2   3  -7  982.30   30.00
  -1  -3   7   72.19    4.60
   1  -3  -7   73.29    3.40
   1   3  -7   82.99    4.80
  -1   3   7   76.19    3.60
   0  -3  -7   -0.90    1.50
   0  -3   7   -1.30    1.90
   0   3   7   -3.10    1.50
   0   3  -7   -0.20    1.90
  -1  -3  -7   71.99    4.00
   1  -3   7   62.89    4.20
  -1   3  -7   66.19    4.20
   1   3   7   72.99    4.30
   2  -3   7  933.41   28.00
  -2  -3  -7  944.01   28.10
  -2   3  -7  948.71   28.00
   2   3   7  928.31   28.20
  -3  -3  -7    2.30    2.30
  -3  -3  -7    1.40    2.00
   3  -3   7    0.20    1.80
   3   3   7   -2.00    2.10
  -3   3  -7   -1.30    1.70
  -4  -3  -7  286.77   11.20
   4  -3   7  289.37   10.50
  -4  -3  -7  309.97   11.70
   4   3   7  282.27   11.40
  -4   3  -7  293.27   10.70
  -5  -3  -7  279.07   11.20
   5  -3   7  272.67   10.20
  -5  -3  -7  261.97   11.30
   5   3   7  279.17   11.30
  -5   3  -7  254.17   10.10
   6  -3   7 1618.34   46.50
  -6  -3  -7 1568.94   47.80
  -6   3  -7 1563.74   46.40
   6   3   7 1538.15   47.50
  -7  -3  -7  171.38    9.50
   7  -3   7  177.88    8.50
  -8  -3  -7   17.60    4.40
   8  -3   7   30.20    4.30
  -9  -3  -7   13.10    4.40
 -10  -3  -7  326.87   15.70
 -11  -3  -7   -3.30    3.90
 -11   3  -7    2.10    3.60
 -12  -3  -7   32.30    6.30
 -12   3  -7   41.40    6.30
 -13  -3  -7   17.20    6.30
 -13   3  -7   21.00    5.30
 -14  -3  -7   12.60    5.60
 -14   3  -7    7.10    4.90
 -14  -4   7    0.50    4.40
 -13  -4   7   10.60    5.00
 -12  -4   7   40.30    7.20
 -12   4   7   61.09    6.00
 -11  -4   7   41.00    6.40
 -11   4   7   43.00    4.80
 -10  -4   7  197.98   11.70
 -10   4   7  200.18    9.10
  -9  -4   7    4.40    3.80
  -9   4   7    7.40    2.70
  -8  -4   7   23.30    4.70
  -8   4   7   20.00    2.90
  -8   4   7   24.80    3.00
  -7  -4   7    8.20    3.70
  -7   4   7   11.10    2.10
  -6  -4   7  289.47   12.60
  -6   4   7  313.67   10.10
   6   4  -7  295.97   12.50
  -5  -4   7   69.29    6.20
  -5   4   7   74.59    3.50
   5   4  -7   70.69    5.60
  -4  -4   7   76.39    5.60
  -4   4   7   75.19    3.20
   4   4  -7   72.19    5.40
  -3  -4   7  480.85   16.70
   3   4  -7  475.55   16.50
  -3   4   7  496.25   14.10
  -2  -4   7  298.87   10.80
  -2   4   7  271.47    8.70
   2   4  -7  275.57   10.60
   1  -4  -7  281.97    8.90
  -1  -4   7  272.57   10.40
  -1   4   7  294.37    9.10
   1   4  -7  273.57   10.40
   0  -4  -7 2667.13   75.39
   0  -4  -7 2785.12   75.29
   0  -4   7 2583.64   76.09
   0   4   7 2725.33   75.49
   0   4  -7 2679.13   76.19
   1  -4   7  280.87   10.30
  -1  -4  -7  282.27   10.00
  -1  -4  -7  298.37   10.20
  -1   4  -7  290.37   10.30
   1   4   7  296.37   10.30
  -2  -4  -7  272.07   10.30
   2  -4   7  290.17   10.20
  -2  -4  -7  287.77   10.70
  -2   4  -7  284.27   10.30
   2   4   7  290.87   10.60
  -3  -4  -7  490.85   16.10
   3  -4   7  470.25   15.40
  -3  -4  -7  444.16   16.10
   3   4   7  465.05   16.20
  -3   4  -7  496.85   15.50
  -4  -4  -7   76.09    6.00
  -4  -4  -7   76.79    5.50
   4  -4   7   79.19    4.80
  -4   4  -7   74.59    4.80
   4   4   7   73.29    5.50
   5  -4   7   66.79    4.70
  -5  -4  -7   86.39    6.10
  -5  -4  -7   73.89    5.60
   5   4   7   72.69    5.90
  -5   4  -7   66.19    4.80
   6  -4   7  312.37   11.50
  -6  -4  -7  304.07   12.90
  -6   4  -7  292.47   11.50
   6   4   7  293.77   12.70
  -7  -4  -7   10.60    4.00
   7  -4   7   13.70    3.10
   8  -4   7   19.00    3.80
  -8  -4  -7   21.50    4.70
  -9  -4  -7   11.20    4.40
 -10  -4  -7  200.68   12.30
 -11  -4  -7   57.09    7.80
 -11   4  -7   33.80    5.60
 -12  -4  -7   50.89    7.50
 -12   4  -7   53.99    6.60
 -13  -4  -7    4.20    5.10
 -13   4  -7    7.30    4.20
 -14  -4  -7    2.30    5.10
 -14   4  -7    2.00    4.50
 -14  -5   7   -2.90    4.80
 -13  -5   7   67.39    8.90
 -12  -5   7   10.40    4.80
 -11  -5   7  141.79   10.50
 -11   5   7  162.08    8.10
 -10  -5   7  473.85   20.00
 -10   5   7  478.45   16.40
  -9  -5   7   21.70    5.10
  -9   5   7   12.70    2.60
  -8  -5   7   37.00    5.80
  -8   5   7   50.39    3.70
  -8   5   7   48.20    3.70
  -7  -5   7  108.49    7.80
  -7   5   7  109.89    5.00
  -7   5   7  110.69    4.90
  -6  -5   7 3502.45  101.49
  -6   5   7 3528.15   97.69
  -5  -5   7   24.70    4.20
  -5   5   7   24.60    1.80
   5   5  -7   29.90    4.30
  -4  -5   7  636.34   21.40
  -4   5   7  634.64   17.90
   4   5  -7  615.74   21.20
  -3  -5   7  596.54   20.00
   3   5  -7  590.74   19.80
  -3   5   7  587.74   16.90
  -2  -5   7  293.17   11.50
   2   5  -7  306.57   11.60
  -2   5   7  308.57    9.40
   1  -5  -7 1203.98   33.90
  -1   5   7 1193.48   34.30
   1   5  -7 1192.08   35.80
   0  -5  -7    1.00    1.60
   0  -5  -7   -1.60    1.30
   0  -5   7   -1.80    1.90
   0   5   7    0.20    1.80
   0   5  -7   -0.50    2.30
  -1  -5  -7 1177.08   35.50
  -1  -5  -7 1209.48   35.70
   1  -5   7 1228.78   36.00
  -1   5  -7 1216.38   35.90
   1   5   7 1233.18   35.80
  -2  -5  -7  323.37   11.60
  -2  -5  -7  313.17   11.40
   2  -5   7  291.37   11.00
   2   5   7  326.27   11.60
  -2   5  -7  313.97   11.10
  -3  -5  -7  587.54   19.40
   3  -5   7  586.34   18.70
  -3  -5  -7  580.54   19.60
   3   5   7  594.54   19.60
  -3   5  -7  601.54   18.90
  -4  -5  -7  629.24   21.20
   4  -5   7  604.44   19.60
  -4  -5  -7  654.03   20.90
  -4   5  -7  604.54   19.70
   4   5   7  618.14   20.90
  -5  -5  -7   25.30    3.90
  -5  -5  -7   20.70    4.10
   5  -5   7   23.10    3.20
  -5   5  -7   25.10    3.30
   5   5   7   19.90    4.00
  -6  -5  -7 3448.85  102.99
   6  -5   7 3684.63  100.99
   7  -5   7  106.49    6.30
  -7  -5  -7  108.49    7.90
   8  -5   7   52.89    5.00
  -8  -5  -7   52.09    6.50
  -9  -5  -7    7.70    4.40
 -10  -5  -7  454.15   19.90
 -11  -5  -7  165.88   11.50
 -12  -5  -7   10.90    5.40
 -12   5  -7   10.20    4.10
 -13  -5  -7   85.29   10.10
 -13   5  -7   66.79    7.60
 -14  -5  -7    8.70    5.50
 -14  -6   7   32.30    7.90
 -13  -6   7    9.80    5.40
 -12  -6   7    5.00    4.80
 -11  -6   7   20.30    5.30
 -11   6   7   21.70    3.50
 -10  -6   7    9.10    4.50
 -10   6   7    2.60    2.20
  -9  -6   7   39.40    6.20
  -9   6   7   43.20    3.70
  -8  -6   7   43.70    6.30
  -8   6   7   47.30    3.40
  -8   6   7   42.90    3.30
  -7  -6   7   39.30    5.70
  -7   6   7   53.79    3.10
  -7   6   7   45.00    2.90
  -6  -6   7   28.20    4.90
  -6   6   7   34.00    2.10
  -6   6   7   35.00    2.10
  -5  -6   7   49.10    5.80
  -5   6   7   50.19    2.00
  -4  -6   7  275.27   12.10
  -4   6   7  294.57    8.30
  -3  -6   7    5.40    2.90
  -3   6   7    7.50    1.10
   3   6  -7    5.60    2.70
  -2  -6   7  305.37   12.10
   2   6  -7  308.07   12.00
  -2   6   7  322.37    9.90
   1  -6  -7   71.29    3.40
  -1  -6   7   69.39    5.40
  -1   6   7   68.59    3.80
   1   6  -7   77.79    5.20
   0  -6  -7 1450.15   42.10
   0  -6  -7 1437.36   42.20
   0  -6   7 1467.15   43.40
   0   6  -7 1490.25   43.30
   0   6   7 1494.95   42.50
  -1  -6  -7   77.79    4.70
   1  -6   7   74.49    4.70
  -1  -6  -7   69.69    4.40
  -1   6  -7   73.19    4.80
   1   6   7   70.99    4.80
  -2  -6  -7  317.97   11.50
   2  -6   7  300.97   11.10
  -2  -6  -7  321.47   11.60
  -2   6  -7  309.97   11.20
   2   6   7  288.57   11.40
   3  -6   7    5.50    2.30
  -3  -6  -7    4.30    2.60
  -3  -6  -7    9.60    3.00
   3   6   7    8.60    3.00
  -3   6  -7    5.70    2.30
  -4  -6  -7  313.37   12.20
  -4  -6  -7  296.77   12.30
   4  -6   7  298.97   10.90
  -4   6  -7  287.97   10.90
  -5  -6  -7   57.29    5.50
  -5  -6  -7   48.00    5.40
   5  -6   7   44.30    4.00
  -5   6  -7   53.29    4.30
  -6  -6  -7   33.60    5.10
   6  -6   7   31.60    3.50
   7  -6   7   51.19    4.50
  -7  -6  -7   50.99    6.20
  -8  -6  -7   53.99    6.80
   8  -6   7   48.70    4.70
  -9  -6  -7   44.60    6.70
 -10  -6  -7   -4.40    3.90
 -11  -6  -7   23.60    6.00
 -12  -6  -7    5.60    4.90
 -12   6  -7    9.40    4.00
 -13  -6  -7   20.20    6.70
 -14  -6  -7   24.40    7.60
 -13  -7   7   10.00    5.60
 -12  -7   7    4.20    5.00
 -11  -7   7    0.60    4.60
 -10  -7   7   16.10    5.40
 -10   7   7   18.50    2.80
  -9  -7   7   24.70    5.90
  -9   7   7   22.30    2.80
  -9   7   7   22.00    2.60
  -8  -7   7   12.60    4.70
  -8   7   7   13.80    1.90
  -8   7   7   15.00    2.00
  -7  -7   7    9.40    4.20
  -7   7   7    4.00    1.10
  -7   7   7    5.90    1.10
  -6  -7   7  464.35   18.40
  -5  -7   7   10.60    3.80
  -4  -7   7   24.40    4.70
  -3  -7   7  324.77   13.20
  -2  -7   7    3.10    2.70
  -2   7   7    3.50    1.40
   1  -7  -7    0.50    1.30
  -1  -7   7    3.50    2.60
  -1   7   7    3.90    1.80
   1   7  -7    5.60    2.70
   0  -7  -7    0.00    1.70
   0  -7  -7    2.10    1.60
   0  -7   7   -0.80    2.20
   0   7  -7   -1.20    2.10
   0   7   7   -2.10    1.80
  -1  -7  -7    5.50    2.30
  -1  -7  -7    3.60    2.10
   1  -7   7    1.80    2.20
  -1   7  -7    6.10    2.50
   1   7   7    4.10    2.50
  -2  -7  -7    5.50    2.70
  -2  -7  -7   -1.80    2.20
   2  -7   7   -0.10    2.10
  -2   7  -7    7.00    2.40
   3  -7   7  327.17   12.10
  -3  -7  -7  347.77   13.30
  -3  -7  -7  369.16   13.40
  -3   7  -7  325.47   12.10
  -4  -7  -7   26.00    4.50
  -4  -7  -7   23.20    3.80
   4  -7   7   22.10    3.00
  -4   7  -7   26.90    3.40
  -5  -7  -7   11.30    3.60
   5  -7   7    8.40    2.40
  -6  -7  -7  430.46   17.70
   6  -7   7  467.75   15.30
  -7  -7  -7    6.80    4.10
   7  -7   7    7.30    2.50
  -8  -7  -7   18.50    5.00
   8  -7   7   16.20    3.00
  -9  -7  -7   12.60    5.10
 -10  -7  -7   20.30    5.70
 -11  -7  -7   -6.00    4.10
 -12  -7  -7    0.70    4.80
 -13  -7  -7   15.70    6.10
 -13  -8   7    6.20    5.60
 -12  -8   7  117.39   11.60
 -11  -8   7    8.70    5.20
 -10  -8   7   96.89    9.90
  -9  -8   7  210.38   12.50
  -9   8   7  201.38    7.20
  -9   8   7  210.18    7.20
  -8  -8   7  130.09    9.70
  -8   8   7  130.79    4.50
  -8   8   7  117.99    4.40
  -7  -8   7  224.88   12.30
  -6  -8   7   12.70    4.30
  -5  -8   7   70.89    6.90
  -4  -8   7   61.09    6.30
  -3  -8   7  171.48    9.10
  -2  -8   7   43.10    5.10
   1  -8  -7   26.10    2.30
  -1  -8   7   28.40    4.20
  -1   8   7   23.80    2.70
   0  -8   7  564.04   19.00
   0  -8  -7  557.14   17.60
   0  -8  -7  546.85   17.50
   0   8   7  555.84   18.00
   1  -8   7   30.20    3.80
  -1  -8  -7   32.10    3.80
  -1  -8  -7   23.80    3.30
   1   8   7   26.20    3.50
  -2  -8  -7   32.70    3.90
  -2  -8  -7   49.40    4.70
   2  -8   7   42.10    4.10
  -3  -8  -7  181.88    8.80
   3  -8   7  169.68    7.70
  -3  -8  -7  160.68    8.50
   4  -8   7   76.99    4.90
  -4  -8  -7   76.39    6.80
  -4  -8  -7   67.89    6.20
  -5  -8  -7   68.29    7.00
   5  -8   7   68.69    4.70
   6  -8   7    3.30    2.20
  -6  -8  -7    1.40    3.30
  -7  -8  -7  226.08   12.30
   7  -8   7  231.78    9.10
  -8  -8  -7  130.79    9.90
   8  -8   7  149.99    6.80
  -9  -8  -7  200.38   12.50
 -10  -8  -7  116.89   10.90
 -11  -8  -7   19.10    6.00
 -12  -8  -7  115.59   11.70
 -13  -8  -7   -3.00    5.80
 -13  -9   7   -3.90    5.80
 -12  -9   7   32.50    7.30
 -11  -9   7    6.30    5.40
 -10  -9   7   12.60    5.90
  -9  -9   7   48.60    7.70
  -8  -9   7  191.98   12.00
  -7  -9   7  147.89   10.30
  -6  -9   7  284.37   13.90
  -5  -9   7  535.85   20.70
  -4  -9   7  622.44   22.60
  -3  -9   7  373.76   15.20
  -2  -9   7    5.50    3.00
  -1  -9   7   66.19    5.50
   1  -9  -7   64.39    3.50
  -1   9   7   59.99    4.30
   0  -9   7   -3.10    2.30
   0  -9  -7   -0.40    1.70
   0  -9  -7   -1.30    1.80
   0   9   7    1.00    2.20
  -1  -9  -7   66.39    4.90
  -1  -9  -7   56.49    4.70
   1  -9   7   65.99    5.50
   2  -9   7   -0.40    2.40
  -2  -9  -7   -0.30    2.50
  -2  -9  -7    1.40    2.70
  -3  -9  -7  405.76   15.20
  -3  -9  -7  397.06   15.60
   3  -9   7  399.36   14.10
  -4  -9  -7  622.64   22.50
   4  -9   7  658.53   20.50
  -4  -9  -7  632.34   22.40
  -5  -9  -7  530.15   20.50
   5  -9   7  549.85   17.60
  -6  -9  -7  298.57   14.10
   6  -9   7  292.47   10.60
  -7  -9  -7  128.09    9.70
   7  -9   7  154.58    6.50
  -8  -9  -7  169.28   11.20
  -9  -9  -7   59.39    8.00
 -10  -9  -7   17.50    5.80
 -11  -9  -7   11.10    5.80
 -12  -9  -7   33.90    7.80
 -13  -9  -7   -6.50    4.70
 -12 -10   7    7.80    6.60
 -11 -10   7    1.40    5.00
 -10 -10   7   29.40    7.40
  -9 -10   7   27.70    6.40
  -8 -10   7   15.60    5.50
  -7 -10   7    3.50    4.20
  -6 -10   7    0.40    3.80
  -5 -10   7    9.80    4.70
  -4 -10   7  124.29    8.60
  -3 -10   7   21.00    4.50
  -2 -10   7   97.19    7.00
  -2  10   7   85.89    4.80
   1 -10  -7   17.90    2.10
  -1 -10   7   16.90    3.80
   0 -10  -7   53.49    4.40
   0 -10  -7   66.99    4.40
   0 -10   7   64.69    5.80
  -1 -10  -7   21.60    3.50
  -1 -10  -7   18.70    3.50
   1 -10   7   19.50    3.70
  -2 -10  -7   93.09    6.30
  -2 -10  -7   83.19    6.20
   2 -10   7   83.89    5.90
  -3 -10  -7   19.10    4.00
  -3 -10  -7   11.40    3.90
   3 -10   7   20.00    3.30
  -4 -10  -7  119.79    8.00
   4 -10   7  109.99    6.00
  -4 -10  -7  107.89    7.90
  -5 -10  -7    3.80    4.10
   5 -10   7    6.80    2.30
   6 -10   7    2.30    1.90
  -6 -10  -7   -0.90    4.10
  -7 -10  -7    7.30    4.70
   7 -10   7    1.60    1.70
  -8 -10  -7   11.40    5.10
  -9 -10  -7   25.70    6.30
 -10 -10  -7   19.30    6.20
 -11 -10  -7    0.70    5.70
 -12 -10  -7   12.50    6.40
 -11 -11   7   -6.60    5.70
 -10 -11   7    0.20    4.90
  -9 -11   7   14.90    5.90
  -8 -11   7  127.89   10.40
  -7 -11   7   -4.00    3.60
  -6 -11   7   51.69    7.40
  -5 -11   7    6.40    4.20
  -4 -11   7  181.38   11.10
  -3 -11   7   59.89    6.50
  -3  11   7   45.10    3.60
  -2 -11   7   32.00    4.90
   1 -11  -7   32.80    2.70
   1 -11  -7   40.40    3.10
  -1 -11   7   47.40    5.60
   0 -11  -7    0.70    2.00
   0 -11  -7    2.20    2.20
   0 -11   7    0.10    2.70
  -1 -11  -7   42.50    4.50
   1 -11   7   46.90    5.10
  -1 -11  -7   39.80    4.40
  -2 -11  -7   37.90    4.80
  -2 -11  -7   38.70    4.80
   2 -11   7   32.00    4.20
   3 -11   7   55.39    4.90
  -3 -11  -7   47.50    5.60
  -3 -11  -7   57.29    6.10
  -4 -11  -7  185.28   10.30
   4 -11   7  188.58    8.10
  -5 -11  -7    1.00    3.40
   5 -11   7    2.40    2.10
  -6 -11  -7   34.20    5.80
   6 -11   7   38.50    3.10
  -7 -11  -7   -1.90    4.40
  -8 -11  -7  141.29   10.70
  -9 -11  -7   20.50    5.90
 -10 -11  -7    0.80    4.70
 -11 -11  -7   -3.10    5.20
 -11 -12   7   46.10    9.00
 -10 -12   7   76.19   10.30
  -9 -12   7   45.70    8.10
  -8 -12   7   -6.70    4.50
  -7 -12   7   45.00    7.20
  -6 -12   7   -2.60    3.90
  -5 -12   7   46.20    6.70
  -4 -12   7  107.39    8.60
  -3 -12   7    4.00    3.70
  -2 -12   7  145.39    9.00
   1 -12  -7   41.30    3.10
   1 -12  -7   40.60    3.00
  -1 -12   7   42.40    5.50
   0 -12  -7    2.10    2.20
   0 -12   7   -5.20    2.80
   0 -12  -7    0.10    2.00
  -1 -12  -7   54.09    5.20
   1 -12   7   51.09    5.40
  -1 -12  -7   51.19    5.10
   2 -12   7  149.49    7.90
  -2 -12  -7  139.89    8.40
  -2 -12  -7  147.39    8.60
  -3 -12  -7   11.90    4.00
   3 -12   7    3.50    2.60
  -3 -12  -7    4.90    3.60
   4 -12   7  124.29    6.30
  -4 -12  -7  120.59    8.80
   5 -12   7   59.09    4.00
  -5 -12  -7   55.49    6.70
   6 -12   7    0.30    1.10
  -6 -12  -7    2.40    3.80
  -7 -12  -7   59.89    7.80
  -8 -12  -7   -5.90    4.20
  -9 -12  -7   43.40    7.50
 -10 -12  -7   61.59    9.00
 -11 -12  -7   31.50    7.60
 -10 -13   7   34.20    8.10
  -9 -13   7   32.80    7.70
  -8 -13   7   34.50    7.10
  -7 -13   7    3.00    4.40
  -6 -13   7   38.10    6.90
  -5 -13   7   -2.80    3.70
  -4 -13   7   16.30    5.40
  -3 -13   7   34.90    6.10
  -2 -13   7  238.88   12.40
   1 -13  -7   35.40    2.70
  -1 -13   7   37.10    5.40
   1 -13  -7   34.30    2.80
   0 -13   7    2.80    3.40
   0 -13  -7   -1.20    2.10
  -1 -13  -7   38.10    4.60
   1 -13   7   42.20    5.00
   2 -13   7  256.37   11.10
  -2 -13  -7  249.08   11.60
   3 -13   7   34.50    4.10
  -3 -13  -7   36.40    5.30
  -4 -13  -7   17.20    4.60
   4 -13   7   16.70    2.90
   5 -13   7   -2.10    1.50
  -5 -13  -7   -2.90    3.20
  -6 -13  -7   30.00    6.30
  -7 -13  -7   -6.50    3.70
  -8 -13  -7   44.50    7.70
  -9 -13  -7   20.50    6.90
 -10 -13  -7   20.90    6.70
  -9 -14   7   17.80    6.80
  -8 -14   7   12.50    6.40
  -7 -14   7   33.20    7.00
  -6 -14   7    2.30    5.10
  -5 -14   7   -7.10    4.10
  -4 -14   7    5.50    4.60
  -3 -14   7   18.00    5.20
  -2 -14   7   20.60    5.00
   1 -14  -7    0.00    1.20
  -1 -14   7   -1.50    3.50
   0 -14  -7   74.09    5.30
   0 -14   7   69.19    6.90
  -1 -14  -7    1.60    2.90
   1 -14   7    3.10    3.30
   2 -14   7   25.90    4.20
  -2 -14  -7   23.30    4.50
   3 -14   7   23.60    3.70
  -3 -14  -7   16.10    4.50
   4 -14   7   10.50    2.50
  -4 -14  -7    3.70    4.00
  -5 -14  -7    0.70    3.50
  -6 -14  -7   -2.10    3.80
  -7 -14  -7   35.70    6.70
  -8 -14  -7    0.70    4.50
  -9 -14  -7   15.10    6.40
  -8 -15   7    7.70    6.00
  -7 -15   7    0.70    4.70
  -6 -15   7  121.09   11.20
  -5 -15   7   16.40    5.90
  -4 -15   7    6.70    5.00
  -3 -15   7   52.99    7.30
  -2 -15   7  110.39    9.00
  -1 -15   7  153.98   10.10
   0 -15   7    5.10    3.70
   0 -15  -7    2.30    2.40
   1 -15   7  135.29    8.60
  -1 -15  -7  133.69    7.90
   2 -15   7   97.59    6.90
  -2 -15  -7   98.09    7.50
   3 -15   7   62.29    5.20
  -3 -15  -7   65.29    7.30
  -4 -15  -7    9.50    4.50
  -5 -15  -7   11.10    5.00
  -6 -15  -7  121.59   11.00
  -7 -15  -7    1.20    4.20
  -8 -15  -7    7.70    5.40
  -6 -16   7    3.10    5.30
  -5 -16   7   22.80    6.60
  -4 -16   7    3.70    4.80
  -3 -16   7   25.60    6.10
  -2 -16   7   43.20    6.80
  -1 -16   7   39.60    6.00
   0 -16   7   24.10    5.00
  -1 -16  -7   32.50    4.60
   1 -16   7   24.90    4.70
   2 -16   7   46.40    5.20
  -2 -16  -7   47.80    5.90
  -3 -16  -7   23.70    5.10
  -4 -16  -7    2.60    4.40
  -5 -16  -7   16.20    5.40
  -6 -16  -7    3.70    4.70
  -4 -17   7   12.60    5.70
  -3 -17   7   56.99    7.90
  -2 -17   7   23.30    5.80
  -1 -17   7   13.70    5.00
   0 -17   7   -3.00    3.50
   1 -17   7    8.40    3.90
  -2 -17  -7   17.20    4.60
  -3 -17  -7   60.89    7.10
  -4 -17  -7   19.50    5.40
 -14   0   8   83.59    8.90
 -13   0   8    8.40    4.40
 -12   0   8  753.72   26.90
 -11   0   8   14.80    3.90
 -10   0   8  812.72   27.40
   9   0  -8  214.38    9.90
  -9   0   8  207.08   10.20
   8   0  -8  724.63   23.20
  -8   0   8  683.03   23.20
  -7   0   8  222.68    9.80
   7   0  -8  255.57   10.10
  -6   0   8    1.30    2.20
   6   0  -8   -2.70    1.80
  -5   0   8    9.60    2.50
   5   0  -8   14.20    2.50
   4   0  -8  524.25   16.90
  -4   0   8  538.75   17.10
   3   0  -8   39.10    3.20
  -3   0   8   38.60    3.40
  -2   0   8  300.27   10.40
   2   0  -8  316.57   10.40
  -1   0   8 7146.89  202.48
   1   0  -8 7037.30  196.28
   0   0   8 4271.57  116.99
   0   0  -8 4112.89  116.89
  -1   0  -8 7051.69  196.18
   1   0   8 6931.31  198.88
   2   0   8  305.87   10.60
  -2   0  -8  288.97   10.40
  -3   0  -8   34.00    3.50
   3   0   8   41.50    3.70
  -4   0  -8  465.85   16.00
   4   0   8  496.55   16.30
   5   0   8   12.30    3.00
  -5   0  -8   14.30    3.00
   6   0   8    2.80    2.50
   7   0   8  225.58   10.40
   8   0   8  725.23   24.70
  -9   0  -8  209.08   10.90
 -10   0  -8  887.61   30.50
 -11   0  -8    6.00    4.00
 -12   0  -8  808.62   29.60
 -13   0  -8    6.60    4.60
 -14   0  -8   78.19    9.30
 -15   0  -8   60.69    8.60
 -15  -1   8   -2.60    4.20
 -14  -1   8   -5.40    4.20
 -14   1   8    0.50    4.30
 -13  -1   8   -1.00    4.00
 -13   1   8    1.90    4.00
 -12  -1   8   86.09    8.50
 -12   1   8   91.39    8.00
 -11  -1   8    9.40    4.20
 -11   1   8   13.50    3.60
 -10  -1   8   96.79    7.30
 -10   1   8   98.79    7.00
  -9  -1   8   51.79    5.80
   9   1  -8   74.59    6.60
  -9   1   8   49.00    5.30
  -8  -1   8  635.24   21.60
  -8   1   8  637.54   21.00
   8   1  -8  607.34   21.30
  -7  -1   8   10.60    3.10
   7  -1  -8    5.90    2.30
  -7   1   8    6.30    2.60
   7   1  -8    9.90    3.20
   6  -1  -8  452.35   15.60
  -6  -1   8  496.55   16.90
  -6   1   8  489.05   16.10
   6   1  -8  489.25   16.60
  -5  -1   8    4.90    2.40
   5  -1  -8    1.60    1.60
  -5   1   8    2.70    2.00
   5   1  -8    1.10    2.20
  -4  -1   8  504.95   16.40
   4  -1  -8  492.95   15.40
   4   1  -8  493.75   16.20
  -4   1   8  479.55   15.60
   3  -1  -8   84.19    4.10
  -3  -1   8   79.39    4.70
   3   1  -8   89.39    5.00
  -3   1   8   79.59    4.20
   2  -1  -8  389.66   12.20
  -2  -1   8  387.66   12.80
  -2   1   8  389.86   12.30
   2   1  -8  382.86   12.80
   1  -1  -8   93.99    4.40
  -1   1   8  101.29    4.70
   1   1  -8  100.49    5.00
   0  -1   8   -0.60    1.80
   0  -1  -8    0.00    1.60
   0   1   8    1.40    1.70
   0   1  -8    1.80    1.90
   1  -1   8  100.99    5.10
  -1  -1  -8  101.89    5.00
   1   1   8   93.69    4.90
  -1   1  -8  101.59    5.10
   2  -1   8  362.66   12.60
  -2  -1  -8  365.86   12.60
  -2   1  -8  388.56   12.80
   2   1   8  392.96   12.80
  -3  -1  -8   78.69    4.90
   3  -1   8   84.29    4.90
  -3   1  -8   86.19    4.90
   3   1   8   83.59    5.10
  -4  -1  -8  473.75   15.70
   4  -1   8  475.35   15.70
   4   1   8  442.76   15.60
  -4   1  -8  451.85   15.40
   5  -1   8    1.00    2.20
  -5  -1  -8    2.80    2.40
   5   1   8    4.30    2.60
  -5   1  -8    4.10    2.60
   6  -1   8  500.85   17.40
   6   1   8  481.15   17.40
  -6   1  -8  493.05   17.10
   7  -1   8    5.60    2.80
   7   1   8    3.30    3.40
   8  -1   8  610.24   22.10
  -8  -1  -8  648.54   22.80
   8   1   8  653.93   22.80
   9  -1   8   72.49    6.80
  -9  -1  -8   56.59    6.40
 -10  -1  -8  108.29    8.40
 -10   1  -8   99.09    7.90
 -11  -1  -8    9.80    4.30
 -11   1  -8   15.30    4.60
 -12  -1  -8   73.89    8.10
 -12   1  -8   72.19    7.90
 -13  -1  -8   -3.80    4.10
 -13   1  -8    4.50    4.20
 -14  -1  -8   -4.70    4.40
 -14   1  -8   -8.20    4.40
 -15  -1  -8   -2.10    5.20
 -15   1  -8    1.70    4.50
 -14  -2   8    3.10    4.50
 -13  -2   8    5.80    4.30
 -13   2   8   17.30    4.70
 -12  -2   8   35.20    6.20
 -12   2   8   37.50    5.20
 -11  -2   8   31.10    5.70
 -11   2   8   34.20    4.90
 -10  -2   8   14.10    4.00
 -10   2   8   20.70    3.80
  -9  -2   8    1.40    3.60
   9   2  -8    4.80    3.40
  -9   2   8    4.70    2.80
  -8  -2   8   88.39    6.70
   8   2  -8   92.99    6.40
  -8   2   8   84.79    5.60
  -7  -2   8   28.50    4.30
  -7   2   8   31.10    3.60
   7   2  -8   35.30    4.50
   6  -2  -8   58.79    3.80
  -6  -2   8   72.89    6.00
  -6   2   8   67.29    4.40
   6   2  -8   67.99    5.20
  -5  -2   8    4.50    2.50
   5  -2  -8   -0.40    1.30
   5   2  -8   -1.60    2.20
  -5   2   8    0.30    1.70
  -4  -2   8  195.78    8.50
   4  -2  -8  200.98    7.00
   4   2  -8  192.98    8.40
  -4   2   8  202.48    7.30
  -3  -2   8  142.89    6.70
   3  -2  -8  133.69    5.20
   3   2  -8  142.39    6.60
  -3   2   8  142.89    5.50
   2  -2  -8  385.16   12.10
  -2  -2   8  403.46   13.50
  -2   2   8  389.96   12.30
   2   2  -8  406.46   13.40
  -1  -2   8 3569.74   99.09
   1  -2  -8 3489.45   98.19
  -1   2   8 3543.75  100.39
   1   2  -8 3524.85   99.09
   0  -2   8  737.23   22.20
   0  -2  -8  725.93   21.70
   0   2  -8  724.43   22.20
   0   2   8  720.13   21.70
   1  -2   8 3396.16   96.39
  -1  -2  -8 3471.15   96.19
   1   2   8 3494.75   96.19
  -1   2  -8 3371.86   96.29
  -2  -2  -8  381.56   12.80
   2  -2   8  378.16   12.70
   2   2   8  384.86   12.90
  -2   2  -8  364.46   12.70
  -3  -2  -8  127.49    6.40
   3  -2   8  133.19    6.20
   3   2   8  142.49    6.70
  -3   2  -8  135.89    6.30
   4  -2   8  186.88    7.80
  -4  -2  -8  182.18    8.10
   4   2   8  187.38    8.30
  -4   2  -8  182.88    7.80
   5  -2   8    1.40    2.40
  -5  -2  -8    1.30    2.30
   5   2   8    0.20    2.40
  -5   2  -8    1.30    2.10
  -6  -2  -8   66.69    6.00
   6  -2   8   61.69    5.00
  -6   2  -8   74.29    5.70
   6   2   8   69.39    5.70
   7  -2   8   28.80    4.20
  -7  -2  -8   23.70    4.50
   7   2   8   27.80    4.60
   8  -2   8  106.59    7.10
  -8  -2  -8   90.19    7.30
   8   2   8   97.39    7.30
   9  -2   8    7.40    3.80
  -9  -2  -8    6.00    3.90
 -10  -2  -8   14.70    4.70
 -10   2  -8   11.40    4.40
 -11  -2  -8   34.60    6.30
 -11   2  -8   38.30    6.10
 -12  -2  -8   39.90    6.80
 -12   2  -8   39.80    6.60
 -13  -2  -8   19.50    5.60
 -13   2  -8   19.60    5.20
 -14  -2  -8    4.40    5.80
 -14   2  -8    9.40    4.60
 -14  -3   8    6.80    5.10
 -13  -3   8    3.50    4.80
 -13   3   8    7.70    4.00
 -12  -3   8    9.90    4.80
 -12   3   8   12.00    3.90
 -11  -3   8    0.80    4.20
 -11   3   8    2.20    2.80
 -10  -3   8  572.04   21.70
 -10   3   8  549.65   19.40
  -9  -3   8   -0.10    3.50
  -9   3   8    1.60    2.50
  -8  -3   8  480.15   18.40
   8   3  -8  474.05   18.30
  -8   3   8  505.15   16.50
  -7  -3   8   54.49    6.00
  -7   3   8   65.39    4.40
   7   3  -8   69.29    6.00
  -6  -3   8 1442.26   43.80
  -6   3   8 1437.66   41.60
   6   3  -8 1440.96   43.70
  -5  -3   8  234.68   10.30
   5   3  -8  254.67   10.40
  -5   3   8  234.58    8.40
  -4  -3   8  558.64   18.50
   4  -3  -8  517.65   15.70
   4   3  -8  561.34   18.40
  -4   3   8  552.34   16.40
  -3  -3   8  379.46   13.20
   3   3  -8  366.36   13.10
  -3   3   8  360.06   11.30
  -2  -3   8 1739.13   49.70
  -2   3   8 1685.33   48.00
   2   3  -8 1691.83   49.50
  -1  -3   8    9.30    2.60
   1  -3  -8    8.10    1.60
  -1   3   8    9.40    1.80
   1   3  -8    7.40    2.50
   0  -3  -8    2.50    1.70
   0  -3   8    0.10    2.00
   0   3  -8   -0.30    1.90
   0   3   8   -0.50    1.70
  -1  -3  -8    7.00    2.10
   1  -3   8    7.50    2.30
   1   3   8    6.00    2.20
  -1   3  -8    5.20    2.30
   2  -3   8 1590.34   47.60
  -2  -3  -8 1604.54   47.60
  -2   3  -8 1693.43   47.70
   2   3   8 1701.13   47.90
   3  -3   8  358.06   12.50
  -3  -3  -8  365.46   12.70
  -3   3  -8  340.07   12.30
   3   3   8  366.86   12.90
   4  -3   8  516.05   17.40
  -4  -3  -8  533.65   18.10
  -4  -3  -8  567.54   18.50
   4   3   8  537.95   18.30
  -4   3  -8  535.85   17.60
   5  -3   8  227.88    9.20
  -5  -3  -8  215.78    9.90
  -5  -3  -8  228.68   10.30
  -5   3  -8  240.38    9.60
   5   3   8  228.18   10.20
  -6  -3  -8 1411.46   43.90
   6  -3   8 1455.15   42.90
   6   3   8 1427.56   43.90
   7  -3   8   66.99    5.50
  -7  -3  -8   69.99    6.70
   7   3   8   69.49    6.70
  -8  -3  -8  475.65   18.80
   8  -3   8  498.45   17.70
   9  -3   8   -0.90    3.00
  -9  -3  -8    7.20    4.10
 -10  -3  -8  537.95   21.50
 -11  -3  -8   -2.70    4.10
 -11   3  -8    5.20    3.90
 -12  -3  -8   17.70    5.50
 -12   3  -8   13.30    4.80
 -13  -3  -8   10.00    5.40
 -13   3  -8    2.40    4.40
 -14  -3  -8    4.00    5.70
 -14   3  -8   -1.10    4.00
 -14  -4   8    4.80    5.40
 -13  -4   8   23.50    6.00
 -12  -4   8  174.98   11.90
 -12   4   8  172.38    9.30
 -11  -4   8   10.50    4.40
 -11   4   8    6.50    3.00
 -10  -4   8    0.00    3.60
 -10   4   8    4.30    2.60
  -9  -4   8  273.87   13.10
  -9   4   8  262.07   10.40
  -8  -4   8   23.60    5.00
  -8   4   8   26.30    3.20
  -7  -4   8   39.30    5.40
  -7   4   8   35.50    3.20
  -6  -4   8   45.30    5.20
   6   4  -8   44.10    5.10
  -6   4   8   46.80    3.20
  -5  -4   8    1.10    2.90
   5   4  -8    0.50    2.40
  -5   4   8    4.20    1.40
  -4  -4   8 4091.39  115.09
   4   4  -8 4023.60  114.99
  -4   4   8 4053.09  112.19
  -3  -4   8  962.90   29.40
  -3   4   8  944.81   26.80
   3   4  -8  915.91   29.10
   2  -4  -8 1506.65   42.10
   2  -4  -8 1485.25   42.10
  -2  -4   8 1545.65   44.70
  -2   4   8 1553.04   42.70
   2   4  -8 1481.45   44.50
   1  -4  -8 1222.78   34.60
   1  -4  -8 1230.28   34.60
  -1  -4   8 1177.28   36.10
  -1   4   8 1226.38   34.80
   1   4  -8 1218.98   36.20
   0  -4  -8 7332.07  205.28
   0  -4  -8 7295.87  207.78
   0  -4   8 7112.89  202.58
   0   4   8 7320.07  205.08
   0   4  -8 7407.16  202.58
   1  -4   8 1233.68   36.20
  -1  -4  -8 1176.08   35.70
  -1  -4  -8 1208.28   35.90
  -1   4  -8 1300.27   36.40
   1   4   8 1212.68   35.90
  -2  -4  -8 1434.96   43.60
  -2  -4  -8 1480.45   43.40
   2  -4   8 1541.15   43.50
  -2   4  -8 1484.05   43.40
   2   4   8 1500.05   43.60
  -3  -4  -8  880.81   28.50
  -3  -4  -8  978.70   28.60
   3  -4   8  854.01   27.80
   3   4   8  954.40   28.70
  -3   4  -8  945.51   28.00
  -4  -4  -8 4042.00  114.39
  -4  -4  -8 4005.10  114.69
   4  -4   8 3963.90  113.59
  -4   4  -8 4191.88  113.69
   4   4   8 3994.60  114.49
   5  -4   8    2.70    2.30
  -5  -4  -8    4.20    2.70
  -5  -4  -8    1.80    2.80
  -5   4  -8    1.00    2.00
   5   4   8   -1.50    2.80
  -6  -4  -8   48.50    5.60
   6  -4   8   53.99    4.70
   6   4   8   58.19    5.80
   7  -4   8   39.00    4.40
  -7  -4  -8   21.20    4.60
   8  -4   8   18.30    3.90
  -8  -4  -8   20.50    4.90
  -9  -4  -8  250.57   13.00
   9  -4   8  252.87   11.30
 -10  -4  -8    4.80    4.50
 -11  -4  -8   13.80    5.50
 -12  -4  -8  203.18   12.80
 -12   4  -8  186.68   11.30
 -13  -4  -8   13.60    5.80
 -13   4  -8   11.10    4.40
 -14  -4  -8   20.90    6.50
 -14   4  -8   13.90    5.30
 -14  -5   8   10.20    6.30
 -13  -5   8    0.40    4.60
 -12  -5   8   29.70    6.30
 -11  -5   8    8.50    4.60
 -11   5   8    3.70    2.70
 -10  -5   8   11.20    4.60
 -10   5   8   14.00    3.00
  -9  -5   8   16.20    4.60
  -9   5   8   15.90    2.80
  -8  -5   8  101.99    8.10
  -8   5   8   97.99    5.10
  -8   5   8   98.19    5.10
  -7  -5   8    4.20    3.80
  -7   5   8   -0.80    1.40
  -6  -5   8    3.10    3.30
  -6   5   8    1.70    1.30
  -5  -5   8   43.50    5.20
  -5   5   8   51.09    2.50
   5   5  -8   41.90    5.00
  -4  -5   8   74.79    5.90
   4   5  -8   78.69    5.80
  -4   5   8   79.09    3.10
  -3  -5   8   19.40    3.50
   3   5  -8   22.90    3.50
  -3   5   8   19.70    1.60
  -2  -5   8  461.15   16.30
  -2   5   8  478.35   14.20
   2   5  -8  468.95   16.30
   1  -5  -8  623.04   18.10
  -1  -5   8  598.74   19.90
   1   5  -8  599.94   19.90
  -1   5   8  615.84   18.50
   0  -5   8   -2.00    2.00
   0  -5  -8    1.70    1.70
   0  -5  -8    1.50    1.60
   0   5   8    2.40    1.90
   0   5  -8   -2.10    2.10
  -1  -5  -8  619.64   19.60
   1  -5   8  596.54   19.80
  -1  -5  -8  624.24   19.50
  -1   5  -8  645.24   20.00
   1   5   8  620.74   19.70
  -2  -5  -8  442.76   15.60
  -2  -5  -8  468.75   15.60
   2  -5   8  458.75   15.40
   2   5   8  469.65   15.80
  -2   5  -8  478.55   15.60
  -3  -5  -8   15.90    3.20
  -3  -5  -8   17.80    3.20
   3  -5   8   19.30    2.90
   3   5   8   11.30    3.10
  -3   5  -8   21.80    3.20
   4  -5   8   80.09    5.10
  -4  -5  -8   77.09    5.60
  -4  -5  -8   79.19    5.90
   4   5   8   80.59    5.90
  -4   5  -8   83.59    5.20
  -5  -5  -8   50.69    5.30
  -5  -5  -8   49.20    5.30
   5  -5   8   42.00    4.10
   5   5   8   46.30    5.10
  -5   5  -8   50.79    4.50
   6  -5   8    0.60    2.40
  -6  -5  -8    2.40    3.30
  -7  -5  -8    1.10    3.20
   7  -5   8   -2.20    2.40
   8  -5   8   98.79    6.40
  -8  -5  -8   92.29    8.50
  -9  -5  -8   12.20    4.70
   9  -5   8    9.90    3.40
 -10  -5  -8   19.50    5.50
 -11  -5  -8   12.30    5.00
 -12  -5  -8   27.10    6.50
 -12   5  -8   20.20    5.00
 -13  -5  -8    1.80    4.60
 -13   5  -8   13.50    4.80
 -14  -5  -8    8.40    6.00
 -14  -6   8  147.09   13.40
 -13  -6   8   -2.50    4.60
 -12  -6   8   46.40    7.70
 -11  -6   8    3.40    4.80
 -10  -6   8  102.09    9.60
 -10   6   8  109.89    5.90
  -9  -6   8  186.88   11.30
  -9   6   8  179.98    7.40
  -8  -6   8   49.30    6.40
  -8   6   8   47.50    3.40
  -8   6   8   47.00    3.40
  -7  -6   8   63.79    6.90
  -7   6   8   78.29    3.70
  -7   6   8   66.09    3.50
  -6  -6   8    9.40    3.80
  -6   6   8   17.90    1.60
  -5  -6   8   69.59    6.50
  -5   6   8   76.39    2.80
  -4  -6   8  328.47   13.30
  -4   6   8  313.07    9.30
  -3  -6   8  342.07   13.70
   3   6  -8  354.06   13.60
  -3   6   8  358.96   10.60
  -2  -6   8 2556.04   74.59
  -2   6   8 2637.04   72.09
   2   6  -8 2540.35   74.49
   1  -6  -8  260.17    8.30
  -1  -6   8  262.27   10.40
   1   6  -8  224.58    9.90
  -1   6   8  244.98    8.70
   0  -6  -8 1540.75   45.10
   0  -6   8 1625.44   46.50
   0  -6  -8 1547.85   45.10
   0   6   8 1604.04   45.50
   0   6  -8 1545.25   46.30
   1  -6   8  269.07   10.10
  -1  -6  -8  231.58    9.20
  -1  -6  -8  249.38    9.50
  -1   6  -8  240.48    9.70
   1   6   8  244.18    9.60
   2  -6   8 2682.63   75.89
  -2  -6  -8 2673.03   76.19
  -2  -6  -8 2651.03   75.99
   2   6   8 2669.33   76.19
  -2   6  -8 2624.04   75.89
  -3  -6  -8  346.07   13.40
  -3  -6  -8  368.76   13.40
   3  -6   8  366.76   12.80
  -3   6  -8  347.77   12.60
   3   6   8  352.76   13.50
   4  -6   8  301.27   11.40
  -4  -6  -8  315.17   12.50
  -4  -6  -8  321.37   12.80
   4   6   8  295.27   12.50
  -4   6  -8  319.97   11.70
  -5  -6  -8   71.69    6.60
   5  -6   8   73.99    5.00
  -5  -6  -8   87.89    6.30
  -6  -6  -8   14.20    4.10
   6  -6   8   17.00    3.10
  -7  -6  -8   64.99    7.00
   7  -6   8   76.99    5.40
   8  -6   8   56.19    5.00
  -8  -6  -8   36.60    6.10
  -9  -6  -8  213.68   12.40
   9  -6   8  196.78    9.40
 -10  -6  -8  113.39   10.50
 -11  -6  -8    2.50    4.40
 -12  -6  -8   61.49    8.70
 -12   6  -8   55.69    6.90
 -13  -6  -8   -3.30    5.50
 -14  -6  -8  120.09   12.30
 -13  -7   8   10.40    6.00
 -12  -7   8   11.10    5.40
 -11  -7   8    9.50    5.00
 -10  -7   8   16.80    5.50
 -10   7   8   22.30    2.90
  -9  -7   8   -1.50    3.80
  -9   7   8    0.20    1.50
  -9   7   8    1.30    1.80
  -8  -7   8  426.76   18.00
  -8   7   8  399.56   12.80
  -8   7   8  418.46   12.80
  -7  -7   8   28.50    5.40
  -7   7   8   26.90    1.90
  -7   7   8   28.10    2.00
  -6  -7   8  307.47   14.30
  -5  -7   8   12.40    4.00
  -4  -7   8  276.87   12.60
  -4   7   8  274.77    8.10
  -3  -7   8  172.08    8.90
  -3   7   8  175.78    6.00
  -2  -7   8  692.93   22.80
  -2   7   8  665.63   20.10
  -1  -7   8  192.08    9.10
   1  -7  -8  180.28    6.60
  -1   7   8  189.38    7.30
   0  -7   8    2.90    2.50
   0  -7  -8   -2.40    1.60
   0  -7  -8   -0.50    1.50
   0   7  -8    0.80    2.20
   0   7   8   -1.00    1.90
  -1  -7  -8  163.88    7.60
   1  -7   8  182.48    8.30
  -1  -7  -8  184.28    7.90
  -1   7  -8  185.38    8.30
   1   7   8  186.68    8.20
   2  -7   8  662.73   21.60
  -2  -7  -8  680.73   21.80
  -2  -7  -8  683.43   22.10
   2   7   8  671.03   22.00
  -2   7  -8  675.33   21.70
  -3  -7  -8  177.58    9.00
  -3  -7  -8  197.08    8.80
   3  -7   8  174.18    7.90
  -3   7  -8  174.48    8.00
   3   7   8  178.98    8.80
   4  -7   8  294.27   10.80
  -4  -7  -8  257.37   11.70
  -4  -7  -8  274.77   12.20
   5  -7   8   12.70    2.70
  -5  -7  -8   14.10    3.80
   6  -7   8  323.77   11.90
  -6  -7  -8  311.67   14.10
   7  -7   8   38.70    4.10
  -7  -7  -8   25.60    5.60
   8  -7   8  441.96   15.60
  -8  -7  -8  433.16   18.70
  -9  -7  -8    6.90    4.70
   9  -7   8    1.70    2.60
 -10  -7  -8   17.30    6.00
 -11  -7  -8    8.20    5.30
 -12  -7  -8    5.40    5.30
 -13  -7  -8    0.00    5.20
 -13  -8   8   11.80    5.90
 -12  -8   8    3.50    5.10
 -11  -8   8   40.40    7.50
 -10  -8   8   26.20    6.70
  -9  -8   8   17.90    5.30
  -9   8   8   10.00    1.70
  -8  -8   8   16.80    4.90
  -8   8   8   19.80    1.60
  -8   8   8   18.40    1.50
  -7  -8   8   62.69    7.30
  -6  -8   8    6.20    4.10
  -5  -8   8  187.98   10.40
  -4  -8   8   -2.20    3.00
  -3  -8   8  253.07   11.60
  -2  -8   8  173.48    8.90
   1  -8  -8   78.79    3.90
  -1  -8   8   89.49    6.10
   0  -8  -8    3.20    2.00
   0  -8  -8   -1.50    1.60
   0  -8   8    2.40    2.80
  -1  -8  -8   76.39    5.00
  -1  -8  -8   95.49    5.60
   1  -8   8   88.29    5.90
   2  -8   8  166.98    8.00
  -2  -8  -8  173.08    8.40
  -2  -8  -8  173.48    8.20
   3  -8   8  266.67   10.50
  -3  -8  -8  268.17   11.50
  -3  -8  -8  264.37   11.20
   4  -8   8   -1.90    2.10
  -4  -8  -8   -1.90    2.70
  -4  -8  -8   -7.30    2.10
  -5  -8  -8  179.68    9.90
   5  -8   8  176.28    7.80
   6  -8   8   20.20    3.10
  -6  -8  -8   25.00    5.20
   7  -8   8   73.79    5.00
  -7  -8  -8   52.59    6.90
   8  -8   8   18.60    3.20
  -8  -8  -8    8.80    4.80
  -9  -8  -8   15.10    5.30
 -10  -8  -8   28.90    6.90
 -11  -8  -8   44.00    7.80
 -12  -8  -8    2.20    5.10
 -13  -8  -8   10.60    6.80
 -12  -9   8    1.40    5.10
 -11  -9   8   13.30    5.70
 -10  -9   8  143.49   11.40
  -9  -9   8    5.20    5.20
  -8  -9   8  178.68   11.60
  -7  -9   8   43.50    6.50
  -6  -9   8  198.18   11.50
  -5  -9   8    2.70    3.90
  -4  -9   8  309.87   14.10
  -3  -9   8  399.36   16.00
  -2  -9   8  228.98   10.80
   1  -9  -8   33.70    2.70
  -1  -9   8   40.90    4.80
   0  -9   8    5.30    2.90
   0  -9  -8    2.00    1.90
   0  -9  -8    0.70    1.70
   1  -9   8   33.40    4.20
  -1  -9  -8   41.20    4.10
  -1  -9  -8   35.80    4.00
  -2  -9  -8  243.28   10.30
  -2  -9  -8  230.28   10.30
   2  -9   8  236.18   10.00
   3  -9   8  413.06   14.70
  -3  -9  -8  416.86   15.70
  -3  -9  -8  398.96   15.80
  -4  -9  -8  294.37   13.20
   4  -9   8  325.97   12.00
  -4  -9  -8  341.87   14.10
   5  -9   8    2.10    2.30
  -5  -9  -8    1.30    3.80
  -6  -9  -8  194.78   11.20
   6  -9   8  205.48    8.50
   7  -9   8   43.30    3.90
  -7  -9  -8   38.80    6.40
  -8  -9  -8  186.98   11.80
   8  -9   8  190.18    7.90
  -9  -9  -8    9.30    5.10
 -10  -9  -8  133.49   11.00
 -11  -9  -8    2.80    5.80
 -12  -9  -8    5.60    5.40
 -12 -10   8   87.09   11.40
 -11 -10   8    5.50    5.40
 -10 -10   8   87.59   10.20
  -9 -10   8   10.60    5.30
  -8 -10   8  100.39   10.00
  -7 -10   8   57.39    7.50
  -6 -10   8  113.19    9.10
  -5 -10   8   65.59    7.30
  -4 -10   8    6.70    3.90
  -3 -10   8  191.58   10.70
  -2 -10   8  111.59    7.60
  -1 -10   8  366.36   14.70
   1 -10  -8  352.66   11.50
   0 -10   8    6.10    3.20
   0 -10  -8   10.10    2.50
   0 -10  -8   10.20    2.40
  -1 -10  -8  359.86   13.40
   1 -10   8  355.46   13.90
  -1 -10  -8  359.06   13.20
  -2 -10  -8  119.99    7.10
  -2 -10  -8  124.99    7.40
   2 -10   8  114.09    7.00
  -3 -10  -8  229.98   10.70
   3 -10   8  208.28    9.40
  -3 -10  -8  239.88   10.90
  -4 -10  -8    6.40    3.70
  -4 -10  -8    8.80    3.90
   4 -10   8   11.50    2.80
   5 -10   8   60.59    4.70
  -5 -10  -8   57.29    6.70
  -6 -10  -8  128.79    9.30
   6 -10   8  130.39    6.40
   7 -10   8   49.20    4.00
  -7 -10  -8   55.79    7.20
  -8 -10  -8   93.99    9.40
   8 -10   8   98.89    4.90
  -9 -10  -8   22.40    5.90
 -10 -10  -8   82.69   10.00
 -11 -10  -8    4.60    5.80
 -12 -10  -8   76.99   10.60
 -11 -11   8   10.10    6.90
 -10 -11   8    8.50    6.30
  -9 -11   8   34.80    7.40
  -8 -11   8   22.30    6.30
  -7 -11   8  102.39    9.90
  -6 -11   8  247.88   13.50
  -5 -11   8   18.20    5.40
  -4 -11   8   -2.60    3.30
  -3 -11   8    3.30    4.00
  -2 -11   8   -0.80    3.40
   1 -11  -8   16.00    2.10
  -1 -11   8   26.00    4.80
   1 -11  -8   15.90    2.10
   0 -11   8   -1.40    3.00
   0 -11  -8   -2.20    1.70
   0 -11  -8    3.50    2.20
  -1 -11  -8   17.50    3.40
   1 -11   8   13.70    3.70
  -1 -11  -8   13.10    3.10
  -2 -11  -8    4.30    3.00
   2 -11   8    2.90    2.80
  -2 -11  -8    2.00    3.10
  -3 -11  -8    3.90    3.40
   3 -11   8    8.80    3.00
  -3 -11  -8    5.10    3.50
  -4 -11  -8    2.00    3.50
   4 -11   8   -0.70    2.40
  -5 -11  -8   10.00    4.50
   5 -11   8   13.30    2.80
  -6 -11  -8  267.17   13.60
   6 -11   8  258.87    9.60
  -7 -11  -8   91.69    9.40
   7 -11   8  110.99    4.90
  -8 -11  -8   21.90    5.90
  -9 -11  -8   33.50    7.00
 -10 -11  -8   14.10    5.90
 -11 -11  -8   12.00    6.20
 -11 -12   8   -3.00    5.10
 -10 -12   8   13.70    6.80
  -9 -12   8    1.30    5.00
  -8 -12   8    7.10    5.00
  -7 -12   8   -0.30    4.20
  -6 -12   8   69.19    8.30
  -5 -12   8   12.60    4.70
  -4 -12   8  199.78   11.90
  -3 -12   8    2.70    4.10
  -2 -12   8   45.60    5.90
   1 -12  -8  264.47    8.70
  -1 -12   8  264.37   12.50
   1 -12  -8  247.68    8.60
   0 -12  -8   -3.30    1.80
   0 -12  -8    1.60    2.20
   0 -12   8    6.40    3.50
  -1 -12  -8  247.58   10.60
   1 -12   8  247.28   11.30
  -1 -12  -8  240.58   10.40
  -2 -12  -8   45.60    5.50
   2 -12   8   38.40    4.70
  -2 -12  -8   47.40    5.40
   3 -12   8    8.00    3.10
  -3 -12  -8    5.60    3.50
   4 -12   8  184.28    8.40
  -4 -12  -8  187.28   10.70
  -5 -12  -8   10.70    4.10
   5 -12   8   12.00    2.70
  -6 -12  -8   46.20    6.70
   6 -12   8   55.29    3.60
  -7 -12  -8    1.90    4.00
  -8 -12  -8    7.10    5.00
  -9 -12  -8    3.10    5.50
 -10 -12  -8   18.10    6.60
 -11 -12  -8   -5.50    5.90
 -10 -13   8   12.30    7.20
  -9 -13   8   -1.30    5.50
  -8 -13   8  266.87   15.70
  -7 -13   8    4.50    5.30
  -6 -13   8    5.50    4.50
  -5 -13   8   19.70    5.50
  -4 -13   8  301.07   15.20
  -3 -13   8    4.10    4.20
  -2 -13   8   20.50    5.00
   1 -13  -8   25.20    2.20
  -1 -13   8   32.30    5.40
   1 -13  -8   29.30    2.30
   0 -13  -8    1.40    2.20
   0 -13   8   -4.10    2.90
   1 -13   8   25.10    4.50
  -1 -13  -8   27.40    4.20
  -2 -13  -8   16.40    4.00
   2 -13   8   28.60    4.40
  -3 -13  -8   12.50    4.10
   3 -13   8    5.20    3.00
   4 -13   8  295.47   11.40
  -4 -13  -8  304.97   14.30
   5 -13   8   12.80    2.50
  -5 -13  -8    8.90    4.10
  -6 -13  -8    6.80    4.90
  -7 -13  -8    2.50    4.00
  -8 -13  -8  256.67   14.90
  -9 -13  -8   -3.60    4.60
 -10 -13  -8   13.80    6.10
  -9 -14   8    6.20    5.90
  -8 -14   8    2.20    5.60
  -7 -14   8   12.30    5.60
  -6 -14   8    1.60    4.40
  -5 -14   8    0.50    4.80
  -4 -14   8   15.70    5.00
  -3 -14   8   92.69    8.90
  -2 -14   8  112.79    9.00
  -1 -14   8  190.78   10.80
   0 -14   8  667.83   23.70
   0 -14  -8  643.24   20.90
   1 -14   8  221.08   10.80
  -1 -14  -8  200.18    9.70
   2 -14   8  106.49    7.30
  -2 -14  -8  110.99    7.80
   3 -14   8  102.59    6.50
  -3 -14  -8   96.29    8.00
  -4 -14  -8   13.50    4.70
   4 -14   8   12.10    2.90
  -5 -14  -8    3.50    4.10
  -6 -14  -8   -4.80    3.80
  -7 -14  -8    3.90    5.20
  -8 -14  -8   -0.60    5.30
  -9 -14  -8   -1.80    5.70
  -7 -15   8   14.50    6.50
  -6 -15   8   24.70    6.30
  -5 -15   8   -3.00    4.60
  -4 -15   8   15.50    5.20
  -3 -15   8    6.40    4.60
  -2 -15   8   34.20    5.90
  -1 -15   8   33.20    5.60
   0 -15   8   -0.70    3.40
   0 -15  -8    1.60    2.30
  -1 -15  -8   37.50    4.70
   1 -15   8   38.50    5.50
   2 -15   8   30.10    4.80
  -2 -15  -8   29.00    4.80
   3 -15   8    6.10    3.00
  -3 -15  -8    7.30    4.10
   4 -15   8    7.30    2.50
  -4 -15  -8   14.00    4.90
  -5 -15  -8   -1.40    4.00
  -6 -15  -8   21.40    5.80
  -7 -15  -8   19.40    6.20
  -6 -16   8    5.00    5.10
  -5 -16   8   14.80    6.00
  -4 -16   8    8.10    4.80
  -3 -16   8    1.00    4.60
  -2 -16   8   73.59    8.20
  -1 -16   8   17.70    4.80
   0 -16   8   89.39    8.20
  -1 -16  -8   10.70    3.40
   1 -16   8   17.80    4.30
   2 -16   8   84.59    6.70
  -2 -16  -8   89.39    7.40
  -3 -16  -8    3.90    3.90
   3 -16   8    8.20    3.00
  -4 -16  -8   11.10    4.70
  -5 -16  -8    4.20    4.50
  -6 -16  -8    6.10    5.20
  -3 -17   8    2.00    4.50
  -2 -17   8    4.90    4.60
  -1 -17   8    0.90    3.80
   0 -17   8   -2.60    3.60
   1 -17   8    1.10    3.50
  -2 -17  -8    1.80    3.40
   2 -17   8    3.50    3.50
  -3 -17  -8    6.80    4.30
 -14   0   9    2.80    3.80
 -13   0   9   -0.60    3.20
 -12   0   9    1.10    3.90
 -11   0   9    3.10    3.60
 -10   0   9    1.60    3.40
  -9   0   9   -1.80    2.90
   9   0  -9    1.60    2.80
  -8   0   9   -2.00    2.60
   8   0  -9   -0.70    2.40
  -7   0   9    0.60    2.30
   7   0  -9    2.90    2.40
  -6   0   9    0.30    2.30
   6   0  -9    2.80    1.80
   5   0  -9    2.90    2.10
  -5   0   9    1.20    2.30
  -4   0   9    2.20    2.20
   4   0  -9   -0.20    1.90
   3   0  -9   -1.80    1.80
  -3   0   9   -3.10    1.70
   2   0  -9    3.30    1.80
  -2   0   9    2.70    2.10
   1   0  -9   -0.40    1.90
  -1   0   9   -3.80    1.70
  -1   0  -9    1.70    2.00
   1   0   9    0.10    2.00
  -2   0  -9    0.10    2.00
   2   0   9    0.10    2.10
   3   0   9    0.90    2.10
  -3   0  -9    2.70    2.20
   4   0   9   -2.40    2.10
  -4   0  -9   -1.60    1.90
  -5   0  -9   -0.50    2.20
   5   0   9    0.40    2.30
   6   0   9   -1.10    2.50
   7   0   9   -2.60    2.80
   8   0   9    1.10    3.00
   9   0   9    2.50    3.80
  -9   0  -9   -0.30    3.70
 -10   0  -9    4.90    4.00
 -11   0  -9   10.10    4.60
 -12   0  -9    2.60    4.50
 -13   0  -9   -6.60    3.80
 -14   0  -9    7.50    4.70
 -15   0  -9   -0.40    5.50
 -14  -1   9   11.70    5.10
 -14   1   9    2.90    4.30
 -13  -1   9    7.20    4.20
 -13   1   9    4.20    4.10
 -12  -1   9    0.80    4.00
 -12   1   9    0.50    3.30
 -11  -1   9  159.08   10.10
 -11   1   9  167.38    9.50
 -10  -1   9  148.79    9.30
 -10   1   9  146.89    8.60
  10   1  -9  151.18    8.90
  -9  -1   9  141.89    8.80
  -9   1   9  154.68    8.30
   9   1  -9  158.38    8.80
  -8  -1   9  121.39    7.70
   8  -1  -9  119.59    6.70
  -8   1   9  141.49    7.40
   8   1  -9  121.79    7.50
   7  -1  -9  113.99    6.20
  -7  -1   9  117.59    7.00
   7   1  -9  125.59    7.10
  -7   1   9  123.49    6.70
  -6  -1   9 1213.38   37.00
   6  -1  -9 1184.78   36.00
  -6   1   9 1217.58   36.30
   6   1  -9 1254.67   37.00
  -5  -1   9  219.18    9.10
   5  -1  -9  213.38    8.20
   5   1  -9  222.98    9.10
  -5   1   9  206.18    8.40
   4  -1  -9  282.77    9.90
  -4  -1   9  296.47   10.90
  -4   1   9  274.37   10.00
   4   1  -9  290.67   10.60
   3  -1  -9    8.60    1.90
  -3  -1   9    6.20    2.30
   3   1  -9    6.80    2.10
  -3   1   9    8.80    2.10
  -2  -1   9  401.36   13.50
   2  -1  -9  415.66   12.90
  -2   1   9  411.16   13.00
   2   1  -9  389.16   13.40
  -1  -1   9 3026.70   86.29
   1  -1  -9 3080.19   85.89
  -1   1   9 3040.90   85.89
   1   1  -9 3114.09   86.29
   0  -1   9   -2.30    2.00
   0  -1  -9   -0.30    1.90
   0   1  -9    1.00    2.00
   0   1   9    0.10    1.80
   1  -1   9 2962.30   84.29
  -1  -1  -9 2943.01   84.09
  -1   1  -9 3054.59   84.29
   1   1   9 2993.70   84.19
  -2  -1  -9  397.66   13.40
   2  -1   9  380.16   13.40
   2   1   9  400.86   13.50
  -2   1  -9  415.26   13.60
  -3  -1  -9    5.00    2.40
   3  -1   9    4.80    2.40
   3   1   9    6.70    2.60
  -3   1  -9    8.50    2.50
  -4  -1  -9  272.77   10.70
   4  -1   9  263.87   10.50
  -4   1  -9  287.67   10.60
   4   1   9  278.17   10.90
  -5  -1  -9  195.38    8.90
   5  -1   9  216.28    9.00
   5   1   9  190.18    9.00
  -5   1  -9  201.48    8.80
   6  -1   9 1144.59   36.10
   6   1   9 1213.28   36.80
   7  -1   9  137.39    8.00
   7   1   9  126.49    7.90
   8  -1   9  140.69    8.40
  -8  -1  -9  124.09    8.30
   8   1   9  139.09    8.40
  -9  -1  -9  154.88   10.10
   9  -1   9  153.78    9.10
 -10  -1  -9  141.59    9.70
 -10   1  -9  152.98    9.60
 -11  -1  -9  170.08   10.80
 -11   1  -9  167.58   10.90
 -12  -1  -9    7.50    4.80
 -12   1  -9    9.70    4.60
 -13  -1  -9    5.10    4.70
 -13   1  -9   11.70    4.80
 -14  -1  -9    6.90    5.00
 -14   1  -9    4.20    5.20
 -14  -2   9   22.20    5.80
 -13  -2   9    2.70    3.90
 -13   2   9   -7.50    3.00
 -12  -2   9   -0.80    3.50
 -12   2   9    1.30    3.40
 -11  -2   9   35.50    5.60
 -11   2   9   27.90    4.70
 -10  -2   9    7.10    3.80
 -10   2   9    7.70    3.20
  -9  -2   9   59.49    6.10
  -9   2   9   58.19    5.30
   9   2  -9   48.90    5.80
  -8  -2   9   18.20    3.90
  -8   2   9   15.20    3.10
   8   2  -9   17.20    4.00
  -7  -2   9  876.61   28.10
   7  -2  -9  834.22   26.00
  -7   2   9  879.11   26.60
   7   2  -9  846.42   27.70
  -6  -2   9   14.40    3.60
   6  -2  -9   14.50    2.30
   6   2  -9   21.10    3.50
  -6   2   9   10.60    2.50
   5  -2  -9 1532.35   45.40
  -5  -2   9 1571.44   47.20
   5   2  -9 1713.93   47.40
  -5   2   9 1556.14   45.80
  -4  -2   9  134.89    6.80
   4  -2  -9  130.69    5.30
  -4   2   9  126.99    5.60
   4   2  -9  133.69    6.60
  -3  -2   9   16.80    3.00
   3  -2  -9   17.40    1.90
   3   2  -9   15.90    2.80
  -3   2   9   16.80    2.20
   2  -2  -9   27.30    2.40
  -2  -2   9   26.70    3.50
  -2   2   9   34.70    2.80
   2   2  -9   29.80    3.30
  -1  -2   9   76.19    4.80
   1  -2  -9   68.89    3.90
  -1   2   9   77.89    4.20
   1   2  -9   80.89    4.90
   0  -2  -9 2144.59   60.29
   0  -2   9 2177.08   60.89
   0   2   9 2137.19   60.29
   0   2  -9 2054.19   60.69
   1  -2   9   72.49    4.70
  -1  -2  -9   71.99    4.30
   1   2   9   72.09    4.40
  -1   2  -9   78.09    4.70
   2  -2   9   30.70    3.40
  -2  -2  -9   28.90    3.20
   2   2   9   29.10    3.50
  -2   2  -9   30.90    3.30
   3  -2   9   22.60    3.00
  -3  -2  -9   16.20    2.90
   3   2   9   17.20    3.20
  -3   2  -9   16.10    2.80
   4  -2   9  118.19    6.30
  -4  -2  -9  140.89    6.90
  -4   2  -9  129.79    6.50
   4   2   9  133.79    7.00
   5  -2   9 1491.75   45.30
  -5  -2  -9 1515.65   45.80
   5   2   9 1556.14   46.10
  -5   2  -9 1566.14   45.50
   6  -2   9   18.40    3.30
   6   2   9   11.70    3.40
  -7  -2  -9  844.92   28.80
   7  -2   9  875.51   28.10
   7   2   9  880.51   28.80
  -8  -2  -9   17.10    4.40
   8  -2   9   13.30    3.80
   8   2   9   15.90    4.20
   9  -2   9   64.59    6.50
  -9  -2  -9   46.50    6.30
 -10  -2  -9    9.20    4.20
 -11  -2  -9   31.20    6.10
 -11   2  -9   36.20    6.00
 -12  -2  -9    4.80    4.70
 -12   2  -9    3.40    4.30
 -13  -2  -9    6.40    5.30
 -13   2  -9    0.70    3.80
 -14  -2  -9   12.00    5.70
 -14   2  -9   22.50    6.00
 -14  -3   9   13.60    6.00
 -13  -3   9   49.50    7.60
 -12  -3   9   26.70    5.90
 -12   3   9   26.30    4.70
 -11  -3   9    7.40    4.10
 -11   3   9    1.80    2.80
 -10  -3   9    9.30    4.10
 -10   3   9   10.10    3.20
  -9  -3   9   22.40    4.70
  -9   3   9   27.90    3.80
  -8  -3   9    3.60    3.30
   8   3  -9    7.80    3.60
  -8   3   9    1.80    2.20
  -7  -3   9  404.56   15.80
  -7   3   9  388.36   13.50
   7   3  -9  401.66   15.40
  -6  -3   9  112.89    7.10
  -6   3   9  114.69    5.40
   6   3  -9  107.19    6.80
  -5  -3   9  317.67   12.90
  -5   3   9  329.87   10.90
   5   3  -9  342.67   12.90
  -4  -3   9  720.93   23.50
  -4   3   9  707.93   21.40
   4   3  -9  744.23   23.40
  -3  -3   9    8.80    2.90
  -3   3   9    8.90    1.70
   3   3  -9    7.80    2.60
   2  -3  -9   65.29    3.20
  -2  -3   9   68.59    4.80
  -2   3   9   70.69    3.60
   2   3  -9   58.89    4.70
   1  -3  -9  131.19    5.20
  -1  -3   9  135.29    6.40
   1   3  -9  117.39    6.20
  -1   3   9  130.89    5.50
   0  -3   9   -3.10    2.00
   0  -3  -9   -3.50    1.70
   0   3   9   -3.00    1.70
   0   3  -9   -0.60    2.00
   1  -3   9  127.19    6.10
  -1  -3  -9  127.19    5.70
  -1   3  -9  125.89    6.10
   1   3   9  120.49    6.00
  -2  -3  -9   60.39    4.30
   2  -3   9   60.79    4.30
   2   3   9   65.19    4.90
  -2   3  -9   67.99    4.40
  -3  -3  -9   12.70    2.80
   3  -3   9   13.30    2.80
   3   3   9    9.30    2.80
  -3   3  -9   13.20    2.90
  -4  -3  -9  705.43   22.70
   4  -3   9  703.93   22.30
  -4   3  -9  698.43   22.30
   4   3   9  697.53   22.90
  -5  -3  -9  322.47   12.80
  -5  -3  -9  343.97   13.30
   5  -3   9  330.47   12.30
   5   3   9  319.47   13.00
  -5   3  -9  321.17   12.30
  -6  -3  -9  121.99    7.70
   6  -3   9  121.29    6.70
   6   3   9  113.49    7.70
   7  -3   9  407.46   15.30
  -7  -3  -9  407.86   16.40
   7   3   9  421.66   16.40
  -8  -3  -9    2.50    3.70
   8  -3   9    6.60    3.10
   8   3   9    3.30    3.40
   9  -3   9   28.00    4.50
  -9  -3  -9   24.70    5.20
 -10  -3  -9    6.40    4.20
 -11  -3  -9    2.70    4.20
 -11   3  -9    2.90    3.90
 -12  -3  -9   28.20    6.40
 -12   3  -9   27.60    5.40
 -13  -3  -9   49.50    7.90
 -13   3  -9   37.20    6.50
 -14  -3  -9    9.60    5.90
 -14   3  -9    8.30    4.70
 -14  -4   9    6.50    5.20
 -13  -4   9   -0.80    5.00
 -12  -4   9   41.60    7.20
 -12   4   9   29.10    4.60
 -11  -4   9   59.19    7.40
 -11   4   9   66.09    5.80
 -10  -4   9   11.30    4.80
 -10   4   9   10.00    2.90
  -9  -4   9   -3.10    3.30
  -9   4   9    3.20    2.30
  -8  -4   9   16.70    4.20
  -8   4   9    7.80    2.40
  -7  -4   9  168.48    9.60
  -7   4   9  186.08    7.30
  -6  -4   9  157.78    8.80
   6   4  -9  151.28    8.40
  -6   4   9  157.88    6.20
  -5  -4   9  999.20   32.90
  -5   4   9 1058.39   30.20
   5   4  -9 1084.59   33.20
  -4  -4   9  342.77   13.40
  -4   4   9  345.17   10.90
   4   4  -9  359.76   13.40
  -3  -4   9   -1.90    2.50
   3   4  -9    0.00    2.20
  -3   4   9   -0.90    1.20
  -2  -4   9  436.26   15.00
   2   4  -9  416.36   14.80
  -2   4   9  414.56   13.00
  -1  -4   9  168.48    8.00
   1  -4  -9  181.78    6.50
   1   4  -9  178.78    7.90
  -1   4   9  177.48    6.70
   0  -4   9 1637.04   48.00
   0  -4  -9 1673.13   47.00
   0   4   9 1621.44   47.10
   0   4  -9 1637.04   47.90
   1  -4   9  188.78    8.10
  -1  -4  -9  179.78    7.30
   1   4   9  176.58    7.50
  -1   4  -9  186.08    7.80
  -2  -4  -9  388.56   13.90
  -2  -4  -9  391.86   13.80
   2  -4   9  397.46   13.90
   2   4   9  415.56   14.00
  -2   4  -9  416.36   13.90
  -3  -4  -9    0.70    2.20
   3  -4   9    0.30    1.90
  -3  -4  -9   -2.50    2.20
   3   4   9    1.40    2.40
  -3   4  -9    1.80    2.30
   4  -4   9  353.16   12.70
  -4  -4  -9  367.56   13.40
  -4  -4  -9  337.47   13.40
  -4   4  -9  343.87   12.60
   4   4   9  340.97   13.40
   5  -4   9 1026.10   31.70
  -5  -4  -9 1105.99   33.20
  -5  -4  -9 1005.10   32.50
   5   4   9 1011.90   32.80
  -5   4  -9 1039.70   31.80
  -6  -4  -9  161.28    9.20
   6  -4   9  164.08    8.00
   6   4   9  172.68    9.20
   7  -4   9  177.68    8.70
  -7  -4  -9  185.38   10.10
   7   4   9  172.98    9.90
  -8  -4  -9   11.20    4.20
   8  -4   9    7.60    3.30
  -9  -4  -9    1.60    3.90
   9  -4   9   -2.20    3.00
 -10  -4  -9    5.40    4.60
 -11  -4  -9   64.69    8.20
 -12  -4  -9   25.80    6.40
 -12   4  -9   33.90    5.80
 -13  -4  -9    1.10    4.70
 -13   4  -9    3.70    4.50
 -14  -4  -9   28.40    7.10
 -14   4  -9   16.80    5.50
 -14  -5   9    3.40    5.00
 -13  -5   9  129.99   11.80
 -12  -5   9   27.00    6.10
 -11  -5   9   51.39    7.20
 -11   5   9   52.69    5.00
 -10  -5   9    5.10    4.00
 -10   5   9    6.70    2.50
  -9  -5   9  216.48   12.00
  -9   5   9  233.48    9.10
  -8  -5   9  282.17   13.30
  -8   5   9  276.17   10.00
  -7  -5   9  195.08   10.50
  -7   5   9  191.58    7.20
  -6  -5   9    6.00    3.50
  -6   5   9    6.40    1.60
  -5  -5   9   32.00    4.70
  -5   5   9   26.50    2.10
  -4  -5   9 1714.03   50.19
  -4   5   9 1665.53   46.60
   4   5  -9 1609.14   49.70
  -3  -5   9 1182.28   37.10
  -3   5   9 1204.18   34.30
   3   5  -9 1246.58   37.20
   2  -5  -9   63.19    2.50
  -2  -5   9   58.49    5.10
   2  -5  -9   60.09    2.40
   2   5  -9   60.69    4.90
  -2   5   9   61.29    3.30
   1  -5  -9 3889.91  107.49
   1  -5  -9 3846.02  107.59
  -1  -5   9 3873.81  109.49
  -1   5   9 3831.12  107.89
   1   5  -9 3916.21  109.59
   0  -5   9   -0.10    2.20
   0  -5  -9    0.00    1.60
   0  -5  -9   -1.50    1.50
   0   5  -9    0.70    2.30
   0   5   9    0.80    1.90
   1  -5   9 3816.52  108.89
  -1  -5  -9 3850.81  108.29
  -1  -5  -9 3910.91  108.49
   1   5   9 3854.71  108.49
  -1   5  -9 3860.31  108.79
  -2  -5  -9   67.09    5.10
   2  -5   9   45.70    4.40
  -2  -5  -9   61.39    4.40
   2   5   9   61.29    5.10
  -2   5  -9   67.59    4.60
   3  -5   9 1159.48   36.00
  -3  -5  -9 1200.48   36.80
  -3  -5  -9 1306.47   36.80
  -3   5  -9 1209.38   36.10
   3   5   9 1160.48   36.60
  -4  -5  -9 1707.13   49.40
   4  -5   9 1641.24   48.40
  -4  -5  -9 1649.13   49.50
   4   5   9 1628.94   49.40
  -4   5  -9 1627.54   48.40
  -5  -5  -9   22.00    4.20
  -5  -5  -9   36.50    4.50
   5  -5   9   21.90    3.40
   5   5   9   27.20    4.50
   6  -5   9    6.90    2.70
  -6  -5  -9    3.00    3.30
   6   5   9    2.00    3.30
   7  -5   9  199.38    9.20
  -7  -5  -9  201.68   10.90
  -8  -5  -9  285.17   14.00
   8  -5   9  300.57   12.30
   9  -5   9  247.28   11.00
  -9  -5  -9  212.58   12.50
 -10  -5  -9    2.80    4.80
 -11  -5  -9   45.20    7.40
 -12  -5  -9   32.80    6.80
 -12   5  -9   29.30    5.50
 -13  -5  -9  111.29   11.30
 -13   5  -9  111.19    9.90
 -14  -5  -9    4.70    6.40
 -14  -6   9    0.50    5.00
 -13  -6   9    4.60    5.00
 -12  -6   9   26.70    6.30
 -11  -6   9   51.19    7.30
 -10  -6   9   17.40    5.10
 -10   6   9   12.20    2.60
  -9  -6   9  122.29    9.40
  -9   6   9  119.39    5.80
  -8  -6   9   17.10    4.80
  -8   6   9   18.20    2.40
  -8   6   9   17.80    2.30
  -7  -6   9  309.27   14.00
  -7   6   9  278.47    9.40
  -6  -6   9    2.30    3.40
  -6   6   9    3.40    1.10
  -5  -6   9   89.29    7.00
  -5   6   9   84.79    3.30
  -4  -6   9  228.68   10.70
  -4   6   9  227.48    7.10
  -3  -6   9   59.39    5.60
  -3   6   9   59.09    2.90
  -2  -6   9   42.80    4.60
   2   6  -9   56.59    5.30
  -2   6   9   44.50    3.10
   1  -6  -9  659.23   19.50
  -1  -6   9  659.33   21.70
  -1   6   9  667.83   20.00
   1   6  -9  634.84   21.50
   0  -6   9   50.79    4.80
   0  -6  -9   51.99    3.70
   0  -6  -9   52.89    3.80
   0   6  -9   56.09    4.80
   0   6   9   43.80    3.80
   1  -6   9  640.04   21.60
  -1  -6  -9  665.03   21.10
  -1  -6  -9  662.23   21.20
  -1   6  -9  695.63   21.80
   1   6   9  701.23   21.50
   2  -6   9   44.30    4.30
  -2  -6  -9   48.60    4.40
  -2  -6  -9   49.00    4.40
  -2   6  -9   50.99    4.60
   2   6   9   42.80    4.50
  -3  -6  -9   60.39    5.20
   3  -6   9   67.79    4.90
  -3  -6  -9   57.99    5.40
   3   6   9   65.39    5.20
  -3   6  -9   60.19    4.50
  -4  -6  -9  215.28   10.00
   4  -6   9  223.18    9.30
  -4  -6  -9  231.98   10.50
   4   6   9  233.48   10.50
  -5  -6  -9   77.59    6.50
   5  -6   9   93.69    5.80
   5   6   9   79.29    6.70
  -6  -6  -9    2.30    3.30
   6  -6   9    1.00    2.30
  -7  -6  -9  267.87   13.50
   7  -6   9  312.57   12.00
  -8  -6  -9   17.60    5.00
   8  -6   9   20.50    3.60
  -9  -6  -9  112.59   10.20
   9  -6   9  121.49    7.40
 -10  -6  -9   18.60    5.50
 -11  -6  -9   63.19    8.60
 -12  -6  -9   15.20    6.40
 -13  -6  -9    2.80    5.40
 -14  -6  -9   -2.70    5.40
 -13  -7   9   16.60    6.00
 -12  -7   9  134.79   11.20
 -11  -7   9   19.90    5.80
 -10  -7   9   14.70    5.30
  -9  -7   9   83.19    8.80
  -9   7   9   79.09    4.30
  -8  -7   9  378.56   17.10
  -8   7   9  376.96   11.60
  -8   7   9  357.76   11.60
  -7  -7   9   30.40    5.60
  -7   7   9   37.90    2.30
  -7   7   9   40.90    2.30
  -6  -7   9   35.60    5.60
  -6   7   9   44.80    1.90
  -5  -7   9   99.19    7.50
  -4  -7   9 1200.98   37.80
  -4   7   9 1177.48   33.30
  -3  -7   9  137.59    8.20
  -3   7   9  154.38    5.50
  -2  -7   9   39.30    4.90
  -2   7   9   31.30    2.70
  -1  -7   9  769.72   25.30
   1  -7  -9  774.12   22.80
  -1   7   9  785.02   23.50
   0  -7  -9    0.60    1.60
   0  -7  -9   -0.50    1.70
   0  -7   9   -0.70    2.60
   0   7   9   -1.90    1.90
   1  -7   9  775.02   24.70
  -1  -7  -9  779.32   24.20
  -1  -7  -9  740.23   23.90
   1   7   9  785.62   24.40
   2  -7   9   31.50    4.00
  -2  -7  -9   34.00    3.80
  -2  -7  -9   30.60    4.10
   2   7   9   35.60    4.30
  -3  -7  -9  135.69    8.10
   3  -7   9  158.08    7.50
  -3  -7  -9  170.88    8.10
   3   7   9  147.69    8.30
   4  -7   9 1213.78   35.40
  -4  -7  -9 1114.89   36.20
  -4  -7  -9 1150.48   36.70
   4   7   9 1179.38   36.90
   5  -7   9   97.39    5.80
  -5  -7  -9   87.29    7.00
  -6  -7  -9   46.00    6.00
   6  -7   9   42.70    4.30
   7  -7   9   40.80    4.40
  -7  -7  -9   37.80    5.90
  -8  -7  -9  394.66   17.60
   8  -7   9  402.86   14.80
  -9  -7  -9   75.09    8.50
   9  -7   9   87.09    6.20
 -10  -7  -9   -2.40    4.40
 -11  -7  -9   33.10    6.90
 -12  -7  -9   92.39   10.40
 -13  -7  -9   16.30    6.60
 -13  -8   9   24.60    7.50
 -12  -8   9   86.29   10.20
 -11  -8   9   35.50    7.00
 -10  -8   9   36.40    7.00
  -9  -8   9  176.38   11.60
  -8  -8   9   -3.30    3.60
  -8   8   9    1.70    0.80
  -8   8   9    0.40    0.90
  -7  -8   9  122.49    9.30
  -6  -8   9   16.20    4.70
  -5  -8   9  597.24   22.20
  -4  -8   9   86.99    7.00
  -3  -8   9  443.76   17.30
  -3   8   9  464.95   14.00
  -2  -8   9  336.57   13.90
  -2   8   9  336.07   11.20
  -1  -8   9   -5.40    2.40
   1  -8  -9   -0.10    0.40
   1  -8  -9    0.10    1.40
  -1   8   9    0.20    1.80
   0  -8   9   37.30    4.40
   0  -8  -9   40.40    3.50
   0  -8  -9   38.30    3.50
   0   8   9   38.60    3.80
   1  -8   9   -3.20    2.20
  -1  -8  -9    1.80    2.40
  -1  -8  -9   -1.50    1.80
   1   8   9   -1.00    2.10
   2  -8   9  321.87   12.40
  -2  -8  -9  320.87   12.70
  -2  -8  -9  323.17   12.40
   2   8   9  323.87   12.70
  -3  -8  -9  463.85   16.90
  -3  -8  -9  472.65   17.20
   3  -8   9  470.85   16.40
  -4  -8  -9   76.49    6.30
   4  -8   9   99.39    6.00
  -4  -8  -9  102.19    7.50
   5  -8   9  585.74   19.30
  -5  -8  -9  577.64   21.60
  -6  -8  -9    9.80    4.20
   6  -8   9    6.60    2.80
   7  -8   9  135.89    7.10
  -7  -8  -9  125.19    9.40
  -8  -8  -9   -0.70    4.00
   8  -8   9    0.30    2.40
   9  -8   9  188.48    8.70
  -9  -8  -9  187.58   12.20
 -10  -8  -9   34.70    6.80
 -11  -8  -9   43.60    7.90
 -12  -8  -9   99.49   11.20
 -13  -8  -9   19.60    7.00
 -12  -9   9   14.20    6.20
 -11  -9   9   85.99   10.00
 -10  -9   9   88.39   10.00
  -9  -9   9    6.30    4.80
  -8  -9   9    3.40    4.30
  -7  -9   9   39.50    6.40
  -6  -9   9   98.09    9.00
  -5  -9   9  756.32   27.00
  -4  -9   9  185.58   10.70
  -3  -9   9  331.17   14.30
  -2  -9   9    8.50    3.40
   1  -9  -9   35.30    2.70
  -1  -9   9   31.70    4.80
   0  -9  -9   -1.30    1.70
   0  -9   9    3.60    3.00
   0  -9  -9   -1.10    1.80
   1  -9   9   34.20    4.50
  -1  -9  -9   39.90    4.00
  -1  -9  -9   36.70    4.10
   2  -9   9    9.00    3.00
  -2  -9  -9   13.60    3.30
  -2  -9  -9    9.60    3.10
  -3  -9  -9  313.07   13.00
  -3  -9  -9  328.67   13.10
   3  -9   9  293.07   12.00
  -4  -9  -9  202.88   10.60
   4  -9   9  197.58    8.60
  -4  -9  -9  169.38    9.50
  -5  -9  -9  746.43   26.40
   5  -9   9  730.73   23.50
  -6  -9  -9   98.99    8.40
   6  -9   9  115.19    6.40
  -7  -9  -9   35.70    6.10
   7  -9   9   39.80    4.10
   8  -9   9    4.70    2.50
  -8  -9  -9    2.80    4.50
  -9  -9  -9   -1.30    4.90
 -10  -9  -9   60.19    8.60
 -11  -9  -9   99.69   10.80
 -12  -9  -9   21.80    6.80
 -12 -10   9    4.10    6.40
 -11 -10   9   42.80    8.20
 -10 -10   9    9.50    5.60
  -9 -10   9    7.40    5.00
  -8 -10   9   -4.30    3.90
  -7 -10   9  127.89   10.10
  -6 -10   9   95.69    9.10
  -5 -10   9  166.48   10.40
  -4 -10   9   18.40    4.80
  -3 -10   9    9.20    4.30
  -2 -10   9   48.30    5.80
   1 -10  -9   94.69    4.50
  -1 -10   9  129.69    7.80
   1 -10  -9  132.29    5.00
   0 -10  -9    3.60    2.10
   0 -10   9    3.60    3.20
   0 -10  -9    5.00    2.20
  -1 -10  -9  146.99    7.50
   1 -10   9  141.59    7.80
  -1 -10  -9  139.59    7.30
   2 -10   9   47.40    5.00
  -2 -10  -9   55.49    5.30
  -2 -10  -9   47.00    5.10
   3 -10   9   18.20    3.60
  -3 -10  -9   12.90    4.00
  -3 -10  -9   15.60    3.90
   4 -10   9   22.60    3.60
  -4 -10  -9   27.40    5.00
  -4 -10  -9   25.60    4.80
  -5 -10  -9  192.48   11.20
   5 -10   9  190.48    8.60
  -6 -10  -9   88.59    8.50
   6 -10   9   82.89    5.50
   7 -10   9  144.49    6.90
  -7 -10  -9  136.59   10.10
   8 -10   9    1.80    2.10
  -8 -10  -9   -2.10    4.00
  -9 -10  -9    6.60    5.00
 -10 -10  -9   19.90    6.40
 -11 -10  -9   26.50    8.90
 -12 -10  -9   -0.70    5.40
 -11 -11   9   65.29   10.00
 -10 -11   9  109.69   11.70
  -9 -11   9   36.10    7.40
  -8 -11   9   50.69    7.80
  -7 -11   9   56.89    7.70
  -6 -11   9  386.66   18.10
  -5 -11   9  137.89    9.90
  -4 -11   9   12.30    4.60
  -3 -11   9  222.78   11.60
  -2 -11   9  106.39    7.80
   1 -11  -9  452.05   14.00
  -1 -11   9  486.35   18.10
   1 -11  -9  435.06   13.90
   0 -11   9   -4.00    2.90
   0 -11  -9   -0.60    1.80
   0 -11  -9    2.10    2.10
  -1 -11  -9  452.55   16.40
  -1 -11  -9  471.05   16.60
   1 -11   9  479.25   17.50
  -2 -11  -9  108.09    7.10
   2 -11   9  108.09    7.10
  -2 -11  -9  107.29    7.00
  -3 -11  -9  238.08   11.30
  -3 -11  -9  217.78   11.10
   3 -11   9  243.78   10.30
   4 -11   9   13.60    3.20
  -4 -11  -9   16.80    4.60
  -5 -11  -9  147.09    9.60
   5 -11   9  154.28    7.50
  -6 -11  -9  375.26   17.00
   6 -11   9  379.16   13.30
  -7 -11  -9   68.09    8.10
   7 -11   9   68.39    4.50
   8 -11   9   47.00    3.40
  -8 -11  -9   54.09    7.80
  -9 -11  -9   43.60    7.90
 -10 -11  -9   79.39    9.90
 -11 -11  -9   90.99   11.20
 -10 -12   9   15.30    7.00
  -9 -12   9   63.69    9.10
  -8 -12   9   14.20    5.80
  -7 -12   9  121.59   11.10
  -6 -12   9    8.40    5.10
  -5 -12   9   55.19    7.30
  -4 -12   9   42.20    6.70
  -3 -12   9  346.27   15.90
  -2 -12   9   26.40    5.30
  -1 -12   9   16.90    4.50
   1 -12  -9    9.40    1.70
   1 -12  -9   13.00    1.90
   0 -12   9   11.50    3.90
   0 -12  -9    7.90    2.50
   0 -12  -9    7.20    2.40
  -1 -12  -9   14.70    3.30
   1 -12   9   15.60    3.90
  -1 -12  -9   10.50    3.10
   2 -12   9   19.00    3.90
  -2 -12  -9   22.60    4.40
   3 -12   9  350.96   13.60
  -3 -12  -9  335.57   14.60
  -4 -12  -9   34.90    5.70
   4 -12   9   42.90    4.50
  -5 -12  -9   49.20    6.50
   5 -12   9   55.79    4.70
   6 -12   9    9.70    2.50
  -6 -12  -9   13.20    4.70
  -7 -12  -9  122.49    9.80
   7 -12   9  116.09    5.10
  -8 -12  -9    9.50    5.20
  -9 -12  -9   63.99    8.90
 -10 -12  -9   19.90    6.90
 -10 -13   9    0.80    6.10
  -9 -13   9   34.60    7.80
  -8 -13   9   38.70    7.60
  -7 -13   9   10.10    6.00
  -6 -13   9   16.40    5.30
  -5 -13   9   12.10    5.00
  -4 -13   9   84.39    8.60
  -3 -13   9   58.69    7.50
  -2 -13   9   18.40    4.70
  -1 -13   9   82.59    7.70
   1 -13  -9   83.39    3.40
   1 -13  -9   76.69    3.40
   0 -13   9    6.10    3.80
   0 -13  -9    0.10    2.10
  -1 -13  -9   82.69    6.30
   1 -13   9   91.79    7.10
  -2 -13  -9   16.90    3.80
   2 -13   9   14.10    3.90
   3 -13   9   61.29    5.70
  -3 -13  -9   57.19    6.40
   4 -13   9   72.99    5.60
  -4 -13  -9   85.39    8.00
   5 -13   9   16.60    3.00
  -5 -13  -9   15.40    4.60
  -6 -13  -9   11.80    5.00
   6 -13   9   10.50    2.20
  -7 -13  -9   20.60    5.80
  -8 -13  -9   48.80    8.00
  -9 -13  -9   16.00    6.00
 -10 -13  -9    5.30    5.50
  -8 -14   9   -0.30    4.90
  -7 -14   9    8.20    5.30
  -6 -14   9   13.90    5.40
  -5 -14   9  146.39   11.40
  -4 -14   9   14.70    5.10
  -3 -14   9    0.50    3.90
  -2 -14   9  180.78   11.20
  -1 -14   9   -0.30    3.60
   0 -14   9   39.60    5.60
   0 -14  -9   27.10    3.60
   1 -14   9    4.40    3.60
  -1 -14  -9   -0.40    2.70
   2 -14   9  177.28    9.60
  -2 -14  -9  167.58    9.40
  -3 -14  -9    1.50    3.30
   3 -14   9    2.90    2.90
   4 -14   9   12.80    3.10
  -4 -14  -9   12.10    4.50
   5 -14   9  125.19    6.10
  -5 -14  -9  131.39   10.00
  -6 -14  -9   15.40    5.70
  -7 -14  -9    3.20    4.70
  -8 -14  -9    6.30    5.70
  -7 -15   9   12.00    5.90
  -6 -15   9    3.60    5.40
  -5 -15   9    0.80    4.40
  -4 -15   9  110.59   10.40
  -3 -15   9  160.68   11.30
  -2 -15   9    7.90    4.40
  -1 -15   9  125.79    9.30
   0 -15  -9   -0.60    2.00
   0 -15   9   -6.10    3.00
   1 -15   9  108.29    8.30
  -1 -15  -9  119.19    7.30
   2 -15   9   14.50    4.10
  -2 -15  -9   12.80    3.90
  -3 -15  -9  160.08    9.90
   3 -15   9  143.09    8.30
   4 -15   9   97.79    6.00
  -4 -15  -9   94.19    8.60
  -5 -15  -9   -0.60    4.10
  -6 -15  -9    0.40    4.50
  -7 -15  -9   17.40    6.20
  -6 -16   9   -3.10    5.50
  -5 -16   9    1.20    4.50
  -4 -16   9    3.50    4.90
  -3 -16   9   -2.00    4.40
  -2 -16   9   21.70    5.80
  -1 -16   9   32.10    5.90
   0 -16   9   -2.50    4.00
   1 -16   9   29.90    5.30
  -1 -16  -9   29.40    4.20
  -2 -16  -9   20.10    4.50
   2 -16   9   29.50    4.80
   3 -16   9   -2.20    2.70
  -3 -16  -9   -2.00    3.40
  -4 -16  -9   -4.60    3.90
  -5 -16  -9    6.90    4.80
  -6 -16  -9   -4.80    4.10
  -3 -17   9    5.00    4.80
  -2 -17   9   -4.40    4.10
  -1 -17   9   37.90    6.40
   0 -17   9    4.30    4.20
   1 -17   9   48.40    6.10
   2 -17   9    3.00    3.30
  -2 -17  -9   -1.60    3.30
  -3 -17  -9    4.00    4.10
 -14   0  10   70.39    8.50
 -13   0  10    1.10    3.90
 -12   0  10   -2.20    3.60
 -11   0  10  123.79    8.20
 -10   0  10  340.27   14.40
  -9   0  10  606.44   21.40
   9   0 -10  610.04   21.00
   8   0 -10  118.59    6.90
  -8   0  10  115.09    7.20
  -7   0  10  453.85   16.40
   7   0 -10  466.45   16.20
  -6   0  10  149.88    7.30
   6   0 -10  147.09    7.20
  -5   0  10  278.67   10.70
   5   0 -10  276.67   10.50
   4   0 -10   32.10    3.40
  -4   0  10   36.70    3.70
  -3   0  10   31.10    3.20
   3   0 -10   29.60    3.20
   2   0 -10  300.27   10.50
  -2   0  10  294.17   10.50
   1   0 -10  976.20   28.60
  -1   0  10  936.51   28.50
   0   0  10    4.00    2.40
   0   0 -10    4.70    2.40
   1   0  10  959.30   28.70
  -1   0 -10  941.11   28.50
   2   0  10  306.67   11.10
  -2   0 -10  294.57   10.90
   3   0  10   25.30    3.50
  -3   0 -10   34.80    3.70
  -4   0 -10   24.80    3.40
   4   0  10   30.70    3.80
   5   0  10  256.27   10.80
  -5   0 -10  263.07   10.80
   6   0  10  138.99    7.70
   7   0  10  393.76   15.40
   8   0  10  116.89    7.80
   9   0  10  595.04   21.90
 -10   0 -10  322.47   15.00
 -11   0 -10  112.09    9.00
 -12   0 -10    2.10    4.20
 -13   0 -10   -2.20    3.80
 -14   0 -10   53.29    8.40
 -14  -1  10   -1.70    3.90
 -14   1  10    2.10    4.10
 -13  -1  10   93.29    9.10
 -13   1  10   84.79    8.30
 -12  -1  10   19.50    5.10
 -12   1  10   11.10    4.30
 -11  -1  10  191.58   10.80
 -11   1  10  210.58   10.60
 -10  -1  10   99.89    7.40
  10   1 -10   86.19    7.10
 -10   1  10   87.39    6.90
  -9  -1  10  259.57   12.00
   9   1 -10  238.28   11.30
  -9   1  10  250.37   11.20
   8  -1 -10   47.90    4.50
  -8  -1  10   52.19    5.30
   8   1 -10   54.59    5.60
  -8   1  10   54.89    5.10
  -7  -1  10  138.09    7.50
   7  -1 -10  121.69    6.50
  -7   1  10  134.89    6.80
   7   1 -10  143.09    7.40
  -6  -1  10   57.69    5.30
   6  -1 -10   57.79    4.20
  -6   1  10   59.59    4.60
   6   1 -10   50.99    4.80
  -5  -1  10    4.50    2.50
   5  -1 -10    5.80    2.10
   5   1 -10    4.10    2.50
  -5   1  10    1.10    2.00
   4  -1 -10   29.20    2.90
  -4  -1  10   23.60    3.50
   4   1 -10   25.80    3.30
  -4   1  10   21.60    2.90
   3  -1 -10  421.86   13.60
  -3  -1  10  435.06   14.40
  -3   1  10  434.16   13.90
   3   1 -10  399.66   14.10
  -2  -1  10 1813.42   52.59
   2  -1 -10 1803.22   51.99
  -2   1  10 1868.01   52.19
   2   1 -10 1817.02   52.59
  -1  -1  10 1076.69   32.10
   1  -1 -10 1095.49   31.70
   1   1 -10 1088.49   32.00
  -1   1  10 1051.79   31.60
   0  -1 -10   -3.10    2.00
   0  -1  10   -2.30    2.10
   0   1 -10    1.20    2.10
   0   1  10    0.80    2.00
  -1  -1 -10 1078.69   32.30
   1  -1  10 1095.19   32.50
  -1   1 -10 1058.19   32.40
   1   1  10 1129.09   32.50
   2  -1  10 1726.03   50.99
  -2  -1 -10 1761.02   50.99
  -2   1 -10 1761.62   50.99
   2   1  10 1792.82   51.09
  -3  -1 -10  424.06   14.30
   3  -1  10  400.56   14.20
   3   1  10  417.06   14.40
  -3   1 -10  394.86   14.10
   4  -1  10   27.90    3.50
  -4  -1 -10   28.40    3.70
   4   1  10   29.50    3.90
  -4   1 -10   22.40    3.40
  -5  -1 -10    7.40    2.80
   5  -1  10    2.60    2.60
   5   1  10    7.50    3.00
  -5   1 -10    0.70    2.50
   6  -1  10   49.80    5.10
   6   1  10   52.09    5.30
   7  -1  10  136.69    7.80
   7   1  10  124.49    7.90
   8  -1  10   45.70    5.40
   8   1  10   46.30    5.60
  -9  -1 -10  244.18   12.60
   9  -1  10  267.47   12.70
   9   1  10  262.77   12.70
  10  -1  10  105.49    8.00
 -10  -1 -10   91.99    8.60
 -10   1 -10   91.69    8.30
 -11  -1 -10  193.78   11.70
 -11   1 -10  199.88   11.90
 -12  -1 -10   18.10    5.90
 -12   1 -10   25.70    5.60
 -13  -1 -10   90.69    9.90
 -13   1 -10   79.99    8.90
 -14  -1 -10   -9.10    4.70
 -14   1 -10    4.00    4.80
 -14  -2  10   18.50    5.50
 -13  -2  10   16.80    5.30
 -13   2  10   13.20    4.60
 -12  -2  10    0.00    4.10
 -12   2  10    4.50    3.60
 -11  -2  10   23.40    5.10
 -11   2  10   21.50    4.30
 -10  -2  10    1.30    3.80
 -10   2  10   -1.30    2.70
  -9  -2  10   88.89    7.70
   9   2 -10   76.19    7.00
  -9   2  10   77.19    5.80
  -8  -2  10  275.67   12.30
  -8   2  10  297.87   11.20
   8   2 -10  265.77   12.10
   7  -2 -10    4.80    2.00
  -7  -2  10    4.10    3.00
  -7   2  10    4.80    2.40
   7   2 -10    3.40    3.00
   6  -2 -10  229.38    9.00
  -6  -2  10  262.87   10.90
  -6   2  10  265.07    9.60
   6   2 -10  256.37   10.80
  -5  -2  10   12.00    3.20
   5  -2 -10   12.30    2.10
  -5   2  10   12.90    2.40
   5   2 -10   10.40    2.90
  -4  -2  10  228.78    9.80
   4  -2 -10  247.18    8.50
  -4   2  10  248.48    8.80
   4   2 -10  236.98    9.80
  -3  -2  10   28.80    3.60
   3  -2 -10   34.70    2.90
   3   2 -10   40.10    3.90
  -3   2  10   40.50    3.20
  -2  -2  10  621.64   19.80
   2  -2 -10  612.74   18.70
  -2   2  10  613.34   18.90
   2   2 -10  627.34   19.80
   1  -2 -10 1465.25   42.30
  -1  -2  10 1427.56   43.00
   1   2 -10 1511.95   43.10
  -1   2  10 1489.35   42.40
   0  -2 -10 2284.87   65.29
   0  -2  10 2443.16   65.99
   0   2  10 2272.47   65.39
   0   2 -10 2221.68   65.79
  -1  -2 -10 1404.06   41.20
   1  -2  10 1362.16   41.50
   1   2  10 1447.26   41.30
  -1   2 -10 1447.86   41.50
   2  -2  10  547.95   19.10
  -2  -2 -10  613.64   19.20
   2   2  10  620.84   19.40
  -2   2 -10  618.34   19.40
   3  -2  10   27.90    3.50
  -3  -2 -10   31.70    3.70
  -3   2 -10   34.40    3.70
   3   2  10   37.70    4.20
  -4  -2 -10  243.48   10.10
   4  -2  10  229.78    9.70
  -4   2 -10  251.37    9.80
   4   2  10  241.38   10.20
  -5  -2 -10   11.60    3.00
   5  -2  10    8.50    3.10
  -5   2 -10   10.40    2.80
   5   2  10   14.10    3.50
   6  -2  10  269.07   10.90
   6   2  10  237.48   11.20
  -7  -2 -10    7.40    3.60
   7  -2  10    0.60    3.20
   7   2  10    5.90    3.40
  -8  -2 -10  302.47   13.60
   8  -2  10  287.87   12.50
   8   2  10  287.57   13.20
   9  -2  10   81.49    6.80
  -9  -2 -10   93.39    8.40
   9   2  10   79.29    7.60
 -10  -2 -10   -1.80    3.60
  10  -2  10   -1.40    3.00
 -11  -2 -10   25.80    5.80
 -11   2 -10   29.60    5.70
 -12  -2 -10   10.20    5.10
 -12   2 -10   -1.80    4.20
 -13  -2 -10   19.70    5.80
 -13   2 -10   17.30    5.20
 -14  -2 -10   19.80    6.60
 -14   2 -10   16.60    6.00
 -14  -3  10   -4.50    3.90
 -13  -3  10   45.30    7.00
 -12  -3  10   -1.80    3.60
 -12   3  10   -3.70    3.00
 -11  -3  10  124.09    9.60
 -11   3  10  129.39    7.80
 -10  -3  10   -0.80    3.50
 -10   3  10    2.10    2.80
  -9  -3  10   -2.30    3.50
  -9   3  10    2.10    2.50
  -8  -3  10  129.89    8.30
   8   3 -10  111.39    8.80
  -8   3  10  138.89    6.80
  -7  -3  10   28.70    4.50
  -7   3  10   24.80    3.20
   7   3 -10   24.90    4.20
  -6  -3  10   27.50    4.60
  -6   3  10   30.40    3.10
   6   3 -10   21.20    4.10
  -5  -3  10 1490.75   45.70
  -5   3  10 1508.75   43.60
   5   3 -10 1559.34   45.80
  -4  -3  10  285.07   11.40
  -4   3  10  283.37    9.60
   4   3 -10  273.07   11.20
  -3  -3  10 1191.48   35.30
   3   3 -10 1159.08   35.10
  -3   3  10 1125.69   33.30
  -2  -3  10  194.58    8.40
   2  -3 -10  193.58    6.80
   2   3 -10  185.98    8.30
  -2   3  10  191.18    7.00
   1  -3 -10 1661.63   48.00
  -1  -3  10 1718.83   49.40
   1   3 -10 1687.53   49.30
  -1   3  10 1688.93   48.20
   0  -3  10    3.50    2.30
   0  -3 -10   -0.80    1.80
   0   3  10    0.20    1.70
   0   3 -10   -0.70    2.10
  -1  -3 -10 1701.73   47.70
   1  -3  10 1580.44   48.00
   1   3  10 1650.53   47.70
  -1   3 -10 1656.13   48.00
   2  -3  10  173.58    7.90
  -2  -3 -10  183.18    7.70
   2   3  10  180.48    7.80
  -2   3 -10  180.98    7.80
  -3  -3 -10 1167.48   34.10
   3  -3  10 1070.49   33.70
  -3   3 -10 1139.79   33.80
   3   3  10 1101.99   34.00
  -4  -3 -10  264.47   10.90
   4  -3  10  274.57   10.60
   4   3  10  280.87   11.20
  -4   3 -10  260.17   10.50
   5  -3  10 1484.15   44.80
  -5  -3 -10 1530.85   45.50
   5   3  10 1511.75   45.60
  -5   3 -10 1490.55   44.70
  -6  -3 -10   29.20    4.70
   6  -3  10   26.70    3.90
   6   3  10   18.30    4.10
  -7  -3 -10   26.60    4.80
   7  -3  10   25.40    4.00
   7   3  10   28.70    4.80
  -8  -3 -10  113.59    8.40
   8  -3  10  112.19    7.20
   8   3  10  119.39    8.30
  -9  -3 -10   -0.60    3.70
   9  -3  10   -2.10    3.10
 -10  -3 -10    1.10    4.00
  10  -3  10   -1.60    3.20
 -11  -3 -10  110.79   10.00
 -12  -3 -10    0.20    4.70
 -12   3 -10    1.80    4.20
 -13  -3 -10   37.70    7.50
 -13   3 -10   47.30    7.10
 -14  -3 -10   -0.40    5.50
 -14   3 -10   -0.90    4.50
 -14  -4  10   16.70    5.80
 -13  -4  10   17.20    5.90
 -12  -4  10   12.60    5.00
 -12   4  10   19.90    4.00
 -11  -4  10  142.19   10.60
 -11   4  10  158.58    8.30
 -10  -4  10    7.90    4.10
 -10   4  10   17.10    3.30
  -9  -4  10  149.99    9.90
  -9   4  10  136.49    7.00
  -8   4  10   12.30    2.50
  -7  -4  10  201.48   10.40
  -7   4  10  200.68    7.90
  -6  -4  10   67.79    6.40
  -6   4  10   79.49    4.20
   6   4 -10   76.19    6.60
  -5  -4  10  967.90   30.80
   5   4 -10  963.10   30.60
  -5   4  10  946.81   27.90
  -4  -4  10  163.18    8.50
  -4   4  10  179.68    6.40
   4   4 -10  180.88    8.60
   3  -4 -10    9.10    1.10
  -3  -4  10   11.80    3.10
   3   4 -10    7.00    2.80
  -3   4  10    9.50    1.70
  -2  -4  10  783.02   24.70
   2   4 -10  765.72   24.50
  -2   4  10  767.02   22.80
  -1  -4  10 2308.77   66.89
   1  -4 -10 2297.37   65.19
  -1   4  10 2365.16   65.49
   1   4 -10 2308.17   66.79
   0  -4  10   40.40    4.10
   0  -4 -10   36.90    3.10
   0   4  10   33.50    3.20
   0   4 -10   35.30    3.90
  -1  -4 -10 2331.77   65.29
   1  -4  10 2284.37   65.89
   1   4  10 2299.77   65.39
  -1   4 -10 2235.78   65.69
  -2  -4 -10  754.82   23.90
   2  -4  10  755.92   24.10
   2   4  10  755.22   24.00
  -2   4 -10  796.22   24.10
  -3  -4 -10   10.00    2.70
   3  -4  10    6.10    2.40
  -3   4 -10    8.80    2.80
   3   4  10    8.60    3.20
  -4  -4 -10  182.18    8.90
  -4  -4 -10  190.08    8.70
   4  -4  10  182.98    8.30
  -4   4 -10  175.78    8.10
   4   4  10  173.48    8.70
  -5  -4 -10  923.11   30.00
  -5  -4 -10  900.21   29.50
   5  -4  10  960.80   29.00
   5   4  10  915.21   29.90
   6  -4  10   88.19    6.20
  -6  -4 -10   91.19    7.20
   6   4  10   91.79    7.00
  -7  -4 -10  207.48   11.00
   7  -4  10  215.88    9.90
   7   4  10  203.58   10.80
   8  -4  10   13.10    3.70
  -8  -4 -10   15.30    4.50
   9  -4  10  141.59    8.40
  -9  -4 -10  120.99    9.30
 -10  -4 -10    6.00    5.10
  10  -4  10   12.20    4.00
 -11  -4 -10  166.68   11.60
 -12  -4 -10   15.00    6.20
 -12   4 -10   10.50    4.30
 -13  -4 -10   19.30    6.50
 -13   4 -10   35.00    6.40
 -14  -4 -10   -2.50    5.20
 -14   4 -10    1.30    4.70
 -14  -5  10    7.80    6.00
 -13  -5  10    8.50    5.70
 -12  -5  10   17.00    5.40
 -11  -5  10    8.10    4.30
 -11   5  10    3.10    2.60
 -10  -5  10    0.40    4.20
 -10   5  10    0.20    2.10
  -9  -5  10    7.10    4.30
  -9   5  10    5.90    2.30
  -8  -5  10    1.30    3.60
  -8   5  10    5.60    2.10
  -7  -5  10    6.50    3.70
  -7   5  10    8.60    1.90
  -6  -5  10   10.70    3.70
  -6   5  10    4.20    1.60
  -5  -5  10  213.98   10.40
  -5   5  10  208.48    7.20
  -4  -5  10  102.59    7.00
   4   5 -10  109.29    6.90
  -4   5  10  116.29    4.50
  -3  -5  10   48.00    5.10
   3   5 -10   53.69    5.10
  -3   5  10   49.80    3.00
  -2  -5  10   77.99    5.70
   2  -5 -10   81.99    3.30
  -2   5  10   76.99    3.90
   2   5 -10   84.59    5.70
   1  -5 -10  141.39    5.80
  -1  -5  10  138.99    7.30
   1  -5 -10  140.49    5.60
   1   5 -10  143.19    7.30
  -1   5  10  148.69    6.00
   0  -5 -10   -1.00    1.70
   0  -5 -10   -0.40    1.70
   0  -5  10    1.90    2.60
   0   5 -10   -1.80    2.20
   0   5  10   -0.80    1.90
  -1  -5 -10  141.29    6.90
   1  -5  10  156.58    7.40
  -1  -5 -10  151.08    6.70
   1   5  10  146.49    7.00
  -1   5 -10  144.69    7.40
  -2  -5 -10   82.59    5.60
  -2  -5 -10   81.19    5.10
   2  -5  10   67.59    4.90
   2   5  10   77.79    5.60
  -2   5 -10   75.09    5.10
   3  -5  10   51.79    4.70
  -3  -5 -10   53.49    4.80
  -3  -5 -10   54.79    5.10
   3   5  10   42.80    4.60
  -3   5 -10   57.59    4.80
   4  -5  10  129.79    6.50
  -4  -5 -10  126.99    7.00
  -4  -5 -10  122.99    7.30
   4   5  10  101.59    6.90
  -4   5 -10  111.19    6.30
  -5  -5 -10  216.48   10.40
   5  -5  10  212.88    9.40
  -5  -5 -10  213.18   10.90
   5   5  10  214.88   10.40
  -6  -5 -10    6.80    3.50
   6  -5  10    4.30    2.70
   6   5  10    7.60    3.90
  -7  -5 -10   10.30    4.00
   7  -5  10   15.40    3.40
   7   5  10    5.00    3.90
  -8  -5 -10    1.50    3.80
   8  -5  10   11.40    3.40
   9  -5  10    9.80    3.70
  -9  -5 -10    5.70    4.40
 -10  -5 -10    2.30    4.30
  10  -5  10    0.50    3.20
 -11  -5 -10    3.40    4.60
 -12  -5 -10   21.10    6.30
 -13  -5 -10   13.00    5.90
 -13   5 -10    1.30    4.50
 -14  -5 -10   -4.90    4.80
 -13  -6  10   14.50    5.80
 -12  -6  10   39.20    6.90
 -11  -6  10   63.89    8.10
 -10  -6  10   21.50    5.60
 -10   6  10   28.70    3.40
  -9  -6  10   95.39    9.30
  -9   6  10  102.59    5.30
  -8  -6  10   20.80    4.90
  -8   6  10   12.20    2.10
  -7  -6  10  506.25   19.60
  -7   6  10  488.15   15.10
  -6  -6  10  378.76   15.80
  -6   6  10  378.96   11.60
  -5  -6  10  257.37   12.20
  -5   6  10  273.07    8.50
  -4  -6  10  468.45   17.30
  -4   6  10  448.96   13.60
  -3  -6  10  272.37   12.00
  -3   6  10  293.67    9.20
  -2  -6  10  468.35   17.00
   2  -6 -10  458.25   13.60
   2  -6 -10  480.55   13.60
  -2   6  10  486.95   14.70
   1  -6 -10  951.10   27.40
  -1  -6  10  930.21   29.50
   1  -6 -10  915.91   27.20
  -1   6  10  959.20   27.90
   1   6 -10  927.31   29.40
   0  -6 -10  337.87   11.80
   0  -6  10  327.77   12.90
   0  -6 -10  347.67   11.80
   0   6  10  356.26   12.10
   0   6 -10  359.76   13.10
  -1  -6 -10  993.60   29.60
   1  -6  10  948.71   30.10
  -1  -6 -10  964.50   29.30
   1   6  10  965.60   29.60
  -1   6 -10  967.00   30.00
  -2  -6 -10  462.65   16.30
   2  -6  10  474.75   16.60
  -2  -6 -10  467.95   16.40
   2   6  10  485.65   16.70
  -2   6 -10  489.85   16.50
   3  -6  10  283.17   11.30
  -3  -6 -10  323.87   12.00
  -3  -6 -10  261.57   11.50
   3   6  10  292.47   11.80
  -4  -6 -10  475.25   17.50
  -4  -6 -10  460.25   17.00
   4  -6  10  471.95   16.30
   4   6  10  465.85   17.40
   5  -6  10  266.67   10.80
  -5  -6 -10  286.27   12.30
   5   6  10  242.08   11.80
   6  -6  10  401.46   14.30
  -6  -6 -10  355.46   15.60
   6   6  10  385.26   15.90
   7  -6  10  517.75   18.00
  -7  -6 -10  504.95   20.10
   8  -6  10   12.00    3.40
  -8  -6 -10   11.90    5.30
  -9  -6 -10  104.19    9.50
   9  -6  10   94.49    6.70
 -10  -6 -10   18.90    5.60
  10  -6  10   29.60    4.60
 -11  -6 -10   56.69    8.10
 -12  -6 -10   34.30    7.40
 -13  -6 -10   14.20    6.20
 -13  -7  10   46.60    8.10
 -12  -7  10   31.40    6.90
 -11  -7  10    3.10    4.70
 -10  -7  10   15.90    5.50
  -9  -7  10   49.40    7.00
  -9   7  10   39.70    3.30
  -8  -7  10   50.69    6.80
  -8   7  10   51.39    3.10
  -8   7  10   52.49    3.10
  -7  -7  10    3.60    4.00
  -7   7  10    5.60    1.30
  -6  -7  10   16.40    4.60
  -6   7  10   20.80    1.60
  -5  -7  10  142.09    8.90
  -5   7  10  145.29    4.80
  -4  -7  10   -2.10    3.20
  -4   7  10   -0.50    1.00
  -3  -7  10  902.31   29.50
  -3   7  10  894.71   26.00
  -2  -7  10   21.30    4.00
  -2   7  10   26.10    2.60
  -1  -7  10 1554.04   47.20
   1  -7 -10 1587.54   44.70
  -1   7  10 1564.34   45.30
   0  -7 -10    0.30    1.70
   0  -7  10   -2.30    2.30
   0  -7 -10   -1.80    1.70
   0   7  10    0.20    1.90
  -1  -7 -10 1587.34   46.80
  -1  -7 -10 1579.24   47.00
   1  -7  10 1616.94   47.70
   1   7  10 1615.14   47.20
   2  -7  10   28.80    4.00
  -2  -7 -10   30.40    4.10
  -2  -7 -10   31.90    4.00
   2   7  10   31.30    4.10
  -3  -7 -10  939.51   29.30
   3  -7  10  906.21   28.40
  -3  -7 -10  892.61   28.70
   3   7  10  879.21   29.10
  -4  -7 -10   -0.10    2.70
  -4  -7 -10   -0.10    2.80
   4  -7  10    2.40    2.50
   4   7  10    5.70    3.30
  -5  -7 -10  150.58    8.90
   5  -7  10  143.79    7.60
   5   7  10  146.19    8.80
  -6  -7 -10   18.00    4.50
   6  -7  10   16.90    3.40
  -7  -7 -10    1.10    3.70
   7  -7  10    9.80    3.00
  -8  -7 -10   66.89    7.80
   8  -7  10   57.79    5.40
  -9  -7 -10   41.60    7.00
   9  -7  10   40.40    4.80
  10  -7  10   14.00    3.80
 -10  -7 -10   14.90    5.50
 -11  -7 -10    3.00    4.70
 -12  -7 -10   14.00    6.00
 -13  -7 -10   55.39    9.20
 -13  -8  10    5.60    5.60
 -12  -8  10   -2.10    5.50
 -11  -8  10    4.70    5.10
 -10  -8  10   23.20    6.20
  -9  -8  10   41.90    6.90
  -8  -8  10    3.60    4.10
  -8   8  10    0.50    0.90
  -8   8  10    1.40    0.90
  -7  -8  10    7.10    4.40
  -6  -8  10    1.60    3.90
  -5  -8  10   13.80    4.70
  -4  -8  10   -0.30    3.10
  -4   8  10    2.10    1.10
  -3  -8  10   43.80    5.40
  -3   8  10   37.50    2.80
  -2  -8  10   -1.20    2.70
  -2   8  10   -0.80    1.50
  -1  -8  10  431.26   16.00
   1  -8 -10  408.26   13.20
  -1   8  10  424.96   14.20
   0  -8  10  559.34   19.70
   0  -8 -10  565.24   18.10
   0  -8 -10  592.24   18.30
   0   8  10  561.24   18.70
  -1  -8 -10  432.86   15.00
  -1  -8 -10  449.16   15.40
   1  -8  10  442.06   16.10
   1   8  10  425.26   15.50
   2  -8  10   -0.90    2.50
  -2  -8 -10   -4.70    2.10
  -2  -8 -10   -1.50    2.40
   2   8  10    3.70    2.80
  -3  -8 -10   41.80    5.00
   3  -8  10   46.70    4.70
  -3  -8 -10   45.70    5.30
   3   8  10   33.30    4.90
  -4  -8 -10   -2.20    3.20
  -4  -8 -10   -0.10    2.70
   4  -8  10   -3.10    2.20
   5  -8  10    9.30    3.00
  -5  -8 -10   17.50    4.40
   6  -8  10    6.50    2.80
  -6  -8 -10    5.30    3.90
  -7  -8 -10   17.20    4.90
   7  -8  10    9.40    3.10
   8  -8  10    2.40    2.70
  -8  -8 -10    0.50    4.00
  -9  -8 -10   24.70    5.90
   9  -8  10   33.90    4.40
 -10  -8 -10   17.40    5.90
 -11  -8 -10    4.00    5.20
 -12  -8 -10   -1.20    5.20
 -13  -8 -10    1.80    5.60
 -12  -9  10   -2.60    5.30
 -11  -9  10   10.30    5.60
 -10  -9  10   -1.30    4.40
  -9  -9  10  100.29   10.10
  -8  -9  10   41.20    7.00
  -7  -9  10   26.20    6.20
  -6  -9  10   20.90    5.20
  -5  -9  10   21.80    4.90
  -4  -9  10    6.90    3.80
  -3  -9  10  642.04   23.10
  -2  -9  10   30.80    4.80
  -1  -9  10  108.69    7.20
   1  -9 -10  105.99    4.70
   0  -9 -10    0.40    1.90
   0  -9 -10   -0.40    1.70
   0  -9  10   -1.20    2.80
  -1  -9 -10  103.89    6.30
  -1  -9 -10   90.79    5.80
   1  -9  10  103.19    6.90
  -2  -9 -10   32.10    4.20
   2  -9  10   29.40    4.10
  -2  -9 -10   29.60    4.20
   3  -9  10  624.34   21.30
  -3  -9 -10  613.74   21.70
  -3  -9 -10  671.03   22.50
   4  -9  10    3.10    2.60
  -4  -9 -10   -0.60    3.60
  -4  -9 -10    3.90    3.10
  -5  -9 -10   17.50    4.60
   5  -9  10   22.10    3.70
  -6  -9 -10   27.30    5.80
   6  -9  10   30.80    3.90
   7  -9  10   26.70    3.70
  -7  -9 -10   30.00    6.00
  -8  -9 -10   33.20    6.60
   8  -9  10   38.30    4.30
   9  -9  10   95.19    6.10
  -9  -9 -10   91.39    9.80
 -10  -9 -10    2.10    5.30
 -11  -9 -10    2.10    5.00
 -12  -9 -10    1.00    5.60
 -12 -10  10   -1.60    5.10
 -11 -10  10    7.20    5.80
 -10 -10  10    3.50    5.10
  -9 -10  10  314.37   16.80
  -8 -10  10   28.70    6.90
  -7 -10  10  211.58   12.70
  -6 -10  10   12.70    4.70
  -5 -10  10  158.28   10.30
  -4 -10  10  270.87   13.40
  -3 -10  10  457.25   18.20
  -2 -10  10  155.48    9.20
   1 -10 -10    7.60    1.50
   1 -10 -10    5.30    1.70
  -1 -10  10    5.20    3.30
   0 -10 -10  230.48    9.10
   0 -10  10  243.48   11.00
   0 -10 -10  233.38    9.20
  -1 -10 -10    6.80    2.80
   1 -10  10    5.30    3.20
  -1 -10 -10    6.80    2.70
  -2 -10 -10  147.59    8.10
   2 -10  10  149.79    8.40
  -2 -10 -10  163.98    8.40
  -3 -10 -10  473.15   18.10
   3 -10  10  501.85   17.40
  -3 -10 -10  464.45   17.80
  -4 -10 -10  247.28   12.30
  -4 -10 -10  300.57   13.40
   4 -10  10  288.87   11.50
  -5 -10 -10  163.58   10.10
   5 -10  10  168.68    8.20
  -6 -10 -10   12.80    4.50
   6 -10  10    7.70    2.90
  -7 -10 -10  217.78   12.80
   7 -10  10  241.38    9.80
  -8 -10 -10   50.19    7.70
   8 -10  10   39.10    4.10
  -9 -10 -10  295.37   16.40
   9 -10  10  292.87   10.90
 -10 -10 -10   -0.40    4.90
 -11 -10 -10    3.70    6.30
 -12 -10 -10    1.40    6.20
 -11 -11  10   22.10    7.50
 -10 -11  10    8.90    5.60
  -9 -11  10   15.10    5.80
  -8 -11  10   15.20    5.70
  -7 -11  10   27.80    6.20
  -6 -11  10   27.90    6.10
  -5 -11  10  260.57   14.10
  -4 -11  10    1.60    3.90
  -3 -11  10  170.28   10.60
  -2 -11  10   24.10    4.80
  -1 -11  10   -3.20    3.30
   1 -11 -10    0.10    1.40
   1 -11 -10   -1.30    1.40
   0 -11  10   -1.00    2.90
   0 -11 -10   -0.70    1.90
   0 -11 -10   -0.70    1.90
  -1 -11 -10    3.30    2.60
   1 -11  10    3.50    3.30
  -1 -11 -10   -0.50    2.30
  -2 -11 -10   25.10    4.30
  -2 -11 -10   20.10    4.00
   2 -11  10   24.70    4.30
   3 -11  10  169.08    8.70
  -3 -11 -10  172.38    9.50
  -3 -11 -10  148.69    9.00
  -4 -11 -10   -1.20    3.00
   4 -11  10    3.80    2.70
   5 -11  10  262.87   10.90
  -5 -11 -10  260.87   13.10
  -6 -11 -10   27.30    5.70
   6 -11  10   34.30    3.90
  -7 -11 -10   33.50    6.40
   7 -11  10   36.90    3.90
   8 -11  10   11.90    2.60
  -8 -11 -10    5.50    4.80
  -9 -11 -10   18.00    6.00
 -10 -11 -10    5.20    5.30
 -11 -11 -10   17.20    6.60
 -10 -12  10    4.20    5.40
  -9 -12  10  219.38   14.60
  -8 -12  10   18.60    6.30
  -7 -12  10  116.99   11.20
  -6 -12  10    3.10    4.60
  -5 -12  10   16.80    5.20
  -4 -12  10   54.09    7.10
  -3 -12  10  359.36   16.20
  -2 -12  10    9.00    4.40
   1 -12 -10   35.00    2.60
   1 -12 -10   31.90    2.50
  -1 -12  10   31.50    5.40
   0 -12 -10   60.59    4.60
   0 -12  10   64.59    6.70
   0 -12 -10   58.79    4.50
   1 -12  10   38.30    5.30
  -1 -12 -10   32.60    4.20
  -2 -12 -10    5.80    3.30
   2 -12  10    5.50    3.20
  -3 -12 -10  342.17   14.80
   3 -12  10  348.47   13.80
   4 -12  10   47.10    5.00
  -4 -12 -10   54.89    6.80
   5 -12  10   18.90    3.50
  -5 -12 -10   19.20    5.10
  -6 -12 -10   13.50    4.80
   6 -12  10    9.60    2.80
   7 -12  10  132.39    6.20
  -7 -12 -10  131.29   10.70
  -8 -12 -10    9.90    5.00
  -9 -12 -10  202.68   13.60
 -10 -12 -10    1.90    5.00
  -9 -13  10    1.40    5.20
  -8 -13  10   16.00    6.00
  -7 -13  10    1.40    5.30
  -6 -13  10    5.70    4.80
  -5 -13  10   46.40    7.10
  -4 -13  10    1.60    4.00
  -3 -13  10  389.36   17.60
  -2 -13  10   21.30    4.90
  -1 -13  10  317.17   14.30
   0 -13  10   -4.10    3.20
   0 -13 -10    0.50    2.20
   1 -13  10  336.57   14.30
  -1 -13 -10  320.97   12.90
   2 -13  10   24.00    4.60
  -2 -13 -10   21.10    4.20
  -3 -13 -10  414.76   17.20
   3 -13  10  434.06   16.20
   4 -13  10    1.10    2.50
  -4 -13 -10    1.20    3.70
   5 -13  10   50.59    4.70
  -5 -13 -10   53.79    7.00
  -6 -13 -10    8.70    4.50
   6 -13  10   12.10    2.60
  -7 -13 -10    0.30    3.90
  -8 -13 -10   20.20    6.10
  -9 -13 -10    1.70    5.40
  -8 -14  10    0.10    5.10
  -7 -14  10   26.30    6.90
  -6 -14  10    4.30    4.70
  -5 -14  10   77.79    9.20
  -4 -14  10   41.50    6.90
  -3 -14  10   13.50    5.20
  -2 -14  10   54.89    7.10
  -1 -14  10    7.10    4.40
   0 -14 -10   54.69    4.40
   0 -14  10   55.49    6.70
  -1 -14 -10   -1.00    2.70
   1 -14  10    5.20    3.80
  -2 -14 -10   47.20    5.70
   2 -14  10   60.69    6.30
   3 -14  10    8.60    3.40
  -3 -14 -10   14.60    4.20
  -4 -14 -10   40.00    6.10
   4 -14  10   34.20    4.30
   5 -14  10   85.89    5.60
  -5 -14 -10   89.49    8.90
  -6 -14 -10    3.70    4.20
  -7 -14 -10   21.00    6.50
  -8 -14 -10   -0.60    4.70
  -7 -15  10   61.59    9.10
  -6 -15  10    0.60    5.50
  -5 -15  10    0.50    4.50
  -4 -15  10    4.90    5.10
  -3 -15  10   55.39    7.60
  -2 -15  10   58.59    7.50
  -1 -15  10    1.50    3.80
   0 -15 -10   -1.00    1.90
   0 -15  10    8.60    4.30
  -1 -15 -10   -1.60    2.60
   1 -15  10    3.70    3.80
   2 -15  10   50.39    5.90
  -2 -15 -10   49.99    5.90
  -3 -15 -10   52.39    6.40
   3 -15  10   54.69    5.70
   4 -15  10    0.30    2.60
  -4 -15 -10    0.60    3.70
  -5 -15 -10   -1.00    3.80
  -6 -15 -10    6.50    4.40
  -7 -15 -10   55.39    7.90
  -5 -16  10   66.89    9.10
  -4 -16  10   -3.10    4.20
  -3 -16  10   13.20    5.70
  -2 -16  10    7.30    4.60
  -1 -16  10  129.19    9.70
   0 -16  10    4.70    4.10
  -1 -16 -10  120.99    7.20
   1 -16  10  125.69    8.90
   2 -16  10   -0.30    3.40
  -2 -16 -10    1.30    3.40
   3 -16  10   11.20    3.70
  -3 -16 -10    8.10    4.20
  -4 -16 -10   -4.00    3.80
  -5 -16 -10   70.79    8.20
  -2 -17  10    4.80    4.70
  -1 -17  10   40.50    6.80
   0 -17  10   -3.00    3.80
   1 -17  10   46.70    6.30
  -2 -17 -10    4.00    3.60
   2 -17  10    0.80    3.60
  -3 -17 -10    8.00    4.20
 -14   0  11   -3.70    3.80
 -13   0  11   -3.60    3.50
 -12   0  11    9.50    4.20
 -11   0  11   -4.90    3.00
 -10   0  11   -1.20    3.00
  10   0 -11   -1.80    2.70
   9   0 -11   -3.10    2.60
  -9   0  11    3.80    2.90
   8   0 -11    2.20    2.50
  -8   0  11    0.20    2.60
   7   0 -11   -1.10    2.30
  -7   0  11   -3.70    2.50
  -6   0  11   -4.60    2.30
   6   0 -11   -0.80    2.00
  -5   0  11   -1.70    2.20
   5   0 -11    2.60    2.20
   4   0 -11    1.80    2.00
  -4   0  11   -0.10    2.30
  -3   0  11   -3.90    2.10
   3   0 -11   -1.30    1.60
   2   0 -11   -1.10    1.80
  -2   0  11    1.30    2.00
   1   0 -11    2.10    2.20
  -1   0  11    1.50    2.10
   0   0 -11   -4.80    1.90
   0   0  11    1.20    2.20
   1   0  11   -2.80    2.10
  -1   0 -11    2.40    2.20
   2   0  11   -0.40    2.20
  -2   0 -11    1.20    2.20
   3   0  11    2.70    2.40
  -3   0 -11    2.10    2.20
   4   0  11    3.80    2.60
  -4   0 -11   -1.90    2.10
  -5   0 -11   -4.00    2.00
   5   0  11    2.00    2.60
   6   0  11   -2.30    2.40
   7   0  11    0.80    2.90
   8   0  11    1.00    3.50
   9   0  11    1.80    3.40
 -10   0 -11   -4.10    3.70
  10   0  11    4.70    3.90
 -11   0 -11    0.90    3.80
 -12   0 -11    1.90    4.20
 -13   0 -11    2.00    4.30
 -14   0 -11   -0.60    4.70
 -14  -1  11    3.60    4.70
 -13  -1  11   40.90    6.40
 -13   1  11   50.99    6.40
 -12  -1  11    0.30    3.30
 -12   1  11   -0.10    3.20
 -11  -1  11   12.10    4.10
 -11   1  11   12.90    4.00
 -10  -1  11  100.59    7.90
  10   1 -11  102.89    7.60
 -10   1  11  101.69    7.30
   9  -1 -11  323.57   12.70
  -9  -1  11  313.27   13.80
  -9   1  11  327.27   13.20
   9   1 -11  327.17   13.50
   8  -1 -11    9.70    2.80
  -8  -1  11    8.20    3.20
  -8   1  11    7.30    3.00
   8   1 -11    0.90    2.70
  -7  -1  11  148.99    8.30
   7  -1 -11  144.39    7.10
  -7   1  11  159.38    7.70
   7   1 -11  151.48    8.00
   6  -1 -11 2161.08   62.89
  -6  -1  11 2180.08   63.99
   6   1 -11 2253.67   63.99
  -6   1  11 2174.18   63.19
  -5  -1  11    0.00    2.60
   5  -1 -11    0.60    1.80
   5   1 -11    3.20    2.20
  -5   1  11    1.70    2.10
  -4  -1  11    5.40    2.50
   4  -1 -11    1.70    1.80
  -4   1  11    3.20    2.10
   4   1 -11    4.60    2.20
  -3  -1  11   76.79    5.00
   3  -1 -11   73.39    4.40
  -3   1  11   73.19    4.60
   3   1 -11   76.69    5.10
   2  -1 -11  383.36   12.90
  -2  -1  11  402.46   13.70
   2   1 -11  381.36   13.40
  -2   1  11  396.36   13.10
  -1  -1  11  422.56   14.10
   1  -1 -11  406.76   13.60
  -1   1  11  413.06   13.70
   1   1 -11  408.86   14.10
   0  -1 -11   -0.20    1.90
   0  -1  11    0.10    2.40
   0   1 -11    0.40    2.00
   0   1  11   -0.70    2.00
  -1  -1 -11  419.66   14.10
   1  -1  11  415.06   14.30
  -1   1 -11  418.96   14.20
   1   1  11  412.26   14.10
   2  -1  11  392.96   13.50
  -2  -1 -11  364.06   13.20
   2   1  11  392.46   13.40
  -2   1 -11  367.86   13.30
  -3  -1 -11   66.89    5.00
   3  -1  11   78.69    5.20
   3   1  11   74.09    5.20
  -3   1 -11   74.69    5.10
   4  -1  11    3.70    2.50
  -4  -1 -11    3.70    2.50
   4   1  11    1.70    2.60
  -4   1 -11    3.70    2.30
   5  -1  11   -0.10    2.40
  -5  -1 -11   -3.50    2.00
   5   1  11   -1.30    2.60
  -5   1 -11    2.20    2.40
   6  -1  11 2108.09   62.19
   6   1  11 2113.69   62.49
   7  -1  11  153.98    8.80
   7   1  11  152.78    8.80
   8  -1  11    5.80    3.30
   8   1  11    8.00    3.60
   9  -1  11  331.07   14.40
  -9  -1 -11  345.57   15.10
   9   1  11  306.07   14.70
  10  -1  11  115.79    8.40
 -10  -1 -11  114.19    9.10
 -11  -1 -11   16.90    5.10
 -11   1 -11   17.30    5.00
 -12  -1 -11   -2.80    3.80
 -12   1 -11   -0.80    4.60
 -13  -1 -11   50.39    7.60
 -13   1 -11   33.80    7.00
 -14  -1 -11  -11.00    4.30
 -14   1 -11   -8.30    4.50
 -14  -2  11   21.80    5.70
 -13  -2  11   37.80    6.60
 -13   2  11   30.80    5.40
 -12  -2  11   80.69    8.30
 -12   2  11   88.09    7.30
 -11  -2  11   92.59    8.30
 -11   2  11   77.69    6.50
 -10  -2  11   80.09    7.80
 -10   2  11   76.09    6.20
  -9  -2  11    0.40    3.20
   9   2 -11    6.40    3.50
  -9   2  11   -0.10    2.70
  -8  -2  11   16.80    4.00
   8  -2 -11   12.90    2.70
  -8   2  11   22.20    3.50
   8   2 -11   16.00    3.80
  -7  -2  11   84.39    6.40
   7  -2 -11   87.29    5.10
  -7   2  11   98.19    5.60
   7   2 -11   80.19    6.10
  -6  -2  11   31.20    4.30
   6  -2 -11   32.10    3.20
  -6   2  11   35.30    3.60
   6   2 -11   32.20    4.20
  -5  -2  11  327.37   12.60
   5  -2 -11  320.57   11.00
  -5   2  11  319.87   11.40
   5   2 -11  323.87   12.40
   4  -2 -11  144.39    5.90
  -4  -2  11  132.89    7.20
   4   2 -11  161.28    7.50
  -4   2  11  137.79    6.20
  -3  -2  11  414.96   14.40
   3  -2 -11  401.36   13.00
  -3   2  11  390.06   13.20
   3   2 -11  417.16   14.30
  -2  -2  11    4.30    2.50
   2  -2 -11    4.60    1.80
   2   2 -11    7.10    2.40
  -2   2  11    2.50    2.00
  -1  -2  11 1352.66   38.60
   1  -2 -11 1267.37   37.60
  -1   2  11 1283.87   37.70
   1   2 -11 1279.07   38.40
   0  -2  11 5389.96  148.69
   0  -2 -11 5294.07  147.99
   0   2 -11 5393.76  148.69
   0   2  11 5182.98  147.99
   1  -2  11 1304.97   37.60
  -1  -2 -11 1275.17   37.10
  -1   2 -11 1213.58   37.30
   1   2  11 1237.58   37.10
  -2  -2 -11    4.20    2.30
   2  -2  11    6.80    2.50
  -2   2 -11    6.50    2.50
   2   2  11    4.60    2.60
   3  -2  11  390.76   14.10
  -3  -2 -11  417.26   14.30
  -3   2 -11  383.76   14.00
   3   2  11  403.96   14.30
   4  -2  11  142.29    7.20
  -4  -2 -11  130.39    7.20
  -4   2 -11  133.79    7.00
   4   2  11  150.38    7.60
  -5  -2 -11  293.57   12.10
   5  -2  11  305.67   12.00
   5   2  11  300.67   12.40
   6  -2  11   26.70    4.00
   6   2  11   32.20    4.50
   7  -2  11   81.89    6.20
   7   2  11   75.99    6.90
  -8  -2 -11   16.80    4.40
   8  -2  11   10.90    3.90
   8   2  11   15.50    4.30
  -9  -2 -11    1.60    3.90
   9  -2  11    2.50    3.60
   9   2  11    8.00    4.10
  10  -2  11   71.29    7.10
 -10  -2 -11   90.49    8.80
 -11  -2 -11   80.59    8.60
 -11   2 -11   87.09    8.40
 -12  -2 -11   84.19    9.30
 -12   2 -11   88.49    8.80
 -13  -2 -11   34.60    7.40
 -13   2 -11   38.40    7.10
 -14  -2 -11   12.00    6.00
 -14   2 -11   19.00    5.70
 -14  -3  11    7.60    5.00
 -13  -3  11    8.30    4.70
 -12  -3  11   -0.60    3.80
 -12   3  11    4.30    3.10
 -11  -3  11   82.19    8.20
 -11   3  11   79.19    6.40
 -10  -3  11   17.30    4.50
 -10   3  11    9.50    3.10
  -9  -3  11   97.99    8.30
  -9   3  11  108.19    6.50
  -8  -3  11   78.79    7.20
  -8   3  11   81.79    5.50
  -7  -3  11  499.65   18.60
   7   3 -11  467.65   18.10
  -7   3  11  519.35   16.60
  -6  -3  11    9.10    3.70
   6  -3 -11    0.10    0.90
  -6   3  11    4.30    2.00
   6   3 -11    3.70    2.70
  -5  -3  11   12.90    3.30
   5   3 -11    9.70    3.20
  -5   3  11    9.40    2.20
   4  -3 -11  335.37   12.20
  -4  -3  11  434.76   15.10
  -4   3  11  417.96   13.00
   4   3 -11  438.06   14.90
   3  -3 -11  552.44   17.00
  -3  -3  11  564.34   19.10
  -3   3  11  564.24   17.40
   3   3 -11  581.84   19.10
   2  -3 -11  114.59    5.00
  -2  -3  11  123.09    6.60
  -2   3  11  112.69    5.30
   2   3 -11  120.09    6.40
  -1  -3  11  479.85   16.00
   1  -3 -11  438.26   14.50
   1   3 -11  476.15   15.90
  -1   3  11  454.45   14.80
   0  -3 -11    1.30    2.00
   0  -3  11   -1.00    2.30
   0   3 -11   -4.60    2.00
   0   3  11    1.90    1.90
   1  -3  11  421.96   14.90
  -1  -3 -11  435.16   14.60
  -1   3 -11  433.06   14.90
   1   3  11  442.06   14.60
  -2  -3 -11  110.39    6.00
   2  -3  11  105.49    6.00
  -2   3 -11  111.39    6.10
   2   3  11  118.79    6.50
   3  -3  11  566.74   18.60
  -3  -3 -11  536.55   18.60
  -3   3 -11  551.34   18.40
   3   3  11  564.04   18.80
  -4  -3 -11  408.26   15.00
   4  -3  11  423.86   14.90
   4   3  11  416.96   15.30
  -4   3 -11  405.56   14.70
  -5  -3 -11    6.80    3.00
   5  -3  11    8.40    2.80
   5   3  11   13.20    3.60
   6  -3  11    5.50    2.80
   6   3  11    3.20    3.30
   7  -3  11  517.05   18.80
  -7  -3 -11  561.24   20.20
   7   3  11  495.95   19.50
   8  -3  11   68.69    6.60
  -8  -3 -11   91.29    8.00
   8   3  11   64.49    7.00
   9  -3  11  127.29    8.40
  -9  -3 -11  111.49    8.90
   9   3  11   89.89    8.70
 -10  -3 -11    5.30    5.00
  10  -3  11    6.20    3.90
 -11  -3 -11   91.69    9.40
 -12  -3 -11    1.70    4.60
 -12   3 -11    5.70    4.50
 -13  -3 -11   13.80    5.80
 -13   3 -11    0.80    4.60
 -14  -3 -11    2.90    5.30
 -14   3 -11    3.50    5.20
 -14  -4  11   23.80    6.70
 -13  -4  11   65.59    8.80
 -12  -4  11   30.80    6.20
 -11  -4  11    5.10    4.30
 -11   4  11    5.10    2.90
 -10  -4  11  139.29    9.50
 -10   4  11  117.39    7.00
  -9  -4  11   10.80    4.20
  -9   4  11    9.40    2.80
  -8  -4  11   25.20    5.10
  -8   4  11   29.30    3.40
  -7  -4  11    1.70    3.00
  -7   4  11    0.10    1.80
  -6  -4  11  196.28   10.10
  -6   4  11  197.38    7.50
  -5  -4  11  134.29    7.80
  -5   4  11  129.59    5.50
   5   4 -11  131.39    7.60
   4  -4 -11  118.49    4.10
  -4  -4  11  118.09    7.20
  -4   4  11  124.59    5.20
   4   4 -11  126.19    7.20
  -3  -4  11   41.30    4.70
  -3   4  11   44.70    3.20
   3   4 -11   47.30    4.80
   2  -4 -11  914.31   26.70
  -2  -4  11  956.20   29.10
   2   4 -11  906.11   28.80
  -2   4  11  912.61   27.10
   1  -4 -11   55.89    3.60
  -1  -4  11   52.89    4.80
   1   4 -11   59.89    5.10
  -1   4  11   56.49    3.80
   0  -4 -11 2336.77   64.69
   0  -4  11 2202.98   65.59
   0   4  11 2348.27   64.89
   0   4 -11 2204.98   65.59
  -1  -4 -11   52.99    4.30
   1  -4  11   58.89    4.70
   1   4  11   55.79    4.50
  -1   4 -11   53.59    4.60
  -2  -4 -11  963.60   28.70
   2  -4  11  911.31   28.80
  -2   4 -11  944.01   28.70
   2   4  11  893.11   28.60
  -3  -4 -11   53.69    4.70
   3  -4  11   39.60    4.10
   3   4  11   34.70    4.10
  -3   4 -11   41.80    4.20
   4  -4  11  120.99    6.70
  -4  -4 -11  122.69    7.00
  -4  -4 -11  118.59    7.20
  -4   4 -11  127.39    6.70
   4   4  11  114.29    7.10
   5  -4  11  131.19    7.30
  -5  -4 -11  128.89    7.90
   5   4  11  126.69    7.80
   6  -4  11  199.38    9.20
  -6  -4 -11  173.28    9.90
   6   4  11  182.68    9.90
  -7  -4 -11    3.70    3.60
   7  -4  11    0.80    2.60
   7   4  11    2.80    3.60
  -8  -4 -11   26.10    5.20
   8  -4  11   26.40    4.30
   8   4  11   30.70    5.50
  -9  -4 -11    1.60    4.10
   9  -4  11    9.90    3.80
  10  -4  11  129.99    8.70
 -10  -4 -11  124.69    9.80
 -11  -4 -11    2.40    4.60
 -12  -4 -11   24.00    6.50
 -13  -4 -11   50.19    8.20
 -13   4 -11   42.70    6.90
 -14  -4 -11   13.60    6.70
 -14   4 -11   19.60    6.30
 -14  -5  11    2.60    5.10
 -13  -5  11   25.70    6.40
 -12  -5  11  185.48   12.20
 -11  -5  11  185.68   11.80
 -11   5  11  179.78    8.80
 -10  -5  11    5.00    4.10
 -10   5  11    8.40    2.60
  -9  -5  11   90.29    8.50
  -9   5  11   95.09    5.50
  -8  -5  11  102.49    8.30
  -8   5  11  110.89    5.50
  -7  -5  11  206.38   10.80
  -7   5  11  181.48    7.20
  -6  -5  11  111.99    7.80
  -6   5  11  100.79    4.70
  -5  -5  11  237.08   11.30
  -5   5  11  248.98    8.30
  -4  -5  11 1630.84   49.00
  -4   5  11 1601.24   45.70
  -3  -5  11  337.97   13.50
   3   5 -11  333.07   13.30
  -3   5  11  349.57   11.00
  -2  -5  11   77.69    5.70
   2  -5 -11   68.59    3.40
   2   5 -11   77.29    5.50
  -2   5  11   69.79    3.90
   1  -5 -11 1427.36   40.80
   1  -5 -11 1382.46   40.80
  -1  -5  11 1398.76   42.70
   1   5 -11 1443.96   42.80
  -1   5  11 1456.25   41.20
   0  -5  11   -2.10    2.60
   0  -5 -11   -0.70    1.80
   0  -5 -11   -0.20    1.70
   0   5  11   -1.40    1.90
   0   5 -11    2.70    2.40
  -1  -5 -11 1437.76   41.80
  -1  -5 -11 1408.06   41.90
   1  -5  11 1429.16   42.50
  -1   5 -11 1433.46   42.40
   1   5  11 1388.46   41.80
  -2  -5 -11   71.39    5.10
   2  -5  11   66.89    5.40
  -2  -5 -11   73.89    5.20
   2   5  11   76.39    5.20
  -2   5 -11   72.19    5.10
  -3  -5 -11  350.36   13.50
  -3  -5 -11  362.16   13.20
   3  -5  11  341.37   13.10
   3   5  11  346.17   13.30
  -3   5 -11  338.47   12.90
   4  -5  11 1567.64   47.20
  -4  -5 -11 1591.84   47.80
  -4  -5 -11 1588.34   48.10
   4   5  11 1610.94   48.20
  -5  -5 -11  248.88   11.60
   5  -5  11  257.17   10.50
   5   5  11  241.68   11.40
   6  -5  11   94.49    6.40
  -6  -5 -11   93.09    8.00
   6   5  11   93.89    7.40
  -7  -5 -11  193.58   10.70
   7  -5  11  177.28    9.00
   7   5  11  180.18   10.40
  -8  -5 -11  119.99    9.00
   8  -5  11  102.99    7.40
   9  -5  11  113.79    7.60
  -9  -5 -11  101.19    9.40
 -10  -5 -11    0.80    4.30
  10  -5  11    0.90    3.20
 -11  -5 -11  181.98   12.40
 -12  -5 -11  232.18   14.40
 -13  -5 -11   29.00    7.10
 -13   5 -11   26.10    6.00
 -14  -5 -11    5.70    5.80
 -13  -6  11    1.90    4.90
 -12  -6  11   78.89    9.40
 -11  -6  11    7.20    4.90
 -10  -6  11   13.30    4.90
 -10   6  11   15.70    2.90
  -9  -6  11  221.68   12.60
  -9   6  11  228.08    8.70
  -8  -6  11    0.00    3.60
  -8   6  11    6.10    1.90
  -7  -6  11  165.08   10.10
  -7   6  11  165.88    6.30
  -6  -6  11    5.20    3.70
  -6   6  11    3.40    1.40
  -5  -6  11   33.80    5.10
  -5   6  11   35.10    2.50
  -4  -6  11  140.39    8.60
  -4   6  11  154.38    5.60
  -3  -6  11   14.00    3.70
  -3   6  11   17.20    2.00
   2  -6 -11   59.89    2.70
   2  -6 -11   57.59    2.80
  -2  -6  11   53.19    5.30
  -2   6  11   53.39    3.50
  -1  -6  11   38.20    4.60
   1  -6 -11   43.20    3.20
   1  -6 -11   36.40    3.00
  -1   6  11   39.20    3.50
   0  -6  11    8.30    3.00
   0  -6 -11    8.50    2.30
   0  -6 -11    5.50    2.10
   0   6  11    6.20    2.30
   0   6 -11    6.60    2.80
   1  -6  11   30.80    4.00
  -1  -6 -11   45.00    4.00
  -1  -6 -11   39.70    4.10
   1   6  11   36.40    4.10
  -1   6 -11   38.00    4.20
  -2  -6 -11   49.30    4.50
   2  -6  11   65.79    5.40
  -2  -6 -11   56.49    5.10
   2   6  11   51.69    4.80
  -3  -6 -11   21.60    3.70
  -3  -6 -11   18.00    3.50
   3  -6  11   22.20    3.50
   3   6  11   17.40    3.70
  -4  -6 -11  142.69    8.30
   4  -6  11  154.08    7.90
  -4  -6 -11  170.38    8.80
   4   6  11  144.89    8.50
   5  -6  11   32.60    4.10
  -5  -6 -11   35.40    4.90
   5   6  11   36.60    5.20
  -6  -6 -11    7.60    3.60
   6  -6  11    1.90    2.80
   6   6  11    7.70    3.80
   7  -6  11  174.58    8.80
  -7  -6 -11  173.18   10.90
  -8  -6 -11    7.70    4.30
   8  -6  11    3.10    3.00
  -9  -6 -11  234.78   13.30
   9  -6  11  239.08   11.30
  10  -6  11   17.60    4.20
 -10  -6 -11   10.10    5.00
 -11  -6 -11    2.70    5.10
 -12  -6 -11   76.09    9.80
 -13  -6 -11   -1.40    5.90
 -13   6 -11    9.90    4.90
 -13  -7  11    3.20    6.30
 -12  -7  11   81.69    9.60
 -11  -7  11   78.59    9.10
 -10  -7  11    4.30    4.70
  -9  -7  11   -1.60    3.80
  -9   7  11   -1.30    1.60
  -8  -7  11   18.30    5.30
  -8   7  11   21.50    2.20
  -8   7  11   20.80    2.20
  -7  -7  11   16.70    4.70
  -7   7  11   18.00    1.80
  -6  -7  11   41.30    5.80
  -6   7  11   39.80    2.30
  -5  -7  11    4.70    3.80
  -5   7  11    5.00    1.10
  -4  -7  11  884.91   29.40
  -4   7  11  865.21   25.20
  -3  -7  11    9.60    3.60
  -3   7  11   18.60    2.20
   2  -7 -11   94.59    3.20
  -2  -7  11   94.79    6.70
   2  -7 -11   93.29    3.20
  -2   7  11   95.39    4.70
  -1  -7  11  119.19    7.30
   1  -7 -11  114.69    5.10
   1  -7 -11  121.79    5.10
  -1   7  11  119.49    5.80
   0  -7 -11    2.70    2.00
   0  -7 -11   -1.10    1.70
   0  -7  11    2.00    2.70
   0   7  11   -0.40    1.90
   1  -7  11  125.69    7.10
  -1  -7 -11  130.79    6.60
  -1  -7 -11  128.19    6.40
   1   7  11  110.99    6.40
  -2  -7 -11   94.79    6.10
   2  -7  11   99.09    6.50
  -2  -7 -11  102.89    6.50
   2   7  11  102.79    6.60
   3  -7  11   20.80    3.70
  -3  -7 -11   13.90    3.80
  -3  -7 -11   13.90    3.50
   3   7  11   17.20    4.00
   4  -7  11  894.71   27.80
  -4  -7 -11  833.42   28.30
  -4  -7 -11  897.71   29.10
   4   7  11  857.61   28.80
   5  -7  11    3.90    2.90
  -5  -7 -11    4.60    3.30
   5   7  11    6.10    3.40
   6  -7  11   40.30    4.60
  -6  -7 -11   39.70    5.70
  -7  -7 -11   18.00    4.80
   7  -7  11   24.00    3.90
  -8  -7 -11   12.70    4.90
   8  -7  11   30.70    4.30
  -9  -7 -11   -1.10    4.00
   9  -7  11    2.40    3.00
 -10  -7 -11    6.40    5.30
  10  -7  11   10.80    3.70
 -11  -7 -11  107.39   11.00
 -12  -7 -11  110.29   11.80
 -13  -7 -11    3.50    6.50
 -13  -8  11   24.40    6.90
 -12  -8  11   70.09    9.50
 -11  -8  11   10.20    5.40
 -10  -8  11  424.86   19.70
  -9  -8  11   79.39    9.00
  -8  -8  11   23.30    5.50
  -8   8  11   21.60    1.70
  -8   8  11   21.90    1.60
  -7  -8  11  255.07   13.50
  -6  -8  11   68.69    7.50
  -5  -8  11  110.29    8.30
  -5   8  11  109.09    3.80
  -4  -8  11   98.79    7.70
  -4   8  11  104.09    4.20
  -3  -8  11   10.80    3.80
  -3   8  11    9.90    1.90
  -2  -8  11   14.00    3.70
  -2   8  11   10.00    2.10
  -1  -8  11   69.69    6.40
   1  -8 -11   63.19    3.80
  -1   8  11   69.69    4.60
   0  -8 -11   23.80    3.10
   0  -8  11   26.60    4.30
   0  -8 -11   19.60    2.80
   0   8  11   20.60    3.30
  -1  -8 -11   69.09    5.10
   1  -8  11   67.89    5.90
  -1  -8 -11   61.09    4.70
   1   8  11   65.89    5.20
  -2  -8 -11    8.30    3.00
   2  -8  11   12.00    3.20
  -2  -8 -11   14.90    3.30
   2   8  11   12.30    3.50
  -3  -8 -11   10.00    3.30
  -3  -8 -11    6.90    3.00
   3  -8  11   12.70    3.30
   3   8  11    9.50    3.30
  -4  -8 -11   95.19    7.60
   4  -8  11  102.39    6.50
  -4  -8 -11   99.59    6.90
   4   8  11  102.99    7.80
  -5  -8 -11  111.19    8.00
   5  -8  11  108.49    6.90
  -6  -8 -11   81.99    8.00
   6  -8  11   77.69    5.70
  -7  -8 -11  265.87   13.60
   7  -8  11  255.77   10.90
   8  -8  11   27.10    4.10
  -8  -8 -11   20.00    5.50
  -9  -8 -11   97.99   10.10
   9  -8  11  102.69    6.80
 -10  -8 -11  392.96   19.30
  10  -8  11  417.06   15.60
 -11  -8 -11   13.60    6.60
 -12  -8 -11   70.69   10.20
 -13  -8 -11   14.20    7.30
 -12  -9  11   32.40    7.70
 -11  -9  11    1.90    5.10
 -10  -9  11   71.29    9.20
  -9  -9  11   65.89    8.40
  -8  -9  11    5.50    4.70
  -7  -9  11    4.30    4.40
  -6  -9  11  244.48   13.10
  -5  -9  11   44.70    6.30
  -4  -9  11   74.49    7.40
  -3  -9  11   27.30    4.90
  -3   9  11   25.90    2.60
  -2  -9  11   48.40    6.10
  -2   9  11   44.40    3.70
  -1  -9  11   38.50    5.30
   1  -9 -11   34.20    2.90
  -1   9  11   35.70    3.80
   0  -9  11   -2.50    3.00
   0  -9 -11   -0.60    1.80
   0  -9 -11   -1.40    1.90
   0   9  11    0.70    2.20
   1  -9  11   23.10    4.20
  -1  -9 -11   30.60    3.90
  -1  -9 -11   31.60    3.70
   1   9  11   28.70    4.10
   2  -9  11   41.50    4.90
  -2  -9 -11   42.50    4.90
  -2  -9 -11   53.29    5.10
   2   9  11   48.10    5.40
   3  -9  11   38.20    4.60
  -3  -9 -11   30.20    4.70
  -3  -9 -11   38.40    5.00
  -4  -9 -11   78.79    7.10
   4  -9  11   79.89    6.10
  -4  -9 -11   72.99    6.90
  -5  -9 -11   41.90    6.20
   5  -9  11   58.09    5.20
   6  -9  11  250.97   10.60
  -6  -9 -11  246.88   12.90
  -7  -9 -11    0.50    3.90
   7  -9  11    6.90    3.00
  -8  -9 -11    8.10    4.80
   8  -9  11    5.20    3.10
  -9  -9 -11   49.00    7.60
   9  -9  11   73.19    5.80
 -10  -9 -11   70.69    9.20
 -11  -9 -11    0.70    5.10
 -12  -9 -11   33.80    8.00
 -12 -10  11   20.50    6.90
 -11 -10  11   40.40    8.00
 -10 -10  11   52.89    8.90
  -9 -10  11   -3.30    4.30
  -8 -10  11    4.10    4.70
  -7 -10  11    3.70    4.30
  -6 -10  11   -0.80    4.10
  -5 -10  11  132.09    9.60
  -4 -10  11  168.88   10.80
  -3 -10  11   81.69    7.80
  -2 -10  11    0.30    3.20
   1 -10 -11   45.80    3.10
  -1 -10  11   44.40    5.70
   1 -10 -11   38.30    2.80
   0 -10 -11  145.19    6.70
   0 -10 -11  125.19    6.30
   0 -10  11  129.59    8.00
  -1 -10 -11   53.59    4.80
   1 -10  11   50.19    5.30
  -1 -10 -11   45.60    4.60
  -2 -10 -11   -3.40    2.70
   2 -10  11    1.60    3.00
  -2 -10 -11   -0.50    2.60
  -3 -10 -11   79.29    7.00
   3 -10  11   77.79    6.20
  -3 -10 -11   67.09    6.70
  -4 -10 -11  138.79    8.80
   4 -10  11  162.98    8.30
  -4 -10 -11  173.78    9.70
   5 -10  11  141.39    7.90
  -5 -10 -11  166.58   10.30
  -6 -10 -11   -2.70    3.40
   6 -10  11    0.90    2.60
  -7 -10 -11    5.70    4.80
   7 -10  11    3.90    2.80
   8 -10  11    2.10    2.70
  -8 -10 -11    3.80    4.60
  -9 -10 -11    3.60    5.10
   9 -10  11   11.20    3.00
 -10 -10 -11   35.10    7.80
 -11 -10 -11   26.50    7.20
 -12 -10 -11   25.90    8.20
 -11 -11  11   -2.50    6.00
 -10 -11  11  115.79   11.70
  -9 -11  11  115.59   11.40
  -8 -11  11   64.69    8.80
  -7 -11  11   56.09    8.00
  -6 -11  11  376.56   18.00
  -5 -11  11    6.50    4.40
  -4 -11  11  153.68   10.20
  -3 -11  11   37.20    5.90
  -2 -11  11   12.80    4.50
   1 -11 -11   64.89    3.60
   1 -11 -11   66.79    3.50
  -1 -11  11   75.49    7.30
   0 -11 -11    2.70    2.10
   0 -11 -11    1.30    2.00
   0 -11  11    1.60    3.40
  -1 -11 -11   68.09    5.60
  -1 -11 -11   68.09    5.60
   1 -11  11   65.19    6.50
  -2 -11 -11    8.40    3.30
  -2 -11 -11    4.90    3.20
   2 -11  11    5.50    3.40
  -3 -11 -11   34.10    5.20
  -3 -11 -11   44.80    5.50
   3 -11  11   42.50    5.10
   4 -11  11  162.08    8.60
  -4 -11 -11  167.58   10.10
  -5 -11 -11   18.20    5.00
   5 -11  11    8.00    3.10
   6 -11  11  344.87   13.50
  -6 -11 -11  391.76   17.00
   7 -11  11   59.49    5.20
  -7 -11 -11   64.99    7.90
  -8 -11 -11   51.59    7.70
   8 -11  11   61.89    4.90
   9 -11  11  118.19    6.00
  -9 -11 -11  121.99   11.60
 -10 -11 -11  122.19   12.30
 -11 -11 -11   -4.00    5.00
 -10 -12  11   21.50    6.90
  -9 -12  11   69.39   10.70
  -8 -12  11   15.80    6.00
  -7 -12  11   69.09    8.60
  -6 -12  11    5.40    4.70
  -5 -12  11    4.50    4.80
  -4 -12  11    0.60    3.80
  -3 -12  11    4.70    4.10
  -2 -12  11  154.88   10.20
   1 -12 -11   13.10    1.70
  -1 -12  11   14.20    4.50
   1 -12 -11   12.30    1.60
   0 -12  11    3.30    3.20
   0 -12 -11   15.00    2.90
   0 -12 -11   17.10    3.10
  -1 -12 -11   12.50    3.20
   1 -12  11   10.80    3.80
   2 -12  11  156.68    8.90
  -2 -12 -11  161.18    9.00
   3 -12  11    8.90    3.40
  -3 -12 -11    4.20    3.60
   4 -12  11    6.40    3.10
  -4 -12 -11    4.80    3.70
  -5 -12 -11   -4.90    3.70
   5 -12  11    0.20    2.70
  -6 -12 -11   15.20    5.30
   6 -12  11   10.60    3.10
  -7 -12 -11   55.79    7.80
   7 -12  11   65.69    4.90
  -8 -12 -11   33.60    7.20
  -9 -12 -11   57.39    9.20
 -10 -12 -11   19.60    6.40
  -9 -13  11   58.29    9.40
  -8 -13  11   64.09    9.20
  -7 -13  11   61.89    9.00
  -6 -13  11   86.99    9.70
  -5 -13  11   12.50    5.40
  -4 -13  11    7.90    4.70
  -3 -13  11   -4.90    3.80
  -2 -13  11   11.50    4.70
  -1 -13  11   17.80    4.90
   0 -13  11    0.60    3.40
   0 -13 -11   -0.60    2.00
  -1 -13 -11    8.60    3.10
   1 -13  11   18.40    4.40
  -2 -13 -11   12.60    3.70
   2 -13  11    8.60    3.80
  -3 -13 -11    7.10    3.70
   3 -13  11    6.20    3.40
   4 -13  11   10.10    3.40
  -4 -13 -11   12.70    4.50
   5 -13  11    3.90    2.80
  -5 -13 -11   10.50    4.70
  -6 -13 -11   85.09    8.90
   6 -13  11   73.79    5.40
  -7 -13 -11   62.59    8.50
  -8 -13 -11   64.49    9.10
  -9 -13 -11   51.29    8.10
  -8 -14  11    2.30    5.40
  -7 -14  11   23.90    7.00
  -6 -14  11   21.40    6.30
  -5 -14  11   56.49    8.20
  -4 -14  11    8.30    4.90
  -3 -14  11   39.80    6.70
  -2 -14  11  119.59    9.60
  -1 -14  11   16.10    4.80
   0 -14  11  539.75   21.10
   0 -14 -11  534.05   17.40
   1 -14  11   13.10    4.50
  -1 -14 -11    6.60    3.10
  -2 -14 -11  105.89    7.70
   2 -14  11  130.89    8.60
  -3 -14 -11   25.90    4.70
   3 -14  11   22.60    4.50
  -4 -14 -11   19.90    5.00
   4 -14  11   20.80    4.00
  -5 -14 -11   38.70    6.50
   5 -14  11   46.30    4.70
  -6 -14 -11   18.20    6.10
  -7 -14 -11   22.10    6.20
  -8 -14 -11    3.10    4.60
  -7 -15  11   21.90    7.10
  -6 -15  11    5.40    5.30
  -5 -15  11   -2.00    5.00
  -4 -15  11   99.59   10.10
  -3 -15  11   20.00    5.90
  -2 -15  11    4.20    4.60
  -1 -15  11   18.70    5.30
   0 -15  11    1.30    3.90
   0 -15 -11    0.20    2.20
   1 -15  11   18.70    4.80
  -1 -15 -11   22.70    3.80
   2 -15  11   -1.10    3.20
  -2 -15 -11    8.00    3.60
   3 -15  11   19.10    4.20
  -3 -15 -11   17.10    4.60
  -4 -15 -11   82.89    8.30
   4 -15  11  102.99    6.80
  -5 -15 -11   19.20    5.50
  -6 -15 -11    4.70    4.90
  -7 -15 -11   14.30    5.50
  -5 -16  11   11.10    5.50
  -4 -16  11    7.60    5.50
  -3 -16  11    2.10    4.10
  -2 -16  11    6.70    4.60
  -1 -16  11   -3.30    3.60
   0 -16  11    2.40    4.20
  -1 -16 -11    2.50    2.80
   1 -16  11    3.20    3.90
   2 -16  11   -0.40    3.60
  -2 -16 -11    0.40    3.10
   3 -16  11    7.70    3.60
  -3 -16 -11    2.00    3.70
  -4 -16 -11   -6.00    3.40
  -5 -16 -11    5.10    4.50
  -2 -17  11    6.70    5.00
  -1 -17  11   19.90    5.90
   0 -17  11   -1.20    4.20
   1 -17  11   31.20    5.80
   2 -17  11    7.10    3.80
 -14   0  12   14.40    5.50
 -13   0  12   22.60    5.50
 -12   0  12  758.42   27.20
 -11   0  12   -3.60    2.60
 -10   0  12   27.50    4.60
  -9   0  12  104.49    7.50
   9   0 -12  114.49    7.40
   8   0 -12    6.00    2.90
  -8   0  12    6.40    3.30
   7   0 -12  300.77   11.80
  -7   0  12  294.37   11.90
   6   0 -12  513.05   17.00
  -6   0  12  464.05   16.90
  -5   0  12    3.20    2.20
   5   0 -12   -0.10    1.80
  -4   0  12 1775.82   52.59
   4   0 -12 1846.92   52.59
   3   0 -12   26.50    3.30
  -3   0  12   29.20    3.40
   2   0 -12  904.81   27.70
  -2   0  12  921.21   27.80
  -1   0  12  557.84   18.20
   1   0 -12  576.24   18.20
   0   0 -12  612.14   19.40
   0   0  12  595.84   19.50
  -1   0 -12  551.34   18.20
   1   0  12  565.44   18.30
   2   0  12  930.01   28.50
  -2   0 -12  911.11   28.30
   3   0  12   30.40    3.90
  -3   0 -12   33.50    3.90
   4   0  12 1762.52   52.29
  -4   0 -12 1778.32   52.29
   5   0  12    0.90    2.70
   6   0  12  479.55   17.60
   7   0  12  298.87   13.00
   8   0  12    4.70    3.40
   9   0  12  100.69    8.40
 -10   0 -12   36.00    6.40
  10   0  12   29.60    5.80
 -11   0 -12   -4.60    3.60
 -12   0 -12  843.12   31.40
 -13   0 -12   14.50    6.00
 -14   0 -12   13.10    5.70
 -14  -1  12    3.00    4.50
 -13  -1  12    3.70    4.40
 -13   1  12   10.40    4.20
 -12  -1  12   12.50    4.40
 -12   1  12   20.80    4.80
 -11  -1  12   51.99    6.40
 -11   1  12   41.20    5.40
 -10  -1  12  262.47   12.20
  10   1 -12  233.78   11.90
 -10   1  12  255.37   11.70
   9  -1 -12   20.70    3.70
  -9  -1  12   24.70    4.60
   9   1 -12   27.90    4.50
  -9   1  12   28.60    4.40
  -8  -1  12   76.79    6.80
   8  -1 -12   88.29    5.70
  -8   1  12   84.59    5.80
   8   1 -12   89.69    6.30
  -7  -1  12   82.59    6.20
   7  -1 -12   89.39    5.50
   7   1 -12   95.29    6.50
  -7   1  12   99.69    6.10
   6  -1 -12  495.55   17.20
  -6  -1  12  526.95   18.40
  -6   1  12  502.95   17.50
   6   1 -12  560.94   18.20
  -5  -1  12   -0.90    2.50
   5  -1 -12    3.70    2.00
  -5   1  12   -0.80    2.10
   5   1 -12   -0.60    2.10
   4  -1 -12   50.19    3.90
  -4  -1  12   51.89    4.70
   4   1 -12   53.49    4.60
  -4   1  12   54.59    4.00
   3  -1 -12   24.30    2.90
  -3  -1  12   25.50    3.40
   3   1 -12   27.60    3.50
  -3   1  12   30.10    3.40
  -2  -1  12  199.08    8.50
   2  -1 -12  199.28    8.00
   2   1 -12  211.88    8.50
  -2   1  12  188.88    8.10
  -1  -1  12 1326.67   39.50
   1  -1 -12 1328.87   39.10
   1   1 -12 1330.27   39.50
  -1   1  12 1359.36   39.30
   0  -1 -12    0.10    2.20
   0  -1  12    1.10    2.40
   0   1 -12   -0.70    2.20
   0   1  12   -0.60    2.10
  -1  -1 -12 1301.97   39.10
   1  -1  12 1363.56   39.50
   1   1  12 1345.57   39.30
  -1   1 -12 1286.97   39.20
  -2  -1 -12  200.08    8.70
   2   1  12  224.08    9.20
  -2   1 -12  198.48    8.70
  -3  -1 -12   28.00    3.60
   3  -1  12   17.20    3.30
   3   1  12   29.20    3.80
  -3   1 -12   27.40    3.70
  -4  -1 -12   46.30    4.70
   4  -1  12   43.50    4.50
  -4   1 -12   56.19    4.90
   4   1  12   43.40    4.80
   5  -1  12    4.00    3.10
   5   1  12   -1.70    2.70
   6  -1  12  515.15   18.40
   6   1  12  501.35   18.60
   7  -1  12  103.39    7.10
   7   1  12   89.39    7.10
   8  -1  12   90.69    7.20
   8   1  12  103.59    7.70
  -9  -1 -12   36.70    5.80
   9  -1  12   25.80    5.50
   9   1  12   36.40    5.70
 -10  -1 -12  272.17   14.30
  10  -1  12  265.87   13.10
  10   1  12  269.67   14.10
 -11  -1 -12   46.50    7.00
 -11   1 -12   41.70    6.90
 -12  -1 -12   17.30    5.90
 -12   1 -12   20.60    5.50
 -13  -1 -12    1.70    4.70
 -13   1 -12    5.20    4.60
 -14  -1 -12   -0.60    4.80
 -14   1 -12   -3.80    4.50
 -14  -2  12    8.20    4.80
 -13  -2  12    6.70    4.40
 -13   2  12    5.00    3.80
 -12  -2  12   48.90    7.20
 -12   2  12   38.90    5.50
 -11  -2  12   29.30    5.70
 -11   2  12   34.60    5.10
 -10  -2  12   -0.30    3.60
 -10   2  12    3.10    2.90
  -9  -2  12   80.59    7.60
   9   2 -12   71.99    6.90
  -9   2  12   77.19    6.20
  -8  -2  12   31.80    5.10
   8  -2 -12   29.20    3.50
  -8   2  12   32.90    4.10
   8   2 -12   35.50    5.00
   7  -2 -12  118.49    6.00
  -7  -2  12  106.59    7.30
  -7   2  12  131.99    6.80
   7   2 -12  114.89    7.20
   6  -2 -12  158.48    6.80
  -6  -2  12  150.98    8.20
   6   2 -12  142.69    7.90
  -6   2  12  153.68    7.10
   5  -2 -12   25.20    2.90
  -5  -2  12   42.00    4.60
  -5   2  12   37.90    3.60
   5   2 -12   46.70    4.90
   4  -2 -12 1254.97   38.00
  -4  -2  12 1283.87   39.60
   4   2 -12 1422.06   39.80
  -4   2  12 1290.77   38.40
   3  -2 -12  331.17   11.20
  -3  -2  12  330.47   12.40
  -3   2  12  332.37   11.40
   3   2 -12  321.77   12.30
  -2  -2  12  840.42   26.50
   2  -2 -12  851.81   25.50
  -2   2  12  838.12   25.60
   2   2 -12  870.01   26.60
  -1  -2  12  521.35   17.50
   1  -2 -12  504.25   16.60
  -1   2  12  514.65   16.70
   1   2 -12  539.55   17.50
   0  -2 -12   90.39    5.30
   0  -2  12   91.39    5.70
   0   2  12   88.29    5.20
   0   2 -12  102.59    5.80
  -1  -2 -12  496.25   16.60
   1  -2  12  518.85   17.10
   1   2  12  525.65   16.80
  -1   2 -12  475.15   16.80
  -2  -2 -12  850.11   25.80
   2  -2  12  798.72   25.90
   2   2  12  819.82   25.80
  -2   2 -12  836.62   25.90
  -3  -2 -12  320.67   12.00
   3  -2  12  302.67   11.90
  -3   2 -12  302.87   11.90
   3   2  12  326.27   12.20
  -4  -2 -12 1202.68   37.10
   4  -2  12 1206.48   37.00
  -4   2 -12 1176.08   36.90
   4   2  12 1276.67   37.60
   5  -2  12   39.20    4.50
   5   2  12   29.80    4.30
   6  -2  12  171.08    8.50
   6   2  12  133.99    8.40
   7  -2  12  130.49    8.10
   7   2  12  115.39    8.00
   8  -2  12   35.60    5.20
  -8  -2 -12   34.60    5.60
   8   2  12   24.70    5.00
  -9  -2 -12   78.69    8.20
   9  -2  12   71.59    7.30
   9   2  12   93.09    8.60
  10  -2  12    4.70    3.70
 -10  -2 -12    0.60    4.20
  11  -2  12   29.90    5.70
 -11  -2 -12   29.90    6.10
 -12  -2 -12   35.80    7.30
 -12   2 -12   50.69    7.40
 -13  -2 -12    0.50    4.60
 -13   2 -12    6.00    4.60
 -14  -2 -12   18.60    6.50
 -14   2 -12   16.50    6.20
 -14  -3  12   33.70    7.00
 -13  -3  12   25.40    5.90
 -12  -3  12    1.70    4.50
 -12   3  12    1.20    3.40
 -11  -3  12    2.80    4.00
 -11   3  12   -6.60    2.70
 -10  -3  12   98.39    8.00
 -10   3  12   89.19    6.50
  -9  -3  12   -5.10    3.60
  -9   3  12    0.00    2.50
  -8  -3  12 1059.69   35.00
  -8   3  12 1081.39   32.70
  -7  -3  12   -2.40    2.80
   7  -3 -12   -0.10    1.50
   7   3 -12    0.20    2.60
  -7   3  12   -0.60    1.90
   6  -3 -12  416.16   14.00
  -6  -3  12  471.95   17.10
  -6   3  12  465.35   15.00
   6   3 -12  453.55   16.90
  -5  -3  12   83.69    6.30
   5  -3 -12   86.49    4.20
   5   3 -12   97.09    6.30
  -5   3  12   93.29    4.90
   4  -3 -12  288.97    9.80
  -4  -3  12  293.57   12.20
  -4   3  12  291.37   10.30
   4   3 -12  303.17   11.90
   3  -3 -12  426.16   13.80
  -3  -3  12  451.95   16.00
   3   3 -12  450.65   15.80
  -3   3  12  443.56   14.20
   2  -3 -12  132.09    5.50
  -2  -3  12  112.79    6.70
   2   3 -12  130.39    6.80
  -2   3  12  117.79    5.60
   1  -3 -12    1.70    1.70
  -1  -3  12   -0.60    2.50
  -1   3  12    0.60    2.00
   1   3 -12    5.90    2.60
   0  -3  12   -5.70    2.20
   0  -3 -12   -0.60    2.00
   0   3  12   -2.30    2.20
   0   3 -12   -1.00    2.20
  -1  -3 -12    1.80    2.20
   1  -3  12    6.20    2.70
  -1   3 -12    2.10    2.40
   1   3  12    5.70    2.50
  -2  -3 -12  132.69    6.60
   2  -3  12  124.59    6.70
  -2   3 -12  117.29    6.50
   2   3  12  123.69    6.60
   3  -3  12  440.66   15.50
  -3  -3 -12  445.76   15.50
  -3   3 -12  418.26   15.20
   3   3  12  436.46   15.60
   4  -3  12  290.37   11.70
  -4  -3 -12  280.37   11.60
   4   3  12  289.67   12.00
  -4   3 -12  297.17   11.50
   5  -3  12   82.59    5.90
   5   3  12   86.39    6.80
   6  -3  12  464.75   17.10
   6   3  12  466.75   17.80
   7  -3  12    3.50    3.30
  -7  -3 -12    4.00    3.60
   7   3  12    3.40    3.50
   8  -3  12 1108.09   35.10
  -8  -3 -12 1093.39   36.30
   8   3  12 1063.19   36.00
  -9  -3 -12    2.00    4.00
   9  -3  12    6.30    3.80
   9   3  12   -6.80    4.00
  10  -3  12  101.59    8.10
 -10  -3 -12   88.69    8.80
 -11  -3 -12    4.50    4.20
  11  -3  12    3.40    4.00
 -12  -3 -12    9.10    5.50
 -12   3 -12   11.30    4.60
 -13  -3 -12   25.80    6.60
 -13   3 -12   14.00    5.60
 -14  -3 -12   14.00    6.30
 -14   3 -12   16.10    5.80
 -14  -4  12  159.88   12.00
 -13  -4  12   19.20    5.80
 -12  -4  12   12.60    5.00
 -11  -4  12    8.40    4.50
 -11   4  12   10.30    3.40
 -10  -4  12   11.00    4.50
 -10   4  12   13.70    3.30
  -9  -4  12   50.89    6.50
  -9   4  12   50.09    4.60
  -8  -4  12   83.89    7.60
  -8   4  12   82.49    5.30
  -7  -4  12  196.78   10.40
  -7   4  12  186.78    7.80
  -6  -4  12  184.88    9.90
  -6   4  12  197.88    7.60
   5  -4 -12  298.47    9.00
  -5  -4  12  291.67   12.60
   5   4 -12  294.57   12.40
  -5   4  12  300.17   10.20
   4  -4 -12  106.29    4.30
  -4  -4  12  122.49    7.40
   4   4 -12  143.59    7.80
  -4   4  12  136.29    5.50
  -3  -4  12   17.70    3.60
  -3   4  12   16.60    2.30
   3   4 -12   11.60    3.10
  -2  -4  12 2803.72   80.29
   2  -4 -12 2795.32   78.09
   2   4 -12 2750.72   80.19
  -2   4  12 2796.32   78.49
  -1  -4  12  243.28   10.50
   1  -4 -12  252.07    9.20
   1   4 -12  290.47   11.00
  -1   4  12  256.57    9.50
   0  -4 -12  581.54   18.40
   0  -4  12  581.44   19.40
   0   4  12  581.04   18.50
   0   4 -12  569.54   19.30
   1  -4  12  263.67   10.60
  -1  -4 -12  264.67   10.00
   1   4  12  247.68    9.90
  -1   4 -12  252.67   10.40
   2  -4  12 2836.62   81.69
  -2  -4 -12 3022.90   81.49
  -2   4 -12 2761.02   81.49
   2   4  12 2769.42   81.39
   3  -4  12   15.50    3.20
  -3  -4 -12   11.50    3.00
  -3   4 -12   11.70    2.90
   3   4  12   17.60    3.50
  -4  -4 -12  122.79    7.20
   4  -4  12  130.69    7.10
   4   4  12  131.89    7.60
   5  -4  12  307.37   12.40
  -5  -4 -12  290.47   13.00
   5   4  12  319.17   13.20
  -6  -4 -12  185.18   10.20
   6  -4  12  197.68    9.30
   6   4  12  189.38   10.10
   7  -4  12  216.58   10.00
  -7  -4 -12  189.28   10.80
   7   4  12  192.48   10.80
   8  -4  12   84.49    6.80
  -8  -4 -12   85.29    8.30
   8   4  12   72.29    7.80
   9  -4  12   61.89    6.50
  -9  -4 -12   65.19    7.50
  10  -4  12   11.30    4.20
 -10  -4 -12   10.30    4.90
 -11  -4 -12   -3.40    4.50
  11  -4  12   12.80    4.60
 -12  -4 -12    4.30    5.00
 -13  -4 -12   16.50    6.20
 -13   4 -12    4.20    4.90
 -14  -4 -12  202.68   14.80
 -14   4 -12  169.48   12.00
 -14  -5  12   17.90    6.70
 -13  -5  12   -5.70    4.30
 -12  -5  12   12.70    5.70
 -11  -5  12   18.30    5.40
 -10  -5  12    9.20    4.80
 -10   5  12   13.30    3.00
  -9  -5  12    7.00    4.20
  -9   5  12    6.10    2.40
  -8  -5  12   -1.10    4.10
  -8   5  12    1.20    1.90
  -7  -5  12   18.80    4.70
  -7   5  12   15.80    2.40
  -6  -5  12    1.00    3.20
  -6   5  12    1.60    1.70
  -5  -5  12   42.70    5.40
  -5   5  12   48.20    3.30
  -4  -5  12   69.09    6.20
  -4   5  12   63.49    3.80
  -3  -5  12    2.80    3.00
   3  -5 -12    3.90    1.10
   3  -5 -12    3.90    1.00
  -3   5  12    5.50    1.70
   3   5 -12   -0.40    2.50
  -2  -5  12   27.70    4.30
  -2   5  12   20.90    2.60
   2   5 -12   21.00    3.60
  -1  -5  12  443.16   16.70
   1  -5 -12  471.85   15.00
  -1   5  12  484.65   15.40
   1   5 -12  483.65   16.80
   0  -5  12   -2.80    2.30
   0  -5 -12    1.20    1.90
   0   5 -12   -0.90    2.40
   0   5  12   -0.90    1.90
  -1  -5 -12  479.55   16.00
   1  -5  12  462.35   16.70
  -1   5 -12  457.65   16.50
   1   5  12  506.55   16.40
  -2  -5 -12   20.50    3.20
  -2  -5 -12   26.30    3.80
   2  -5  12   24.00    3.70
  -2   5 -12   21.30    3.50
   2   5  12   24.60    3.90
  -3  -5 -12    5.80    2.90
   3  -5  12    3.30    2.60
  -3  -5 -12    3.40    3.00
   3   5  12    4.20    3.00
  -4  -5 -12   61.29    5.90
   4  -5  12   63.69    5.20
  -4  -5 -12   58.09    5.50
   4   5  12   61.89    5.80
   5  -5  12   47.90    5.00
  -5  -5 -12   51.19    6.00
   5   5  12   49.90    5.70
  -6  -5 -12   -0.20    3.10
   6  -5  12   -1.80    2.80
   6   5  12    1.70    3.20
   7  -5  12   13.20    3.60
  -7  -5 -12   18.60    4.70
   7   5  12   18.20    4.60
   8  -5  12   -1.90    2.80
  -8  -5 -12   -1.60    3.80
   8   5  12   -0.60    3.80
   9  -5  12   12.80    3.70
  -9  -5 -12    6.00    4.40
  10  -5  12    7.20    3.70
 -10  -5 -12    9.00    5.50
  11  -5  12   27.30    5.10
 -11  -5 -12   15.30    6.00
 -12  -5 -12    7.00    5.60
 -13  -5 -12   -2.90    5.40
 -13   5 -12    0.50    4.60
 -14  -5 -12   15.20    6.90
 -13  -6  12   17.00    6.00
 -12  -6  12   10.10    5.50
 -11  -6  12   -2.00    4.00
 -10  -6  12   19.10    5.40
 -10   6  12   26.60    3.30
  -9  -6  12    2.10    4.20
  -9   6  12    0.00    1.80
  -8  -6  12  100.39    9.00
  -8   6  12   93.19    4.80
  -7  -6  12   16.70    4.70
  -7   6  12   15.60    2.20
  -6  -6  12   12.00    4.00
  -6   6  12    5.60    1.60
  -5  -6  12    0.00    3.10
  -5   6  12    1.90    1.30
  -4  -6  12  181.78    9.80
  -4   6  12  184.58    6.70
  -3  -6  12   13.50    3.80
  -3   6  12   11.90    2.00
   2  -6 -12 1501.65   42.70
  -2  -6  12 1490.05   46.00
  -2   6  12 1537.55   43.50
  -1  -6  12  111.29    7.00
   1  -6 -12  117.09    5.20
   1  -6 -12  115.49    5.30
  -1   6  12  119.49    5.80
   0  -6  12  832.32   26.40
   0  -6 -12  785.72   24.70
   0  -6 -12  786.92   24.60
   0   6  12  826.52   25.10
  -1  -6 -12  130.49    6.30
  -1  -6 -12  112.49    6.40
   1  -6  12  109.99    6.80
   1   6  12  120.29    6.50
   2  -6  12 1657.43   48.00
  -2  -6 -12 1600.74   47.40
  -2  -6 -12 1630.04   47.70
   2   6  12 1506.95   47.40
   3  -6  12   13.70    3.40
  -3  -6 -12   11.70    3.30
  -3  -6 -12   15.00    3.20
   3   6  12   16.70    3.80
   4  -6  12  200.98    9.00
  -4  -6 -12  185.68    9.90
  -4  -6 -12  180.78    9.20
   4   6  12  185.48    9.60
  -5  -6 -12    3.20    3.30
   5  -6  12    0.20    2.80
   5   6  12   -0.20    2.90
  -6  -6 -12    2.30    3.80
   6  -6  12    1.20    2.90
   6   6  12   12.10    4.10
   7  -6  12   15.20    3.70
  -7  -6 -12   27.40    5.60
   7   6  12    8.70    4.30
   8  -6  12   96.49    6.90
  -8  -6 -12   99.99    9.20
  -9  -6 -12    8.80    5.00
   9  -6  12    0.00    3.00
  10  -6  12   22.60    4.70
 -10  -6 -12   12.30    5.40
  11  -6  12   -2.20    3.10
 -11  -6 -12    8.70    5.70
 -12  -6 -12    5.50    6.10
 -13  -6 -12    8.80    6.50
 -13  -7  12   -5.90    4.40
 -12  -7  12   10.20    5.40
 -11  -7  12   18.10    5.80
 -10  -7  12  208.78   12.90
  -9  -7  12  106.89    9.90
  -9   7  12  123.59    5.50
  -8  -7  12  117.19    9.40
  -8   7  12  119.29    5.10
  -7  -7  12    3.30    3.80
  -7   7  12    2.80    1.40
  -6  -7  12  364.06   16.30
  -6   7  12  368.36   11.40
  -5  -7  12   12.50    4.20
  -5   7  12   12.60    1.60
  -4  -7  12   40.70    5.50
  -4   7  12   52.89    3.10
  -3  -7  12   97.09    7.70
  -3   7  12  104.49    4.70
   2  -7 -12  738.93   21.10
   2  -7 -12  743.73   21.10
  -2  -7  12  740.63   25.20
  -2   7  12  724.33   22.30
   1  -7 -12   15.80    2.30
   1  -7 -12   16.60    2.20
  -1  -7  12    9.80    3.60
  -1   7  12   14.70    2.70
   0  -7 -12   -0.90    2.00
   0  -7 -12    0.60    1.90
   0  -7  12   -3.10    2.80
   0   7  12   -1.40    2.00
   1  -7  12   16.80    3.60
  -1  -7 -12   11.10    2.90
  -1  -7 -12   20.40    3.10
   1   7  12   13.60    3.20
  -2  -7 -12  738.53   24.20
   2  -7  12  757.72   24.50
  -2  -7 -12  757.52   24.10
   2   7  12  703.53   24.20
   3  -7  12  100.39    6.70
  -3  -7 -12   99.29    6.50
  -3  -7 -12  100.19    7.10
   3   7  12   99.49    6.80
  -4  -7 -12   46.40    5.60
   4  -7  12   45.00    4.90
  -4  -7 -12   57.69    6.00
   4   7  12   48.70    5.60
  -5  -7 -12    6.70    3.70
   5  -7  12   11.80    3.40
   5   7  12    9.90    3.90
  -6  -7 -12  398.06   16.70
   6  -7  12  364.66   14.40
   6   7  12  369.76   16.10
   7  -7  12   -1.00    2.90
  -7  -7 -12    7.80    4.30
   8  -7  12  114.59    7.40
  -8  -7 -12  132.99    9.90
  -9  -7 -12  130.29   10.20
   9  -7  12  124.59    7.80
  10  -7  12  216.08   10.80
 -10  -7 -12  205.18   13.20
 -11  -7 -12   32.10    7.00
 -12  -7 -12   17.20    6.30
 -13  -7 -12   -9.40    5.60
 -12  -8  12   18.90    6.30
 -11  -8  12   79.69    9.70
 -10  -8  12    5.00    5.00
  -9  -8  12    2.50    4.70
  -8  -8  12    4.70    4.40
  -8   8  12    3.10    1.10
  -8   8  12    2.80    1.10
  -7  -8  12   17.00    5.10
  -7   8  12   17.00    1.40
  -6  -8  12   11.90    4.70
  -6   8  12   16.80    1.40
  -5  -8  12   80.69    7.80
  -5   8  12   76.89    3.30
  -4  -8  12  256.97   12.60
  -4   8  12  253.77    8.50
  -3  -8  12    1.00    3.40
  -3   8  12    1.70    1.50
  -2  -8  12  122.59    8.40
  -2   8  12  140.19    6.10
   1  -8 -12   67.39    3.90
   1  -8 -12   50.49    3.40
  -1  -8  12   80.19    6.20
  -1   8  12   72.59    4.70
   0  -8 -12  417.96   14.00
   0  -8  12  397.16   15.60
   0  -8 -12  412.26   13.90
   0   8  12  405.36   14.60
  -1  -8 -12   81.29    5.50
  -1  -8 -12   74.89    5.20
   1  -8  12   76.89    6.00
   1   8  12   74.89    5.70
  -2  -8 -12  138.59    7.40
   2  -8  12  127.09    7.40
  -2  -8 -12  110.59    6.90
   2   8  12  141.99    7.80
  -3  -8 -12    1.30    2.90
   3  -8  12    2.30    3.00
  -3  -8 -12    1.40    3.30
   3   8  12    1.90    3.30
  -4  -8 -12  239.28   11.50
  -4  -8 -12  274.47   12.40
   4  -8  12  260.07   11.20
   4   8  12  260.57   12.40
   5  -8  12   84.19    6.20
  -5  -8 -12   75.29    7.30
   5   8  12   73.39    7.20
  -6  -8 -12   12.80    4.90
   6  -8  12   18.40    3.70
  -7  -8 -12   11.10    4.60
   7  -8  12   16.10    3.70
   8  -8  12    8.10    3.40
  -8  -8 -12    7.20    4.40
   9  -8  12    2.00    3.30
  -9  -8 -12    2.70    4.50
  10  -8  12    2.80    3.40
 -10  -8 -12   -1.20    5.20
 -11  -8 -12   77.79    9.60
 -12  -8 -12   22.60    7.00
 -12  -9  12    5.70    5.80
 -11  -9  12   -1.60    5.40
 -10  -9  12   32.20    7.10
  -9  -9  12    2.50    4.70
  -8  -9  12  865.01   32.00
  -7  -9  12   24.80    5.80
  -6  -9  12   22.10    5.40
  -5  -9  12   -0.30    4.20
  -5   9  12    4.10    1.00
  -4  -9  12  203.88   11.40
  -4   9  12  185.88    6.80
  -3  -9  12   65.09    6.90
  -3   9  12   81.49    4.40
  -2  -9  12  142.99    8.90
  -2   9  12  157.78    6.90
   1  -9 -12   -0.30    0.50
  -1  -9  12    0.40    3.00
   1  -9 -12    0.70    1.50
  -1   9  12    2.20    2.00
   0  -9 -12   -1.20    1.80
   0  -9  12    2.70    3.40
   0  -9 -12   -0.20    2.10
   0   9  12   -3.00    2.00
  -1  -9 -12   -0.60    2.20
   1  -9  12   -2.10    2.90
  -1  -9 -12   -0.60    2.20
   1   9  12    7.10    3.00
  -2  -9 -12  144.59    8.00
  -2  -9 -12  158.68    8.10
   2  -9  12  141.29    8.40
   2   9  12  154.78    8.30
  -3  -9 -12   60.99    6.20
  -3  -9 -12   79.79    6.70
   3  -9  12   65.69    6.00
   3   9  12   73.39    6.80
  -4  -9 -12  164.48    9.90
   4  -9  12  214.98    9.80
  -4  -9 -12  196.68   10.30
   5  -9  12    3.10    2.80
  -5  -9 -12    0.90    3.60
  -6  -9 -12   12.40    4.60
   6  -9  12   16.40    3.60
  -7  -9 -12   23.30    5.40
   7  -9  12   28.20    4.20
   8  -9  12  848.22   27.20
  -8  -9 -12  817.32   30.70
   9  -9  12    1.90    3.10
  -9  -9 -12    7.00    4.90
  10  -9  12   26.10    4.20
 -10  -9 -12   28.30    6.80
 -11  -9 -12    2.80    5.40
 -12  -9 -12   21.20    7.30
 -11 -10  12    6.40    6.40
 -10 -10  12    8.30    5.40
  -9 -10  12   65.09    8.80
  -8 -10  12   54.69    8.50
  -7 -10  12  153.58   11.00
  -6 -10  12   53.49    7.40
  -5 -10  12   -5.90    3.30
  -4 -10  12  346.77   15.80
  -3 -10  12   37.80    6.10
  -2 -10  12  103.19    7.90
  -1 -10  12   34.10    5.40
   1 -10 -12   35.10    2.80
   1 -10 -12   22.60    2.20
   0 -10 -12  250.27    9.70
   0 -10  12  255.37   12.00
   0 -10 -12  242.58    9.60
  -1 -10 -12   41.10    4.40
  -1 -10 -12   35.60    4.20
   1 -10  12   29.60    4.60
  -2 -10 -12  124.29    7.50
   2 -10  12  113.29    7.70
  -2 -10 -12  124.89    7.60
  -3 -10 -12   32.50    4.90
   3 -10  12   28.70    4.50
  -3 -10 -12   41.20    5.40
  -4 -10 -12  396.06   16.20
   4 -10  12  352.36   14.30
  -5 -10 -12    2.10    4.20
   5 -10  12    0.10    2.70
  -6 -10 -12   59.09    7.20
   6 -10  12   73.79    6.10
  -7 -10 -12  174.78   11.20
   7 -10  12  146.19    8.10
   8 -10  12   49.90    5.10
  -8 -10 -12   49.60    7.90
  -9 -10 -12   64.29    9.00
   9 -10  12   69.19    5.70
 -10 -10 -12   -3.50    4.30
 -11 -10 -12    7.30    6.00
 -11 -11  12   -3.50    5.80
 -10 -11  12    9.00    6.30
  -9 -11  12   -0.80    4.50
  -8 -11  12    0.70    4.60
  -7 -11  12   69.49    8.60
  -6 -11  12   23.90    5.90
  -5 -11  12  195.38   12.50
  -4 -11  12  414.66   18.10
  -3 -11  12   21.10    5.10
  -2 -11  12   43.20    6.40
  -1 -11  12    1.50    3.80
   1 -11 -12    4.90    1.60
   1 -11 -12    4.20    1.60
   0 -11  12    1.20    3.10
   0 -11 -12   -3.00    1.90
   0 -11 -12   -1.30    1.90
  -1 -11 -12    4.00    2.60
   1 -11  12    5.20    3.50
  -1 -11 -12    5.80    2.80
   2 -11  12   40.00    5.30
  -2 -11 -12   41.70    5.10
  -2 -11 -12   43.40    5.10
   3 -11  12   24.20    4.50
  -3 -11 -12   23.00    4.40
  -3 -11 -12   27.20    4.90
  -4 -11 -12  452.55   18.10
   4 -11  12  430.76   16.50
  -5 -11 -12  168.18   10.80
   5 -11  12  189.08    9.30
   6 -11  12   31.40    4.40
  -6 -11 -12   39.20    6.40
  -7 -11 -12   85.79    9.30
   7 -11  12   63.69    5.60
   8 -11  12    2.00    2.60
  -8 -11 -12    0.60    4.50
  -9 -11 -12    7.50    5.70
   9 -11  12    0.30    2.40
 -10 -11 -12   16.40    6.60
 -11 -11 -12   -5.60    4.70
 -10 -12  12    1.70    5.40
  -9 -12  12   -3.50    5.60
  -8 -12  12    9.30    5.50
  -7 -12  12   -0.90    4.30
  -6 -12  12    4.90    4.60
  -5 -12  12   -0.70    4.10
  -4 -12  12  481.35   20.60
  -3 -12  12   14.30    4.70
  -2 -12  12  142.59   10.10
  -1 -12  12    6.30    3.70
   1 -12 -12    2.00    1.20
   1 -12 -12    1.70    1.20
   0 -12 -12   52.79    4.40
   0 -12  12   55.19    6.50
  -1 -12 -12    8.50    3.00
   1 -12  12    0.80    3.20
   2 -12  12  143.69    8.70
  -2 -12 -12  133.89    8.10
  -3 -12 -12   26.30    4.80
   3 -12  12   23.90    4.50
   4 -12  12  548.85   19.60
  -4 -12 -12  538.85   20.90
   5 -12  12   -1.70    2.60
  -5 -12 -12    0.40    4.10
   6 -12  12   -0.50    2.60
  -6 -12 -12    2.90    4.30
  -7 -12 -12    0.20    4.80
   7 -12  12   -0.80    2.50
  -8 -12 -12    2.50    4.60
   8 -12  12    3.00    2.50
  -9 -12 -12    2.40    5.10
 -10 -12 -12    3.90    5.60
  -9 -13  12   -4.70    5.10
  -8 -13  12   68.39    9.30
  -7 -13  12    9.10    5.70
  -6 -13  12  115.39   11.00
  -5 -13  12    6.80    5.00
  -4 -13  12   66.89    8.10
  -3 -13  12   11.70    5.10
  -2 -13  12  156.98   10.60
  -1 -13  12   53.49    6.50
   0 -13  12   -0.80    3.50
   0 -13 -12    2.30    2.20
  -1 -13 -12   54.09    5.20
   1 -13  12   53.79    6.50
  -2 -13 -12  168.58    9.30
   2 -13  12  163.08    9.50
   3 -13  12    9.70    3.60
  -3 -13 -12    8.70    3.90
   4 -13  12   79.19    6.50
  -4 -13 -12   83.29    8.00
  -5 -13 -12   -4.00    3.70
   5 -13  12    0.90    2.80
   6 -13  12  118.99    7.00
  -6 -13 -12  130.39   10.30
   7 -13  12    9.70    2.70
  -7 -13 -12    5.00    4.50
  -8 -13 -12   59.59    8.90
  -9 -13 -12    2.80    5.20
  -8 -14  12   -1.70    4.90
  -7 -14  12    0.10    5.50
  -6 -14  12   74.39    9.20
  -5 -14  12    2.70    4.80
  -4 -14  12   -3.10    4.50
  -3 -14  12    3.90    4.20
  -2 -14  12  288.27   14.50
  -1 -14  12   40.80    6.30
   0 -14  12    3.90    3.90
   0 -14 -12    9.50    2.50
  -1 -14 -12   42.60    4.80
   1 -14  12   33.20    5.60
  -2 -14 -12  255.07   12.00
   2 -14  12  279.17   12.80
   3 -14  12    3.00    3.40
  -3 -14 -12   -0.60    3.50
   4 -14  12    2.70    3.10
  -4 -14 -12   -2.10    3.90
   5 -14  12    5.70    3.00
  -5 -14 -12    5.60    4.50
   6 -14  12   65.99    5.20
  -6 -14 -12   63.69    8.20
  -7 -14 -12   -0.70    4.30
  -8 -14 -12   -0.70    4.70
  -7 -15  12    5.70    5.90
  -6 -15  12   25.00    6.80
  -5 -15  12    3.30    4.70
  -4 -15  12   22.40    6.60
  -3 -15  12    2.50    4.20
  -2 -15  12   40.30    6.70
  -1 -15  12   -2.10    3.70
   0 -15  12    6.20    4.20
  -1 -15 -12    1.30    2.70
   1 -15  12   -1.90    3.60
   2 -15  12   47.80    6.20
  -2 -15 -12   50.39    5.80
  -3 -15 -12   -0.90    3.50
   3 -15  12    6.30    3.70
  -4 -15 -12   14.40    4.80
   4 -15  12   12.80    3.80
  -5 -15 -12    5.10    4.40
   5 -15  12   -2.90    2.80
  -6 -15 -12   27.80    6.30
  -7 -15 -12    5.60    5.70
  -5 -16  12   -5.10    4.90
  -4 -16  12   16.90    5.70
  -3 -16  12   -1.50    4.50
  -2 -16  12  147.99   11.00
  -1 -16  12   12.30    5.00
   0 -16  12    1.00    4.00
   1 -16  12   15.00    5.00
  -2 -16 -12  140.79    8.60
   2 -16  12  136.49    9.20
   3 -16  12    1.10    3.40
  -3 -16 -12   -1.70    3.50
  -4 -16 -12   13.60    5.10
  -5 -16 -12    8.80    5.00
  -1 -17  12    7.20    5.00
   0 -17  12   -6.60    3.90
   1 -17  12    7.00    4.40
 -14   0  13    3.60    4.50
 -13   0  13    6.10    4.40
 -12   0  13    1.30    3.30
 -11   0  13    7.00    3.90
 -10   0  13    0.90    3.40
   9   0 -13    1.20    2.90
  -9   0  13    0.00    3.10
   8   0 -13   -0.40    2.50
  -8   0  13   -3.00    2.40
   7   0 -13   -0.90    2.50
  -7   0  13    0.90    2.70
   6   0 -13   -2.20    2.10
  -6   0  13   -1.50    2.50
   5   0 -13   -0.90    2.10
  -5   0  13    3.40    2.50
  -4   0  13   -2.80    2.10
   4   0 -13   -2.50    1.90
  -3   0  13   -2.30    2.30
   3   0 -13    1.80    2.30
   2   0 -13   -3.70    2.20
  -2   0  13    1.50    2.50
   1   0 -13    4.80    2.30
  -1   0  13    0.80    2.20
   0   0 -13    5.60    2.40
   0   0  13    3.60    2.40
   1   0  13    0.70    2.30
  -1   0 -13    0.10    2.20
   2   0  13    1.40    2.50
  -2   0 -13    2.20    2.30
   3   0  13   -1.90    2.30
  -3   0 -13    2.80    2.50
  -4   0 -13   -2.30    2.20
   4   0  13    1.10    2.60
   5   0  13   -5.00    2.30
   6   0  13   -0.60    2.90
   7   0  13    0.60    3.10
   8   0  13    1.80    3.30
   9   0  13   -0.40    3.50
  10   0  13    6.50    3.90
 -11   0 -13    0.10    4.10
  11   0  13    3.10    4.10
 -12   0 -13   -1.50    4.30
 -13   0 -13   -3.90    4.00
 -14   0 -13   -2.50    5.30
 -14  -1  13   -3.30    3.80
 -13  -1  13   59.49    7.60
 -13   1  13   57.49    7.10
 -12  -1  13  152.78   10.30
 -12   1  13  146.09    9.60
 -11  -1  13   20.30    4.70
 -11   1  13   33.90    5.20
 -10  -1  13   19.20    4.70
 -10   1  13   10.80    3.70
  -9  -1  13  514.75   19.00
   9  -1 -13  485.75   17.50
  -9   1  13  497.35   18.10
   9   1 -13  480.25   18.40
   8  -1 -13   10.10    2.90
  -8  -1  13    6.30    3.50
  -8   1  13    4.60    2.80
   8   1 -13    3.30    2.70
  -7  -1  13  367.86   14.50
   7  -1 -13  348.97   13.30
   7   1 -13  366.26   14.30
  -7   1  13  386.76   13.90
  -6  -1  13  211.98    9.90
   6  -1 -13  211.08    9.20
  -6   1  13  234.48    9.60
   6   1 -13  238.78   10.20
  -5  -1  13    2.40    2.50
   5  -1 -13   -2.70    1.70
  -5   1  13   -1.90    2.10
   5   1 -13   -0.70    2.40
  -4  -1  13  125.19    7.00
   4  -1 -13  130.69    6.30
   4   1 -13  128.19    6.80
  -4   1  13  137.89    6.60
  -3  -1  13   11.20    3.00
   3  -1 -13   10.50    2.30
   3   1 -13   11.40    2.90
  -3   1  13    5.80    2.50
  -2  -1  13   20.90    3.40
   2  -1 -13   26.00    3.10
   2   1 -13   23.50    3.50
  -2   1  13   24.50    3.10
  -1  -1  13 3463.25   99.09
   1  -1 -13 3523.95   98.59
   1   1 -13 3535.45   98.99
  -1   1  13 3471.05   98.69
   0  -1  13    1.50    2.50
   0  -1 -13   -1.90    2.00
   0   1 -13    1.50    2.30
   0   1  13    2.20    2.30
   1  -1  13 3423.76   98.49
  -1  -1 -13 3351.06   98.19
   1   1  13 3574.54   98.49
  -1   1 -13 3542.95   98.49
   2  -1  13   24.10    3.70
  -2  -1 -13   27.40    3.60
   2   1  13   27.00    3.70
  -2   1 -13   19.00    3.40
  -3  -1 -13    7.80    2.90
   3  -1  13    5.90    2.80
  -3   1 -13   11.00    2.90
   3   1  13    8.60    2.90
  -4  -1 -13  129.29    7.10
   4  -1  13  133.49    7.20
  -4   1 -13  122.79    6.90
   4   1  13  114.99    7.10
   5  -1  13   -2.30    2.80
   5   1  13    0.10    2.70
   6  -1  13  238.48   10.90
   6   1  13  230.78   11.10
   7  -1  13  355.76   14.70
   7   1  13  355.16   14.90
   8  -1  13    6.60    4.10
   8   1  13    4.60    4.10
   9  -1  13  505.45   19.90
   9   1  13  517.15   20.50
  10  -1  13   15.10    5.00
 -10  -1 -13   17.10    5.20
  10   1  13   10.40    4.40
  11  -1  13   25.60    5.50
 -11  -1 -13   35.70    6.50
 -11   1 -13   19.30    5.40
 -12  -1 -13  144.99   11.20
 -12   1 -13  170.88   12.00
 -13  -1 -13   48.30    8.40
 -13   1 -13   51.99    7.80
 -14  -1 -13    4.70    5.90
 -14   1 -13   -8.20    4.00
 -14  -2  13    6.30    5.10
 -13  -2  13   23.20    6.00
 -12  -2  13   42.30    6.50
 -12   2  13   48.80    6.10
 -11  -2  13  202.28   11.80
 -11   2  13  200.48   10.50
 -10  -2  13  174.08   10.50
 -10   2  13  169.68    9.20
   9  -2 -13    9.80    2.80
  -9  -2  13   14.10    4.10
   9   2 -13    9.00    3.90
  -9   2  13   13.30    3.50
  -8  -2  13    6.60    3.60
   8  -2 -13    3.70    2.30
   8   2 -13    4.10    3.30
  -8   2  13    6.30    2.90
  -7  -2  13  132.59    7.90
   7  -2 -13  121.09    6.20
   7   2 -13  125.89    7.50
  -7   2  13  129.89    7.00
   6  -2 -13  327.57   11.60
  -6  -2  13  328.87   13.30
   6   2 -13  328.37   13.10
  -6   2  13  322.87   12.00
  -5  -2  13 2226.58   67.19
   5  -2 -13 2342.67   65.69
  -5   2  13 2319.37   65.99
   5   2 -13 2320.77   67.19
  -4  -2  13  137.29    7.30
   4  -2 -13  130.39    5.90
  -4   2  13  126.39    6.20
   4   2 -13  107.89    6.70
  -3  -2  13  363.56   13.90
   3  -2 -13  386.86   12.80
  -3   2  13  378.56   13.00
   3   2 -13  391.26   14.00
   2  -2 -13   76.49    4.50
  -2  -2  13   76.89    5.40
   2   2 -13   73.89    5.30
  -2   2  13   78.39    4.90
  -1  -2  13   -1.80    2.50
   1  -2 -13    0.50    2.00
   1   2 -13    0.60    2.50
  -1   2  13    4.10    2.20
   0  -2  13 1696.33   50.89
   0  -2 -13 1754.02   50.39
   0   2 -13 1691.73   50.89
   0   2  13 1805.82   50.59
   1  -2  13    1.80    2.60
  -1  -2 -13    4.10    2.40
   1   2  13    2.40    2.40
  -1   2 -13    4.70    2.50
   2  -2  13   76.89    5.40
  -2  -2 -13   76.49    5.20
  -2   2 -13   68.89    5.10
   2   2  13   67.79    5.20
  -3  -2 -13  375.56   13.30
   3  -2  13  313.57   12.90
  -3   2 -13  352.36   13.10
   3   2  13  351.46   13.30
   4  -2  13  116.49    6.90
  -4  -2 -13  113.79    7.10
  -4   2 -13  115.09    6.70
   4   2  13  110.09    7.00
   5  -2  13 2288.07   66.79
   5   2  13 2266.37   67.09
   6  -2  13  326.17   13.30
   6   2  13  315.47   13.60
   7  -2  13  128.99    8.00
   7   2  13  135.59    8.70
   8  -2  13    6.30    3.50
   8   2  13    6.20    3.90
   9  -2  13    7.60    3.70
  -9  -2 -13   21.00    5.20
   9   2  13   11.60    4.20
 -10  -2 -13  171.78   11.40
  10  -2  13  185.58   10.90
  10   2  13  160.28   10.80
  11  -2  13  214.48   12.40
 -11  -2 -13  215.28   13.00
 -12  -2 -13   33.20    6.80
 -12   2 -13   36.20    6.60
 -13  -2 -13   24.40    6.50
 -13   2 -13   13.10    5.40
 -14  -2 -13   -3.30    4.70
 -14   2 -13    5.30    5.20
 -14  -3  13   -8.70    3.70
 -13  -3  13   28.80    6.20
 -12  -3  13   30.20    6.00
 -12   3  13   26.40    5.00
 -11  -3  13   59.09    7.40
 -11   3  13   70.29    6.50
 -10  -3  13   62.79    7.20
 -10   3  13   60.89    5.80
  -9  -3  13  182.18   10.70
  -9   3  13  176.98    8.70
  -8  -3  13  171.18    9.80
  -8   3  13  170.58    8.10
  -7  -3  13  457.05   17.90
   7  -3 -13  468.45   15.10
  -7   3  13  484.85   16.00
   7   3 -13  460.55   17.80
   6  -3 -13   88.99    4.50
  -6  -3  13   88.09    6.80
  -6   3  13   91.79    5.10
   6   3 -13   80.79    6.40
  -5  -3  13   51.29    5.40
   5  -3 -13   58.29    3.60
  -5   3  13   54.59    4.00
   5   3 -13   55.39    5.50
   4  -3 -13   40.30    3.10
  -4  -3  13   37.20    4.70
   4   3 -13   39.70    4.60
  -4   3  13   36.70    3.40
  -3  -3  13  598.14   20.60
   3  -3 -13  613.34   18.80
   3   3 -13  616.24   20.60
  -3   3  13  613.34   19.10
   2  -3 -13  225.38    8.60
  -2  -3  13  243.48   10.20
  -2   3  13  235.58    8.90
   2   3 -13  243.28   10.10
  -1  -3  13    4.90    2.80
   1  -3 -13   -1.20    1.70
  -1   3  13   -0.20    2.00
   1   3 -13    3.90    2.60
   0  -3  13    0.20    2.50
   0  -3 -13   -0.40    1.80
   0   3 -13    1.10    2.30
   0   3  13   -0.60    2.00
  -1  -3 -13    1.30    2.30
   1  -3  13    3.90    2.50
  -1   3 -13    0.70    2.30
   1   3  13    1.90    2.40
   2  -3  13  235.88   10.00
  -2  -3 -13  249.97    9.90
  -2   3 -13  232.18    9.80
   2   3  13  218.68    9.60
   3  -3  13  593.14   20.10
  -3  -3 -13  610.54   20.10
   3   3  13  602.04   20.20
  -3   3 -13  580.24   20.00
   4  -3  13   47.90    5.00
  -4  -3 -13   36.20    4.40
   4   3  13   35.30    4.60
   5  -3  13   59.59    5.50
   5   3  13   51.09    5.70
   6  -3  13   91.29    6.60
   6   3  13   93.29    7.30
   7  -3  13  490.25   18.20
   7   3  13  486.05   19.00
   8  -3  13  166.38    9.50
  -8  -3 -13  185.58   10.90
   8   3  13  182.38   10.90
  -9  -3 -13  159.48   10.80
   9  -3  13  171.78   10.10
   9   3  13  168.88   10.60
 -10  -3 -13   66.39    8.30
  10  -3  13   48.90    6.30
  11  -3  13   57.39    7.10
 -11  -3 -13   65.49    8.10
 -12  -3 -13   36.50    7.10
 -13  -3 -13   14.20    6.30
 -13   3 -13   11.80    5.30
 -14  -3 -13   12.50    6.20
 -14   3 -13    3.40    4.70
 -14  -4  13    2.60    5.00
 -13  -4  13   12.50    5.30
 -12  -4  13   17.10    5.30
 -11  -4  13   52.69    7.40
 -11   4  13   49.50    5.40
 -10  -4  13   11.30    4.80
 -10   4  13   22.30    3.70
  -9  -4  13    3.00    3.70
  -9   4  13    1.90    2.50
  -8  -4  13   45.50    6.30
  -8   4  13   55.19    4.60
  -7  -4  13  202.68   10.90
  -7   4  13  216.58    8.60
  -6  -4  13  160.98    9.20
   6  -4 -13  129.49    4.90
  -6   4  13  142.39    6.30
  -5  -4  13  786.52   26.70
   5  -4 -13  791.02   23.10
  -5   4  13  817.02   24.20
   4  -4 -13    0.10    0.30
  -4  -4  13   -1.30    3.10
   4   4 -13    2.30    2.60
  -4   4  13   -0.10    1.60
  -3  -4  13   34.10    4.50
   3  -4 -13   34.30    2.70
   3   4 -13   32.40    4.30
  -3   4  13   29.60    3.00
  -2  -4  13  273.57   11.30
   2  -4 -13  264.17    9.20
  -2   4  13  266.67    9.60
   2   4 -13  253.07   11.00
  -1  -4  13  126.69    7.20
   1  -4 -13  132.69    5.90
  -1   4  13  124.39    6.10
   1   4 -13  133.99    7.20
   0  -4  13 2575.34   74.49
   0  -4 -13 2563.94   73.19
   0   4 -13 2566.84   74.39
   0   4  13 2593.54   73.39
   1  -4  13  141.29    7.40
  -1  -4 -13  139.99    6.80
   1   4  13  128.99    6.90
  -1   4 -13  126.59    7.00
   2  -4  13  245.88   10.60
  -2  -4 -13  283.87   10.70
   2   4  13  246.68   10.50
  -2   4 -13  257.77   10.60
  -3  -4 -13   34.60    4.20
   3  -4  13   28.20    3.90
   3   4  13   37.20    4.60
  -4  -4 -13   -1.10    2.40
   4  -4  13   -0.70    2.50
   4   4  13    0.60    2.90
   5  -4  13  807.72   26.60
   5   4  13  828.02   27.50
  -6  -4 -13  159.38    9.30
   6  -4  13  144.99    8.10
   6   4  13  141.29    8.80
   7  -4  13  213.58   10.70
  -7  -4 -13  234.78   12.00
   7   4  13  225.38   11.80
   8  -4  13   47.70    5.50
  -8  -4 -13   56.99    7.10
   8   4  13   47.30    6.50
   9  -4  13    3.50    3.50
  -9  -4 -13   -5.00    3.70
   9   4  13    3.50    4.10
 -10  -4 -13   16.30    5.20
  10  -4  13   14.30    4.50
  11  -4  13   52.59    6.80
 -11  -4 -13   57.79    8.10
 -12  -4 -13   23.90    6.90
 -13  -4 -13   25.70    7.30
 -13   4 -13   11.10    5.60
 -14  -4 -13   -0.70    6.00
 -14   4 -13   -1.20    5.00
 -13  -5  13    4.60    5.50
 -12  -5  13   75.09    9.20
 -11  -5  13  324.87   16.10
 -10  -5  13  121.79    9.40
 -10   5  13  105.19    6.40
  -9  -5  13    1.20    3.80
  -9   5  13    4.40    2.30
  -8  -5  13   35.60    5.90
  -8   5  13   43.20    3.80
  -7  -5  13   20.00    4.80
  -7   5  13   26.80    3.00
  -6  -5  13  626.64   23.00
  -6   5  13  631.24   19.40
  -5  -5  13  206.08   10.70
  -5   5  13  215.68    7.90
  -4  -5  13  920.91   30.50
  -4   5  13  946.61   27.60
  -3  -5  13    4.00    3.10
   3  -5 -13    2.60    0.90
  -3   5  13   11.10    2.10
  -2  -5  13   13.30    3.60
   2  -5 -13   13.30    1.90
  -2   5  13   11.60    2.30
   1  -5 -13  968.70   29.10
  -1  -5  13  981.90   31.10
   1   5 -13  970.20   31.00
  -1   5  13 1005.80   29.50
   0  -5  13    2.00    2.60
   0  -5 -13   -1.90    1.70
   0   5 -13    2.90    2.40
   0   5  13    2.20    2.00
  -1  -5 -13 1002.00   30.10
   1  -5  13  944.71   30.90
   1   5  13  997.10   30.30
   2  -5  13   13.20    3.20
  -2  -5 -13   14.70    3.20
   2   5  13   16.40    3.60
  -3  -5 -13   10.10    3.20
  -3  -5 -13   12.80    3.60
   3  -5  13    8.50    3.30
   3   5  13    5.70    3.30
  -4  -5 -13  912.61   30.00
   4  -5  13  959.80   29.70
  -4  -5 -13  891.31   29.60
   4   5  13  929.21   30.00
  -5  -5 -13  218.58   10.80
   5  -5  13  208.98    9.80
   5   5  13  211.08   10.60
  -6  -5 -13  659.13   23.50
   6  -5  13  657.33   22.20
   6   5  13  606.44   23.00
  -7  -5 -13   22.30    5.00
   7  -5  13   22.60    4.30
   7   5  13   21.60    5.10
   8  -5  13   43.20    5.40
  -8  -5 -13   28.40    6.20
   8   5  13   36.60    6.00
  -9  -5 -13    2.90    4.20
   9  -5  13    7.70    3.70
 -10  -5 -13  124.59   10.20
  10  -5  13  120.59    8.60
 -11  -5 -13  370.86   18.70
  11  -5  13  366.96   16.00
 -12  -5 -13   72.09    9.40
 -13  -5 -13    3.90    5.50
 -13   5 -13    5.40    4.70
 -13  -6  13   14.00    6.00
 -12  -6  13   22.60    6.10
 -11  -6  13    9.80    4.90
 -10  -6  13   16.10    5.30
  -9  -6  13    7.40    4.40
  -9   6  13    4.20    2.10
  -8  -6  13   -5.00    3.60
  -8   6  13    2.60    1.80
  -7  -6  13   11.90    4.30
  -7   6  13    7.20    1.90
  -6  -6  13   37.90    5.70
  -6   6  13   40.50    3.10
  -5  -6  13   47.80    5.90
  -5   6  13   35.20    2.90
  -4  -6  13  458.55   17.20
  -4   6  13  414.96   13.60
  -3  -6  13   -0.20    3.00
  -3   6  13   -0.50    1.60
   2  -6 -13  290.27    9.80
  -2  -6  13  311.07   12.80
  -2   6  13  299.87   10.60
   1  -6 -13   56.49    3.70
  -1  -6  13   73.49    5.80
   1  -6 -13   62.79    4.10
  -1   6  13   62.29    4.30
   0  -6 -13  651.63   20.70
   0  -6  13  663.23   22.30
   0  -6 -13  653.03   20.90
   0   6  13  666.73   21.10
  -1  -6 -13   61.39    4.70
   1  -6  13   67.19    5.60
  -1  -6 -13   61.09    5.10
   1   6  13   61.99    5.10
   2  -6  13  333.87   12.90
  -2  -6 -13  311.67   12.30
  -2  -6 -13  305.27   12.30
   2   6  13  300.57   12.30
  -3  -6 -13    2.30    3.20
   3  -6  13   -0.90    2.90
  -3  -6 -13   -0.30    2.40
   3   6  13    7.40    3.10
  -4  -6 -13  392.86   15.80
  -4  -6 -13  429.66   16.40
   4  -6  13  419.36   15.60
   4   6  13  414.46   16.20
  -5  -6 -13   43.90    5.80
   5  -6  13   48.00    5.20
   5   6  13   25.50    4.90
  -6  -6 -13   43.60    6.20
   6  -6  13   38.20    5.00
   6   6  13   49.99    6.20
  -7  -6 -13   15.40    4.60
   7  -6  13    9.70    3.50
   7   6  13   10.90    4.50
  -8  -6 -13    0.60    4.10
   8  -6  13    4.20    3.30
   8   6  13    0.60    3.90
  -9  -6 -13    8.00    4.60
   9  -6  13    4.60    3.40
 -10  -6 -13   28.50    6.50
  10  -6  13   24.70    4.90
  11  -6  13    7.80    4.10
 -11  -6 -13    4.60    5.00
 -12  -6 -13   13.80    6.10
 -13  -6 -13    5.00    5.80
 -13  -7  13    5.00    5.30
 -12  -7  13   -3.20    4.30
 -11  -7  13  120.09   11.40
 -10  -7  13   12.80    5.30
  -9  -7  13   50.99    7.30
  -9   7  13   47.70    3.60
  -8  -7  13   58.79    7.40
  -8   7  13   63.49    3.70
  -7  -7  13    2.90    4.00
  -7   7  13    3.50    1.40
  -6  -7  13  345.47   15.70
  -6   7  13  358.26   11.20
  -5  -7  13   -1.00    3.40
  -5   7  13    0.60    1.30
  -4  -7  13   58.49    6.40
  -4   7  13   49.90    3.30
  -3  -7  13   18.00    4.30
  -3   7  13   20.70    2.50
   2  -7 -13   53.39    2.90
  -2  -7  13   58.99    6.20
   2  -7 -13   58.19    2.90
  -2   7  13   61.89    4.00
  -1  -7  13  295.07   12.60
   1  -7 -13  294.97   10.20
   1  -7 -13  278.37   10.10
  -1   7  13  307.17   10.90
   0  -7  13    0.00    2.70
   0  -7 -13   -2.20    1.80
   0  -7 -13    1.20    2.10
   0   7  13   -0.80    2.10
  -1  -7 -13  303.87   11.70
   1  -7  13  306.47   12.60
  -1  -7 -13  291.77   11.50
   1   7  13  301.67   11.90
  -2  -7 -13   58.89    5.20
   2  -7  13   48.20    5.20
  -2  -7 -13   56.19    5.40
   2   7  13   55.99    5.30
   3  -7  13   15.20    3.70
  -3  -7 -13   13.80    3.60
  -3  -7 -13   12.80    3.80
   3   7  13   13.20    3.60
   4  -7  13   60.69    5.70
  -4  -7 -13   50.29    5.70
  -4  -7 -13   53.49    5.70
   4   7  13   65.79    6.50
  -5  -7 -13   -4.30    3.30
   5  -7  13    0.50    2.90
   5   7  13    2.10    3.30
   6  -7  13  396.06   15.00
  -6  -7 -13  376.56   16.50
   6   7  13  349.57   16.00
  -7  -7 -13    5.60    4.10
   7  -7  13    1.40    3.00
   7   7  13    3.20    3.80
  -8  -7 -13   56.59    7.50
   8  -7  13   56.79    5.70
  -9  -7 -13   43.80    7.20
   9  -7  13   47.80    5.60
  10  -7  13   19.90    4.50
 -10  -7 -13   25.60    6.40
  11  -7  13  125.89    8.70
 -11  -7 -13  130.29   12.00
 -12  -7 -13   -4.90    5.00
 -13  -7 -13    6.20    6.80
 -12  -8  13   19.30    7.00
 -11  -8  13  104.69   10.70
 -10  -8  13  128.29   11.70
  -9  -8  13   34.20    6.60
  -8  -8  13   18.00    5.30
  -8   8  13   22.00    1.90
  -7  -8  13  103.09    9.40
  -7   8  13  111.99    4.20
  -6  -8  13   48.90    6.70
  -6   8  13   52.99    2.70
  -5  -8  13  342.07   15.20
  -5   8  13  320.37   10.30
  -4  -8  13   25.60    5.00
  -4   8  13   32.50    2.60
  -3  -8  13   13.50    4.20
  -3   8  13   21.30    2.50
   2  -8 -13  443.46   12.80
  -2  -8  13  441.16   17.20
   2  -8 -13  441.36   12.80
  -2   8  13  431.86   14.50
  -1  -8  13    3.00    3.10
   1  -8 -13    7.00    1.80
   1  -8 -13    5.70    1.90
  -1   8  13    5.40    2.40
   0  -8 -13  344.57   12.30
   0  -8  13  355.26   14.20
   0  -8 -13  332.97   12.20
   0   8  13  346.57   12.90
  -1  -8 -13    3.90    2.40
   1  -8  13    4.30    3.00
  -1  -8 -13    3.30    2.50
   1   8  13    2.00    2.70
  -2  -8 -13  442.46   16.10
  -2  -8 -13  427.76   16.20
   2  -8  13  463.95   16.90
   2   8  13  441.06   16.40
  -3  -8 -13   19.40    4.10
  -3  -8 -13   18.70    4.20
   3  -8  13   24.80    4.20
   3   8  13   21.60    4.20
   4  -8  13   25.20    4.20
  -4  -8 -13   27.10    4.70
  -4  -8 -13   33.10    4.70
   4   8  13   32.00    5.40
   5  -8  13  335.77   13.60
  -5  -8 -13  347.37   15.20
   5   8  13  321.57   14.70
  -6  -8 -13   51.79    6.80
   6  -8  13   48.80    5.30
   7  -8  13  117.99    7.40
  -7  -8 -13  115.89    9.10
  -8  -8 -13    9.60    4.80
   8  -8  13   21.00    4.10
  -9  -8 -13   37.80    7.30
   9  -8  13   41.60    5.40
 -10  -8 -13   89.69   10.10
  10  -8  13   99.09    7.30
  11  -8  13   97.59    7.40
 -11  -8 -13   84.99   10.30
 -12  -8 -13   22.60    7.00
 -12  -9  13    1.30    5.60
 -11  -9  13   -5.00    4.40
 -10  -9  13    9.30    5.50
  -9  -9  13  192.48   12.80
  -8  -9  13  168.28   11.70
  -7  -9  13  264.17   14.20
  -6  -9  13  122.39   10.10
  -5  -9  13    3.10    4.10
  -5   9  13    7.10    1.40
  -4  -9  13   14.00    4.40
  -4   9  13   12.10    2.00
  -3  -9  13  230.08   11.80
  -3   9  13  226.68    8.50
  -2  -9  13    2.10    3.40
  -2   9  13    0.10    1.90
  -1  -9  13   38.70    5.40
   1  -9 -13   38.10    3.20
  -1   9  13   44.50    4.20
   0  -9 -13   -1.00    2.00
   0  -9 -13   -3.60    1.90
   0  -9  13   -4.80    2.70
   0   9  13   -2.60    2.20
  -1  -9 -13   39.60    4.50
  -1  -9 -13   45.60    4.50
   1  -9  13   36.30    5.20
   1   9  13   43.10    4.90
  -2  -9 -13    1.40    2.80
  -2  -9 -13   -2.90    2.50
   2  -9  13    1.90    3.30
   2   9  13   -5.00    2.80
  -3  -9 -13  232.58   11.00
   3  -9  13  225.08   10.80
  -3  -9 -13  210.38   10.90
   3   9  13  244.68   11.50
  -4  -9 -13   20.60    4.70
   4  -9  13   15.40    3.80
   4   9  13   14.00    4.20
   5  -9  13    3.60    3.10
  -5  -9 -13    5.40    3.90
  -6  -9 -13  128.59    9.10
   6  -9  13  112.19    7.30
  -7  -9 -13  260.37   14.00
   7  -9  13  280.97   12.00
  -8  -9 -13  133.99   10.60
   8  -9  13  169.88    8.80
  -9  -9 -13  214.28   13.80
   9  -9  13  201.48   10.30
 -10  -9 -13   18.90    6.40
  10  -9  13   10.60    3.70
 -11  -9 -13    2.50    5.60
 -12  -9 -13   -0.90    5.70
 -11 -10  13    6.40    5.50
 -10 -10  13   -2.70    4.70
  -9 -10  13    3.10    5.00
  -8 -10  13   29.80    6.60
  -7 -10  13    3.70    4.60
  -6 -10  13  197.88   12.30
  -5 -10  13   21.80    5.50
  -4 -10  13   37.50    6.10
  -3 -10  13  102.29    8.30
  -3  10  13   93.99    5.10
  -2 -10  13  142.89    9.80
  -2  10  13  160.58    7.20
   1 -10 -13  104.49    4.80
  -1 -10  13  105.19    8.70
  -1  10  13  101.39    6.10
   0 -10  13  116.09    8.00
   0 -10 -13  128.19    6.40
   0 -10 -13  122.29    6.20
   0  10  13  112.49    7.10
  -1 -10 -13  108.09    6.80
  -1 -10 -13   99.19    6.50
   1 -10  13  112.79    7.60
   1  10  13  123.29    7.40
  -2 -10 -13  149.59    8.40
   2 -10  13  154.48    9.00
  -2 -10 -13  146.39    8.20
  -3 -10 -13   97.79    7.50
   3 -10  13   96.29    7.20
  -3 -10 -13   87.19    7.10
   4 -10  13   45.80    5.30
  -4 -10 -13   37.00    5.40
   5 -10  13   17.30    4.00
  -5 -10 -13   28.50    5.50
  -6 -10 -13  222.68   12.40
   6 -10  13  223.28   10.50
   7 -10  13   -0.10    2.90
  -7 -10 -13    6.80    4.40
   8 -10  13   39.00    4.90
  -8 -10 -13   36.40    6.70
  -9 -10 -13    2.00    4.60
   9 -10  13    0.30    3.00
 -10 -10 -13   10.40    5.70
  10 -10  13    8.90    3.20
 -11 -10 -13   -1.10    5.40
 -11 -11  13    4.40    5.80
 -10 -11  13    0.90    5.30
  -9 -11  13  238.38   15.00
  -8 -11  13   85.99    9.90
  -7 -11  13   88.89    9.70
  -6 -11  13   10.90    4.90
  -5 -11  13    5.50    4.50
  -4 -11  13  203.48   12.40
  -3 -11  13   52.99    7.00
  -2 -11  13   -3.30    3.80
  -1 -11  13   64.99    7.10
   1 -11 -13   60.09    3.50
   1 -11 -13   68.39    3.70
   0 -11 -13   -0.50    2.00
   0 -11 -13    3.20    2.20
   0 -11  13   -6.80    3.20
  -1 -11 -13   64.39    5.40
   1 -11  13   72.09    6.80
  -1 -11 -13   68.39    5.50
  -2 -11 -13    0.40    2.90
  -2 -11 -13   -2.90    2.60
   2 -11  13    1.00    3.20
   3 -11  13   64.49    6.40
  -3 -11 -13   65.29    6.60
   4 -11  13  220.28   10.70
  -4 -11 -13  211.48   11.30
  -5 -11 -13    1.80    3.90
   5 -11  13   -1.00    2.70
  -6 -11 -13    7.50    4.90
   6 -11  13    6.70    3.40
  -7 -11 -13   90.19    9.20
   7 -11  13   83.99    6.50
  -8 -11 -13  111.29   10.90
   8 -11  13  102.69    6.80
  -9 -11 -13  217.28   14.20
   9 -11  13  226.98    9.90
 -10 -11 -13   -5.60    5.50
 -11 -11 -13    6.20    5.90
 -10 -12  13   -0.90    5.40
  -9 -12  13   82.59   10.70
  -8 -12  13   -0.40    4.80
  -7 -12  13  117.49   11.30
  -6 -12  13   -7.90    4.30
  -5 -12  13  125.99   10.10
  -4 -12  13   13.60    5.50
  -3 -12  13   61.79    7.50
  -2 -12  13  195.68   11.30
   1 -12 -13    5.70    1.40
   1 -12 -13    7.50    1.50
  -1 -12  13    4.50    4.30
   0 -12 -13  266.37   10.50
   0 -12  13  295.87   13.70
  -1 -12 -13    4.90    2.80
   1 -12  13   11.80    4.10
  -2 -12 -13  182.08    9.40
   2 -12  13  184.28   10.20
  -3 -12 -13   50.59    6.10
   3 -12  13   64.99    6.50
   4 -12  13   14.20    4.00
  -4 -12 -13   13.00    4.40
   5 -12  13  128.59    7.90
  -5 -12 -13  125.99    9.60
  -6 -12 -13    0.00    3.90
   6 -12  13   -2.50    2.60
  -7 -12 -13  133.09   10.30
   7 -12  13  118.49    7.30
  -8 -12 -13   -4.60    4.00
   8 -12  13    1.00    2.60
  -9 -12 -13  108.49   11.40
 -10 -12 -13   14.90    6.50
  -9 -13  13    4.70    5.90
  -8 -13  13   30.30    7.30
  -7 -13  13   51.09    8.70
  -6 -13  13   14.30    5.80
  -5 -13  13   14.70    5.90
  -4 -13  13   14.20    5.40
  -3 -13  13   21.00    5.70
  -2 -13  13    3.20    4.30
  -1 -13  13    1.80    3.90
   0 -13  13   -5.00    2.90
   0 -13 -13    0.00    2.10
   1 -13  13    6.20    4.00
  -1 -13 -13    7.70    3.00
  -2 -13 -13    0.50    3.20
   2 -13  13    6.50    3.90
   3 -13  13   10.90    3.70
  -3 -13 -13   16.60    4.20
  -4 -13 -13   18.80    4.70
   4 -13  13   14.60    4.00
   5 -13  13    9.20    3.50
  -5 -13 -13   11.30    4.60
  -6 -13 -13   16.20    5.50
   6 -13  13   17.10    3.70
   7 -13  13   60.49    5.20
  -7 -13 -13   59.89    8.40
  -8 -13 -13   34.80    7.10
  -9 -13 -13    6.00    5.40
  -8 -14  13   -7.70    5.80
  -7 -14  13   21.20    6.50
  -6 -14  13    4.20    5.50
  -5 -14  13   73.29    9.00
  -4 -14  13    2.10    4.90
  -3 -14  13    4.10    4.40
  -2 -14  13    7.00    4.90
  -1 -14  13   11.10    4.80
   0 -14 -13   87.39    5.20
   0 -14  13   83.39    8.20
   1 -14  13    7.20    4.40
  -1 -14 -13   10.40    3.20
   2 -14  13    4.80    4.00
  -2 -14 -13    6.10    3.30
  -3 -14 -13    9.80    4.30
   3 -14  13   10.30    4.00
  -4 -14 -13   -2.80    3.60
   4 -14  13    0.80    3.20
   5 -14  13   78.19    6.70
  -5 -14 -13   83.79    8.70
  -6 -14 -13    3.10    4.30
   6 -14  13    3.00    2.90
  -7 -14 -13   18.80    6.10
  -8 -14 -13    3.10    5.60
  -6 -15  13   22.60    7.10
  -5 -15  13   52.09    8.20
  -4 -15  13   14.60    5.90
  -3 -15  13   16.80    5.90
  -2 -15  13    5.20    4.60
  -1 -15  13  180.88   11.50
   0 -15  13    1.80    4.00
   1 -15  13  182.28   11.10
  -1 -15 -13  161.48    8.30
   2 -15  13    6.60    3.80
  -2 -15 -13    7.20    3.60
   3 -15  13   14.90    4.60
  -3 -15 -13   19.50    4.70
   4 -15  13   15.00    4.00
  -4 -15 -13   10.00    4.70
  -5 -15 -13   66.39    7.90
   5 -15  13   56.59    5.50
  -6 -15 -13   29.20    6.40
  -4 -16  13   32.40    7.20
  -3 -16  13   28.60    6.70
  -2 -16  13   15.40    5.60
  -1 -16  13   11.40    5.30
   0 -16  13   -3.30    3.70
   1 -16  13    3.70    4.20
  -2 -16 -13    9.70    3.70
   2 -16  13   22.40    5.20
  -3 -16 -13   12.10    4.40
   3 -16  13    9.00    4.00
   4 -16  13   46.90    5.50
  -4 -16 -13   47.70    6.80
 -14   0  14    1.20    4.90
 -13   0  14   75.99    8.20
 -12   0  14  291.87   13.90
 -11   0  14   44.80    6.00
 -10   0  14  162.78    9.60
   9   0 -14 1264.97   38.00
  -9   0  14 1150.28   38.10
   8   0 -14  140.69    7.80
  -8   0  14  129.09    8.00
  -7   0  14 1917.71   57.09
   7   0 -14 1930.41   56.79
  -6   0  14   52.59    5.00
   6   0 -14   58.09    5.20
  -5   0  14 1445.16   44.20
   5   0 -14 1525.25   44.30
   4   0 -14    7.80    2.60
  -4   0  14    6.90    2.60
   3   0 -14   -1.10    2.20
  -3   0  14    0.40    2.30
   2   0 -14   37.50    4.00
  -2   0  14   30.90    3.70
  -1   0  14  518.55   17.40
   0   0  14    5.00    2.70
   0   0 -14   12.10    2.90
  -1   0 -14  504.05   17.20
   1   0  14  513.35   17.40
  -2   0 -14   33.90    4.10
   2   0  14   32.10    4.10
   3   0  14   -0.90    2.40
  -3   0 -14    4.80    2.60
   4   0  14    9.80    3.20
  -4   0 -14   10.80    3.20
   5   0  14 1323.97   41.00
   6   0  14   57.29    5.90
   7   0  14 1965.30   59.49
   8   0  14  133.59    8.90
   9   0  14 1145.09   37.90
  10   0  14  156.88   10.30
  11   0  14   39.50    6.60
 -11   0 -14   43.10    6.90
 -12   0 -14  303.67   16.10
 -13   0 -14   84.09    9.60
 -14   0 -14   -1.60    5.40
 -14  -1  14    2.10    4.70
 -13  -1  14   89.69    9.30
 -13   1  14  102.69    9.00
 -12  -1  14   18.10    5.20
 -12   1  14   16.80    4.50
 -11  -1  14   90.19    8.30
 -11   1  14   91.09    7.40
 -10  -1  14   57.49    6.60
 -10   1  14   66.49    6.50
  -9  -1  14    2.40    3.40
   9  -1 -14   -4.20    2.10
  -9   1  14   -1.80    2.70
   9   1 -14   -2.00    2.90
   8  -1 -14  172.78    8.20
  -8  -1  14  171.48    9.10
  -8   1  14  145.29    8.30
   8   1 -14  163.38    8.90
  -7  -1  14  234.88   10.90
   7  -1 -14  231.48    9.70
  -7   1  14  217.58   10.00
   7   1 -14  239.38   10.70
  -6  -1  14  147.59    8.40
   6  -1 -14  156.48    7.50
  -6   1  14  169.68    8.00
   6   1 -14  157.28    8.40
  -5  -1  14  193.48    9.30
   5  -1 -14  185.58    8.10
  -5   1  14  184.68    8.40
   5   1 -14  198.28    8.90
   4  -1 -14  180.18    7.90
  -4  -1  14  199.18    9.10
  -4   1  14  175.78    8.20
   4   1 -14  201.18    8.80
   3  -1 -14  533.55   17.70
  -3  -1  14  513.25   18.30
   3   1 -14  610.14   18.70
  -3   1  14  528.35   17.80
   2  -1 -14    8.70    2.60
  -2  -1  14    6.90    2.70
  -2   1  14    8.00    2.50
   2   1 -14   12.80    3.20
   1  -1 -14  386.26   13.40
  -1  -1  14  354.16   13.70
  -1   1  14  402.36   13.60
   1   1 -14  382.56   13.80
   0  -1  14   -1.20    2.30
   0  -1 -14   -0.90    2.10
   0   1 -14    1.20    2.30
   0   1  14   -1.40    2.60
  -1  -1 -14  401.66   14.20
   1  -1  14  430.56   14.70
  -1   1 -14  400.66   14.40
   1   1  14  368.06   14.10
   2  -1  14    7.10    2.90
  -2  -1 -14   10.50    3.00
  -2   1 -14   10.30    2.90
   2   1  14    9.40    3.00
  -3  -1 -14  501.25   17.90
   3  -1  14  550.24   18.40
   3   1  14  516.15   18.20
  -3   1 -14  528.25   18.10
  -4  -1 -14  171.28    8.60
   4  -1  14  183.98    8.80
   4   1  14  169.58    8.80
   5  -1  14  178.58    9.10
   5   1  14  177.98    9.20
   6  -1  14  150.78    8.70
   6   1  14  157.18    8.90
   7  -1  14  233.08   11.30
   7   1  14  239.98   11.60
   8  -1  14  147.99    9.20
   8   1  14  150.18    9.50
   9  -1  14    5.60    3.70
   9   1  14    1.90    4.10
  10  -1  14   58.49    7.20
 -10  -1 -14   72.59    8.10
  10   1  14   55.59    7.20
 -11  -1 -14   95.09    9.80
  11  -1  14  102.09    9.20
  11   1  14   91.39    9.30
 -12  -1 -14    7.20    5.20
 -12   1 -14    4.30    5.30
 -13  -1 -14  103.59   10.80
 -13   1 -14  100.09   10.40
 -14  -1 -14    3.00    5.80
 -14   1 -14    9.10    5.50
 -14  -2  14   26.80    6.50
 -13  -2  14   -4.10    4.00
 -12  -2  14  106.39    9.80
 -12   2  14  114.19    8.50
 -11  -2  14   46.10    6.40
 -11   2  14   41.10    5.40
 -10  -2  14   12.80    4.40
 -10   2  14    9.40    3.50
   9  -2 -14  149.19    7.50
  -9  -2  14  134.29    8.90
   9   2 -14  136.99    9.90
  -9   2  14  151.68    8.30
  -8  -2  14   20.70    4.90
   8  -2 -14   25.00    3.40
   8   2 -14   31.50    4.80
  -8   2  14   20.20    3.60
  -7  -2  14   85.69    7.20
   7  -2 -14  101.49    5.80
  -7   2  14  111.69    6.30
   7   2 -14   96.59    7.10
   6  -2 -14   97.19    5.40
  -6  -2  14   99.29    6.80
  -6   2  14   99.79    5.90
   6   2 -14  100.49    7.00
  -5  -2  14   75.39    6.10
   5  -2 -14   80.49    4.90
  -5   2  14   92.49    5.50
   5   2 -14   78.69    5.90
  -4  -2  14  691.33   23.10
   4  -2 -14  671.73   21.50
   4   2 -14  717.43   23.00
  -4   2  14  696.83   21.90
   3  -2 -14  312.37   11.30
  -3  -2  14  324.67   12.70
  -3   2  14  321.07   11.70
   3   2 -14  345.87   12.70
   2  -2 -14  726.13   22.80
  -2  -2  14  741.03   23.80
   2   2 -14  750.02   23.80
  -2   2  14  724.73   23.00
   1  -2 -14   12.60    2.70
  -1  -2  14   11.00    3.00
   1   2 -14   10.30    2.90
  -1   2  14   10.60    2.80
   0  -2 -14 2146.89   59.19
   0  -2  14 2008.20   59.69
   0   2 -14 1942.21   59.49
   0   2  14 2075.29   59.29
   1  -2  14   12.20    3.20
  -1  -2 -14   11.40    3.10
  -1   2 -14   10.70    2.90
   1   2  14   10.20    2.90
   2  -2  14  721.73   23.90
  -2  -2 -14  748.83   23.70
  -2   2 -14  739.23   23.80
   2   2  14  733.23   23.80
  -3  -2 -14  319.87   12.50
   3  -2  14  337.77   12.80
   3   2  14  298.77   12.40
  -3   2 -14  318.17   12.40
  -4  -2 -14  647.24   22.30
   4  -2  14  665.33   22.40
   4   2  14  677.33   22.60
   5  -2  14   80.19    6.30
   5   2  14   87.49    6.70
   6  -2  14  101.89    7.00
   6   2  14   91.69    7.20
   7  -2  14  108.49    7.40
   7   2  14   90.19    7.50
   8  -2  14   16.40    4.20
   8   2  14   30.70    5.30
  -9  -2 -14  172.38   10.80
   9  -2  14  141.59    9.40
   9   2  14  164.28   10.30
  10  -2  14    9.80    4.70
 -10  -2 -14   16.90    5.30
  10   2  14   23.20    5.30
  11  -2  14   46.80    6.50
 -11  -2 -14   43.80    7.10
 -12  -2 -14  116.99   11.00
 -12   2 -14  104.49   10.10
 -13  -2 -14   -5.20    4.50
 -13   2 -14   -3.40    4.80
 -14  -2 -14   17.90    6.70
 -14   2 -14    4.50    5.20
 -14  -3  14   28.20    6.50
 -13  -3  14  332.27   16.60
 -12  -3  14   10.90    4.80
 -12   3  14    4.90    3.70
 -11  -3  14   84.49    8.40
 -11   3  14  101.79    7.10
 -10  -3  14    5.70    3.90
 -10   3  14    1.90    2.80
  -9  -3  14   24.90    5.30
  -9   3  14   18.40    3.60
  -8  -3  14    3.90    3.60
   8  -3 -14    2.50    1.90
  -8   3  14    3.50    2.40
   7  -3 -14   48.60    3.80
  -7  -3  14   47.50    5.90
  -7   3  14   55.29    4.70
   6  -3 -14   59.29    4.00
  -6  -3  14   59.19    6.10
   6   3 -14   80.19    6.90
  -6   3  14   65.09    4.80
   5  -3 -14   70.39    4.10
  -5  -3  14   67.09    6.20
   5   3 -14   64.89    6.10
  -5   3  14   73.39    4.80
   4  -3 -14   11.80    2.10
  -4  -3  14    8.30    3.20
   4   3 -14    4.70    2.80
  -4   3  14    4.20    2.20
   3  -3 -14 2419.76   69.39
  -3  -3  14 2365.66   71.29
  -3   3  14 2504.15   69.79
   3   3 -14 2514.25   71.39
   2  -3 -14   40.50    3.50
  -2  -3  14   47.80    4.90
   2   3 -14   53.19    4.90
  -2   3  14   42.20    3.90
   1  -3 -14 1428.96   40.80
  -1  -3  14 1402.56   42.10
   1   3 -14 1342.47   41.80
  -1   3  14 1388.76   40.90
   0  -3 -14    0.80    2.20
   0  -3  14    0.30    2.50
   0   3  14    0.50    2.40
   0   3 -14   -3.50    1.80
   1  -3  14 1359.66   42.50
  -1  -3 -14 1466.75   42.10
   1   3  14 1365.66   42.00
  -1   3 -14 1460.65   42.60
   2  -3  14   39.00    4.40
  -2  -3 -14   47.30    4.80
   2   3  14   37.30    4.30
  -2   3 -14   42.00    4.50
   3  -3  14 2338.27   70.69
  -3  -3 -14 2547.84   70.79
   3   3  14 2408.76   70.69
  -4  -3 -14    7.80    3.10
   4  -3  14   12.10    3.40
   4   3  14    7.10    3.30
   5  -3  14   72.79    5.90
   5   3  14   67.09    6.30
   6  -3  14   74.19    6.60
   6   3  14   54.49    6.20
   7  -3  14   51.59    5.70
   7   3  14   56.99    6.50
  -8  -3 -14    3.80    4.00
   8  -3  14    8.00    4.10
   8   3  14    0.90    3.70
  -9  -3 -14   14.80    4.90
   9  -3  14   16.30    4.70
   9   3  14   24.10    5.40
 -10  -3 -14    2.40    4.30
  10  -3  14   -1.40    3.60
  10   3  14    0.20    4.20
 -11  -3 -14   96.19    9.80
  11  -3  14   96.99    8.90
 -12  -3 -14    0.40    4.70
 -13  -3 -14  355.46   18.30
 -13   3 -14  308.57   16.60
 -14  -3 -14   19.00    6.70
 -14   3 -14   10.90    6.10
 -13  -4  14    2.70    4.50
 -12  -4  14   38.40    6.80
 -11  -4  14   45.60    6.90
 -11   4  14   45.10    5.10
 -10  -4  14   15.40    4.80
 -10   4  14   14.70    3.30
  -9  -4  14  319.17   15.00
  -9   4  14  326.37   12.40
  -8  -4  14   18.30    5.20
  -8   4  14   17.60    3.10
  -7  -4  14 1028.80   34.20
  -7   4  14 1042.00   31.30
   6  -4 -14   25.10    2.10
  -6  -4  14   23.90    4.90
  -6   4  14   18.50    2.80
  -5  -4  14   47.50    5.60
  -5   4  14   36.10    3.40
  -4  -4  14   -2.00    2.70
   4  -4 -14    1.10    1.00
  -4   4  14   -2.20    1.70
   4   4 -14    3.50    2.80
   3  -4 -14  417.26   13.50
  -3  -4  14  413.66   15.90
   3   4 -14  445.26   16.00
  -3   4  14  419.16   14.00
  -2  -4  14   64.49    5.80
   2  -4 -14   63.39    3.90
  -2   4  14   63.69    4.30
   2   4 -14   70.19    5.50
  -1  -4  14 1029.40   33.00
   1  -4 -14 1066.39   31.50
   1   4 -14 1065.49   33.00
  -1   4  14 1058.19   31.70
   0  -4 -14  114.29    5.80
   0  -4  14  121.89    7.00
   0   4  14  121.69    6.10
   0   4 -14  107.49    6.70
   1  -4  14 1050.69   33.00
  -1  -4 -14 1040.80   32.20
   1   4  14 1088.29   32.50
  -1   4 -14 1049.70   32.90
  -2  -4 -14   59.59    5.30
   2  -4  14   69.79    5.50
   2   4  14   58.39    5.20
   3  -4  14  418.56   15.50
  -3  -4 -14  435.16   15.40
   3   4  14  394.36   15.40
   4  -4  14   -1.30    2.50
  -4  -4 -14    1.00    2.50
   4   4  14   -5.00    2.90
   5  -4  14   36.70    4.70
   5   4  14   33.40    4.90
   6  -4  14   19.60    4.20
  -6  -4 -14   20.00    4.60
   6   4  14   31.80    5.00
  -7  -4 -14 1062.49   35.40
   7  -4  14 1070.29   34.30
   7   4  14 1043.70   35.20
  -8  -4 -14   14.90    4.80
   8  -4  14   12.20    4.00
   8   4  14   18.00    4.90
   9  -4  14  325.77   14.70
  -9  -4 -14  354.66   16.70
   9   4  14  317.77   16.00
  10  -4  14    5.00    3.90
 -10  -4 -14   10.50    5.30
  11  -4  14   49.99    6.70
 -11  -4 -14   36.80    7.60
 -12  -4 -14   36.10    7.80
 -13  -4 -14    4.00    6.20
 -13   4 -14    6.10    4.60
 -13  -5  14    1.60    5.00
 -12  -5  14    2.30    4.40
 -11  -5  14    2.50    4.30
 -10  -5  14   20.30    5.30
 -10   5  14   21.30    3.60
  -9  -5  14   10.50    5.00
  -9   5  14    7.80    2.60
  -8  -5  14   15.50    4.60
  -8   5  14   19.80    3.00
  -7  -5  14   18.00    5.00
  -7   5  14   16.70    2.70
  -6  -5  14   19.60    4.60
  -6   5  14   25.30    2.80
  -5  -5  14    7.80    3.70
  -5   5  14    8.00    2.00
  -4  -5  14   -1.00    2.90
   4  -5 -14    0.30    0.90
  -4   5  14    0.80    1.80
  -3  -5  14    6.00    3.40
  -3   5  14   13.30    2.30
   2  -5 -14   43.50    3.30
  -2  -5  14   47.30    5.40
  -2   5  14   39.60    3.60
  -1  -5  14    0.70    2.70
   1  -5 -14    1.40    1.90
  -1   5  14    1.90    2.10
   0  -5  14    1.80    2.80
   0  -5 -14   -0.40    1.90
   0   5  14    1.30    2.20
  -1  -5 -14    0.20    2.30
   1  -5  14   -0.20    2.70
   1   5  14    0.70    2.50
   2  -5  14   44.70    4.90
  -2  -5 -14   55.69    5.20
   2   5  14   44.10    4.70
   3  -5  14    9.90    3.40
  -3  -5 -14   11.60    3.40
   3   5  14    8.40    3.20
   4  -5  14    4.70    3.30
  -4  -5 -14   -5.70    2.70
  -4  -5 -14   -0.10    2.50
   4   5  14   -0.60    3.00
   5  -5  14    2.40    2.90
  -5  -5 -14   10.50    3.70
   5   5  14    4.70    3.30
   6  -5  14   16.20    3.70
  -6  -5 -14   19.40    4.70
   6   5  14   28.40    5.00
  -7  -5 -14   17.60    4.80
   7  -5  14   20.10    4.30
   7   5  14   14.00    4.50
  -8  -5 -14   23.30    5.40
   8  -5  14   15.00    4.20
   8   5  14   19.30    5.20
  -9  -5 -14   10.90    4.80
   9  -5  14    9.70    4.10
   9   5  14    9.30    4.60
 -10  -5 -14   24.40    6.00
  10  -5  14   19.70    4.80
  11  -5  14   -1.00    3.70
 -11  -5 -14    8.20    5.10
 -12  -5 -14    1.90    5.40
 -13  -5 -14   -2.70    5.70
 -13  -6  14   53.19    8.50
 -12  -6  14   37.70    7.20
 -11  -6  14   -4.20    4.10
 -10  -6  14   -7.60    3.50
  -9  -6  14  338.87   16.60
  -9   6  14  371.86   12.80
  -8  -6  14   -6.80    3.30
  -8   6  14   -1.00    1.80
  -7  -6  14  253.07   13.00
  -7   6  14  247.58    9.00
  -6  -6  14   65.29    7.10
  -6   6  14   68.39    4.00
  -5  -6  14   41.30    5.80
  -5   6  14   41.00    3.20
  -4  -6  14  332.57   14.20
  -4   6  14  320.37   10.90
   3  -6 -14  850.61   23.70
   3  -6 -14  820.22   23.70
  -3  -6  14  824.32   27.90
  -3   6  14  833.22   25.10
  -2  -6  14  857.71   28.70
   2  -6 -14  848.52   25.60
  -2   6  14  896.31   26.40
   1  -6 -14  455.45   14.60
   1  -6 -14  445.26   14.70
  -1  -6  14  444.06   16.80
  -1   6  14  431.86   14.90
   0  -6 -14   86.69    5.20
   0  -6 -14   94.89    5.50
   0  -6  14   93.79    6.90
   0   6  14   94.99    5.50
  -1  -6 -14  445.76   15.70
  -1  -6 -14  439.96   15.90
   1  -6  14  451.95   16.80
   1   6  14  468.35   16.10
  -2  -6 -14  895.71   29.10
   2  -6  14  876.61   29.40
  -2  -6 -14 1000.30   29.40
   2   6  14  895.41   29.10
  -3  -6 -14  805.42   26.70
  -3  -6 -14  826.72   27.10
   3  -6  14  819.82   26.90
   3   6  14  828.82   27.20
  -4  -6 -14  306.27   13.20
  -4  -6 -14  338.67   14.10
   4  -6  14  334.17   13.20
   4   6  14  310.17   13.50
   5  -6  14   40.20    5.00
  -5  -6 -14   42.50    5.90
   5   6  14   42.00    5.60
   6  -6  14   65.89    6.10
  -6  -6 -14   68.89    7.10
   6   6  14   71.59    7.50
  -7  -6 -14  249.68   12.90
   7  -6  14  251.87   11.50
   7   6  14  220.28   12.50
  -8  -6 -14   -2.90    3.60
   8  -6  14    3.10    3.40
   8   6  14   -5.00    3.70
  -9  -6 -14  397.76   18.30
   9  -6  14  388.76   16.10
  10  -6  14   -0.40    3.40
 -10  -6 -14   -3.70    4.10
 -11  -6 -14    1.70    4.90
  11  -6  14   -0.70    3.70
 -12  -6 -14   36.60    7.60
 -13  -6 -14   32.50    8.50
 -13  -7  14  133.69   12.70
 -12  -7  14    8.40    5.40
 -11  -7  14   50.99    8.30
 -10  -7  14   -5.20    4.00
  -9  -7  14   28.30    6.10
  -8  -7  14    2.00    4.10
  -8   7  14    0.40    1.60
  -7  -7  14  308.87   14.90
  -7   7  14  300.87   10.20
  -6  -7  14   -1.40    3.70
  -6   7  14   -0.50    1.40
  -5  -7  14  213.08   11.80
  -5   7  14  239.58    8.20
  -4  -7  14   23.60    4.80
  -4   7  14   20.10    2.40
  -3  -7  14  260.87   12.40
  -3   7  14  274.47    9.70
  -2  -7  14    9.30    3.60
   2  -7 -14    8.30    1.70
  -2   7  14    8.50    2.20
  -1  -7  14   43.10    5.50
   1  -7 -14   49.20    3.90
   1  -7 -14   41.40    3.50
  -1   7  14   49.90    4.30
   0  -7 -14   -2.00    2.00
   0  -7  14   -3.70    2.60
   0  -7 -14    3.50    2.20
   0   7  14    0.30    2.40
   1  -7  14   45.90    5.20
  -1  -7 -14   47.30    4.70
  -1  -7 -14   42.50    4.50
   1   7  14   50.29    4.90
  -2  -7 -14    9.20    3.40
   2  -7  14   12.00    3.50
  -2  -7 -14   12.10    3.30
   2   7  14    5.80    2.90
   3  -7  14  258.87   11.30
  -3  -7 -14  253.37   11.60
  -3  -7 -14  249.38   11.00
   3   7  14  249.68   11.40
  -4  -7 -14   11.50    3.60
  -4  -7 -14   20.40    4.30
   4  -7  14   25.20    4.10
   4   7  14   25.80    4.60
  -5  -7 -14  236.58   12.00
   5  -7  14  229.28   10.60
   5   7  14  214.48   11.40
   6  -7  14   -0.80    3.10
  -6  -7 -14    3.40    3.70
   6   7  14   -2.00    3.50
   7  -7  14  312.67   13.30
  -7  -7 -14  314.77   15.00
   7   7  14  299.27   14.90
  -8  -7 -14   -2.20    4.10
   8  -7  14    0.40    3.00
  -9  -7 -14   22.30    5.80
   9  -7  14   21.20    4.60
  10  -7  14    2.40    3.60
 -10  -7 -14   -0.80    4.40
 -11  -7 -14   51.79    8.40
  11  -7  14   48.00    6.20
 -12  -7 -14    3.60    5.50
 -13  -7 -14  155.08   14.60
 -12  -8  14   22.10    6.60
 -11  -8  14    5.30    5.20
 -10  -8  14    0.10    4.80
  -9  -8  14    3.70    4.80
  -8  -8  14   24.50    5.80
  -7  -8  14    7.30    4.60
  -7   8  14    5.40    1.40
  -6  -8  14    1.70    4.00
  -6   8  14    6.10    1.40
  -5  -8  14   57.49    7.20
  -5   8  14   66.49    3.50
  -4  -8  14  139.49    9.30
  -4   8  14  133.39    5.70
  -3  -8  14    1.60    3.30
  -3   8  14    3.70    1.90
   2  -8 -14   10.20    1.40
   2  -8 -14   11.80    1.50
  -2  -8  14   12.00    4.10
  -2   8  14   14.00    2.60
  -1  -8  14   48.20    5.90
   1  -8 -14   48.50    3.70
   1  -8 -14   46.00    3.60
  -1   8  14   56.29    4.60
   0  -8 -14  229.78    9.50
   0  -8  14  245.88   11.60
   0  -8 -14  250.97    9.80
   0   8  14  248.28   10.20
  -1  -8 -14   52.29    4.70
  -1  -8 -14   50.29    4.80
   1  -8  14   43.80    5.30
   1   8  14   40.30    4.50
  -2  -8 -14   11.40    3.20
  -2  -8 -14   13.70    3.50
   2  -8  14   17.50    4.20
   2   8  14   14.30    3.40
  -3  -8 -14    5.00    3.20
  -3  -8 -14    4.50    3.10
   3  -8  14    5.60    3.00
   3   8  14    3.40    3.50
  -4  -8 -14  147.89    9.30
   4  -8  14  147.19    8.20
   4   8  14  153.68    9.20
  -5  -8 -14   63.49    7.20
   5  -8  14   57.79    5.90
   5   8  14   72.89    7.40
   6  -8  14    4.70    3.40
  -6  -8 -14    0.60    3.60
   6   8  14    7.60    4.50
  -7  -8 -14    7.20    4.70
   7  -8  14    5.40    3.30
  -8  -8 -14   14.40    5.00
   8  -8  14    9.80    3.60
  -9  -8 -14    2.40    4.50
   9  -8  14   -1.20    3.10
 -10  -8 -14   10.50    5.70
  10  -8  14    6.70    3.70
  11  -8  14    6.40    3.60
 -11  -8 -14    7.90    5.80
 -12  -8 -14   15.70    6.70
 -12  -9  14    0.50    5.30
 -11  -9  14   10.40    5.70
 -10  -9  14   19.00    6.10
  -9  -9  14   83.69    9.40
  -8  -9  14    1.40    4.50
  -7  -9  14   48.40    7.60
  -6  -9  14   34.60    6.30
  -6   9  14   39.20    2.20
  -5  -9  14   -1.90    3.80
  -5   9  14   10.80    1.80
  -4  -9  14    1.00    3.70
  -4   9  14    1.40    1.60
  -3  -9  14  222.98   12.00
  -3   9  14  234.88    8.80
  -2  -9  14   -4.80    3.00
  -2   9  14   -1.80    1.80
  -1  -9  14   18.80    4.40
   1  -9 -14   22.70    2.60
  -1   9  14   24.40    3.50
   0  -9 -14    1.60    2.10
   0  -9 -14    1.10    2.10
   0  -9  14   -0.50    2.90
   0   9  14   -3.40    2.20
   1  -9  14   15.70    4.30
  -1  -9 -14   23.30    3.60
  -1  -9 -14   17.40    3.50
   1   9  14   25.90    3.90
   2  -9  14    3.40    3.10
  -2  -9 -14    4.30    3.00
  -2  -9 -14    0.10    2.80
   2   9  14    2.60    3.10
  -3  -9 -14  215.38   10.90
  -3  -9 -14  240.48   11.40
   3  -9  14  244.68   11.10
   3   9  14  223.18   11.20
  -4  -9 -14    1.80    3.70
   4  -9  14    4.90    3.40
   4   9  14    0.00    3.20
   5  -9  14    9.90    3.70
  -5  -9 -14    4.10    4.00
   5   9  14   12.30    4.90
  -6  -9 -14   42.60    6.60
   6  -9  14   37.80    5.00
   7  -9  14   44.40    5.30
  -7  -9 -14   34.50    6.20
   8  -9  14    9.70    3.70
  -8  -9 -14    8.90    4.90
  -9  -9 -14   58.29    8.30
   9  -9  14   83.69    7.10
 -10  -9 -14   20.00    6.70
  10  -9  14   17.50    4.40
 -11  -9 -14    0.30    5.30
  11  -9  14    4.00    3.40
 -12  -9 -14   -6.30    5.50
 -11 -10  14    1.40    5.60
 -10 -10  14    7.50    5.70
  -9 -10  14  116.29   11.70
  -8 -10  14   17.70    5.80
  -7 -10  14   90.29    9.60
  -6 -10  14  119.09   10.60
  -5 -10  14   16.90    5.60
  -4 -10  14   53.49    7.10
  -4  10  14   62.19    3.80
  -3 -10  14  371.56   16.70
  -3  10  14  387.66   13.10
  -2 -10  14  157.08   10.20
  -2  10  14  147.69    7.20
  -1 -10  14   58.29    6.80
   1 -10 -14   64.59    3.80
  -1  10  14   55.29    5.00
   0 -10  14   93.29    8.20
   0 -10 -14   92.69    5.70
   0 -10 -14   92.49    5.60
   0  10  14  120.49    7.10
   1 -10  14   53.09    6.00
  -1 -10 -14   57.29    5.20
  -1 -10 -14   54.19    5.10
   1  10  14   56.39    5.80
   2 -10  14  173.08    9.70
  -2 -10 -14  166.18    8.80
  -2 -10 -14  146.79    8.60
   2  10  14  151.68    9.20
  -3 -10 -14  399.06   16.10
   3 -10  14  418.56   16.20
  -3 -10 -14  365.56   15.60
   3  10  14  406.76   16.60
  -4 -10 -14   46.70    6.20
   4 -10  14   51.69    5.70
   5 -10  14   29.40    4.70
  -5 -10 -14   27.30    5.70
  -6 -10 -14  115.89    9.20
   6 -10  14  137.09    8.30
   7 -10  14   91.99    6.90
  -7 -10 -14   85.39    9.00
   8 -10  14   20.60    4.10
  -8 -10 -14   19.70    5.80
  -9 -10 -14  123.09   11.40
   9 -10  14  122.99    8.00
 -10 -10 -14   -4.90    4.60
  10 -10  14    8.10    3.40
 -11 -10 -14   -0.70    5.60
 -10 -11  14   12.40    6.30
  -9 -11  14    2.00    5.10
  -8 -11  14    5.30    5.30
  -7 -11  14    4.50    4.80
  -6 -11  14   11.40    5.10
  -5 -11  14    4.70    4.40
  -4 -11  14   30.80    5.90
  -3 -11  14  101.39    9.40
  -2 -11  14   55.29    7.10
  -1 -11  14   78.89    7.60
   1 -11 -14   76.09    3.90
   1 -11 -14   87.19    4.10
   0 -11  14   -6.50    2.70
   0 -11 -14   -3.00    2.00
   0 -11 -14   -1.90    1.90
  -1 -11 -14   79.89    6.40
  -1 -11 -14   88.99    6.10
   1 -11  14   83.59    7.50
  -2 -11 -14   57.99    6.00
   2 -11  14   59.29    6.50
   3 -11  14  101.49    7.90
  -3 -11 -14   96.99    7.60
   4 -11  14   32.90    5.00
  -4 -11 -14   32.10    5.30
  -5 -11 -14   12.90    4.40
   5 -11  14   11.80    3.80
   6 -11  14   15.40    3.90
  -6 -11 -14    6.60    4.40
  -7 -11 -14    2.10    4.10
   7 -11  14   -0.80    2.80
   8 -11  14    1.30    3.00
  -8 -11 -14    6.80    5.00
   9 -11  14   -1.90    2.80
  -9 -11 -14    0.40    4.90
 -10 -11 -14   -6.00    5.10
 -10 -12  14   -0.60    5.40
  -9 -12  14   90.19   11.20
  -8 -12  14   -1.30    5.70
  -7 -12  14   58.39    8.60
  -6 -12  14   -1.80    4.20
  -5 -12  14   -0.60    4.30
  -4 -12  14   60.29    8.20
  -3 -12  14    7.90    4.40
  -2 -12  14   24.40    5.30
  -1 -12  14   59.99    7.00
   1 -12 -14   55.69    2.90
   1 -12 -14   56.89    2.90
   0 -12 -14   43.00    4.00
   0 -12  14   33.60    5.90
  -1 -12 -14   52.89    5.20
   1 -12  14   49.70    6.60
  -2 -12 -14   18.90    4.10
   2 -12  14   19.90    4.90
   3 -12  14   -0.50    3.50
  -3 -12 -14    0.20    3.40
   4 -12  14   64.19    6.50
  -4 -12 -14   69.19    7.40
  -5 -12 -14    2.90    3.90
   5 -12  14   -0.50    3.10
  -6 -12 -14   -4.40    4.20
   6 -12  14    2.80    3.30
   7 -12  14   47.10    5.20
  -7 -12 -14   52.19    7.80
   8 -12  14    3.40    3.00
  -8 -12 -14    8.60    5.80
  -9 -12 -14   80.79   10.00
 -10 -12 -14    3.50    5.50
  -9 -13  14    9.10    6.20
  -8 -13  14   -0.90    5.30
  -7 -13  14   -5.00    4.90
  -6 -13  14   -0.90    4.60
  -5 -13  14   13.90    5.80
  -4 -13  14   20.00    5.60
  -3 -13  14  374.16   17.50
  -2 -13  14   24.70    5.50
  -1 -13  14  105.99    9.50
   0 -13 -14   -1.90    2.10
   0 -13  14   -2.80    3.10
   1 -13  14  126.49    9.10
  -1 -13 -14  111.79    7.00
   2 -13  14   11.80    4.30
  -2 -13 -14   20.20    4.40
  -3 -13 -14  352.96   15.70
   3 -13  14  394.86   16.00
   4 -13  14   15.30    4.10
  -4 -13 -14   17.90    4.70
  -5 -13 -14   12.50    4.70
   5 -13  14   15.90    4.10
  -6 -13 -14   -3.60    3.50
   6 -13  14    5.90    3.20
   7 -13  14    0.00    2.70
  -7 -13 -14   -6.90    4.10
  -8 -13 -14   -2.20    4.60
  -9 -13 -14    6.50    5.70
  -7 -14  14   30.60    7.20
  -6 -14  14    1.20    5.40
  -5 -14  14   38.70    7.10
  -4 -14  14   56.19    8.00
  -3 -14  14   26.50    6.40
  -2 -14  14  119.09    9.50
  -1 -14  14   21.00    5.50
   0 -14 -14   65.09    4.50
   0 -14  14   62.49    7.30
  -1 -14 -14   19.00    3.70
   1 -14  14   23.00    5.10
   2 -14  14   93.89    8.40
  -2 -14 -14   93.89    7.10
  -3 -14 -14   30.30    5.30
   3 -14  14   33.00    5.60
  -4 -14 -14   58.69    7.20
   4 -14  14   62.39    6.60
   5 -14  14   26.60    4.60
  -5 -14 -14   35.50    6.30
   6 -14  14   -2.20    2.80
  -6 -14 -14   -5.60    4.20
  -7 -14 -14   32.40    7.10
  -6 -15  14    7.00    5.40
  -5 -15  14   15.60    6.30
  -4 -15  14   13.10    5.40
  -3 -15  14   29.80    6.30
  -2 -15  14   -2.50    4.20
  -1 -15  14    6.40    4.60
   0 -15  14   -3.20    3.70
  -1 -15 -14   -1.10    2.50
   1 -15  14   -0.10    3.90
  -2 -15 -14    0.30    3.20
   2 -15  14    0.30    4.00
  -3 -15 -14   39.10    5.80
   3 -15  14   37.70    6.10
  -4 -15 -14   14.60    4.80
   4 -15  14   15.80    4.30
  -5 -15 -14   -1.40    4.10
   5 -15  14    3.30    3.40
  -6 -15 -14   10.10    5.20
  -4 -16  14   -1.20    5.20
  -3 -16  14   62.59    8.30
  -2 -16  14   19.80    6.00
  -1 -16  14    3.50    4.60
   0 -16  14   -1.70    4.20
   1 -16  14    3.70    4.40
  -2 -16 -14   18.50    4.20
   2 -16  14   18.70    5.20
   3 -16  14   43.00    6.10
  -3 -16 -14   50.29    6.40
   4 -16  14    4.60    3.60
  -4 -16 -14    3.80    3.90
 -13   0  15    3.80    4.40
 -12   0  15   -3.90    2.90
 -11   0  15   -5.20    2.80
 -10   0  15   -0.50    2.80
  -9   0  15   -0.50    2.80
   9   0 -15    1.00    3.00
   8   0 -15   -1.70    2.50
  -8   0  15    1.90    3.20
  -7   0  15    0.30    3.00
   7   0 -15    1.90    2.60
   6   0 -15    0.40    2.50
  -6   0  15    0.50    2.50
   5   0 -15   -1.20    2.30
  -5   0  15    1.60    2.50
   4   0 -15    1.00    2.00
  -4   0  15    1.20    2.40
  -3   0  15    1.20    2.40
   3   0 -15   -0.30    2.00
  -2   0  15    0.00    2.40
   2   0 -15   -1.00    2.40
  -1   0  15    0.10    2.50
   1   0 -15   -0.80    2.20
   0   0 -15   -1.80    2.20
   0   0  15    1.50    2.60
   1   0  15    5.40    2.80
  -1   0 -15    0.00    2.40
  -2   0 -15    1.90    2.50
   2   0  15    8.50    3.00
   3   0  15   -1.60    2.60
  -3   0 -15   -0.50    2.30
   4   0  15    4.80    3.00
   5   0  15    2.50    3.00
   6   0  15    0.80    3.00
   7   0  15    3.60    3.40
   8   0  15    7.90    4.10
   9   0  15    1.20    3.70
  10   0  15    1.90    3.80
  11   0  15   -2.10    3.70
 -11   0 -15    6.00    4.60
 -12   0 -15    2.00    4.60
 -13   0 -15    6.00    5.30
 -14   0 -15    4.20    5.70
 -14  -1  15   18.60    6.10
 -13  -1  15    1.90    4.00
 -13   1  15   -0.70    3.70
 -12  -1  15  179.98   11.30
 -12   1  15  168.08   10.40
 -11  -1  15  386.16   16.80
 -11   1  15  406.76   16.60
 -10  -1  15   50.99    6.30
 -10   1  15   49.30    5.80
   9  -1 -15   -0.10    2.60
  -9  -1  15    3.20    3.70
   9   1 -15    9.80    3.80
  -9   1  15    1.60    3.00
   8  -1 -15   46.80    4.90
  -8  -1  15   32.60    4.90
   8   1 -15   50.49    5.60
  -8   1  15   46.20    5.10
  -7  -1  15   30.90    4.50
   7  -1 -15   28.50    3.90
  -7   1  15   36.10    4.40
   7   1 -15   37.40    4.80
  -6  -1  15 1040.80   33.30
   6  -1 -15 1053.19   32.30
   6   1 -15 1059.89   33.10
  -6   1  15 1046.70   32.50
   5  -1 -15  239.68    9.80
  -5  -1  15  234.18   10.50
   5   1 -15  264.07   10.90
  -5   1  15  246.88   10.20
  -4  -1  15  961.60   30.80
   4  -1 -15  970.90   30.00
  -4   1  15  995.60   30.40
   4   1 -15 1007.30   30.90
   3  -1 -15 1144.59   35.30
  -3  -1  15 1158.78   36.00
  -3   1  15 1167.68   35.50
   3   1 -15 1251.77   36.30
  -2  -1  15 1353.56   41.70
   2  -1 -15 1399.66   41.20
  -2   1  15 1349.36   41.20
   2   1 -15 1456.15   41.80
   1  -1 -15 1896.01   53.69
  -1  -1  15 1789.32   53.89
   1   1 -15 1824.62   53.89
  -1   1  15 1836.22   53.69
   0  -1  15   -3.20    2.30
   0  -1 -15    0.10    2.30
   0   1 -15   -1.70    2.20
   0   1  15   -1.60    2.30
  -1  -1 -15 1833.02   53.29
   1  -1  15 1809.02   53.49
  -1   1 -15 1785.82   53.29
   1   1  15 1824.52   53.39
   2  -1  15 1356.96   41.30
  -2  -1 -15 1409.86   41.10
   2   1  15 1316.07   41.00
  -2   1 -15 1350.56   41.10
   3  -1  15 1200.98   35.70
  -3  -1 -15 1124.39   35.20
  -3   1 -15 1109.19   35.10
   3   1  15 1113.79   35.30
   4  -1  15  969.60   30.70
   4   1  15  935.81   30.50
   5  -1  15  247.68   11.40
   5   1  15  229.88   11.10
   6  -1  15 1074.19   34.10
   6   1  15 1034.30   34.20
   7  -1  15   27.90    4.90
   7   1  15   26.80    4.80
   8  -1  15   38.00    5.80
   8   1  15   40.40    6.10
   9  -1  15    2.80    3.80
   9   1  15    7.50    4.20
 -10  -1 -15   46.90    7.00
  10  -1  15   58.59    7.50
  10   1  15   43.50    6.60
  11  -1  15  408.36   18.50
 -11  -1 -15  438.76   20.00
  11   1  15  438.06   19.60
 -12  -1 -15  173.78   12.30
 -12   1 -15  147.49   12.00
 -13  -1 -15   -0.10    5.30
 -13   1 -15    0.70    4.60
 -14  -1 -15   18.40    6.40
 -14   1 -15   19.90    6.60
 -14  -2  15   -0.80    5.10
 -13  -2  15   17.20    5.10
 -12  -2  15   67.29    8.00
 -12   2  15   64.09    7.00
 -11  -2  15  128.19    9.20
 -11   2  15  123.19    8.40
 -10  -2  15  130.49    9.40
 -10   2  15  137.19    8.10
   9  -2 -15    4.20    2.60
  -9  -2  15    6.80    3.60
  -9   2  15    9.60    3.30
  -8  -2  15   11.90    3.90
   8  -2 -15   12.90    2.90
  -8   2  15   16.80    3.60
   8   2 -15   14.80    3.80
  -7  -2  15   81.59    6.60
   7  -2 -15   88.99    5.40
   7   2 -15   77.49    6.80
  -7   2  15   80.59    5.80
   6  -2 -15   91.09    5.40
  -6  -2  15  100.19    7.20
   6   2 -15   83.29    6.20
  -6   2  15   83.59    5.60
   5  -2 -15 1030.20   31.30
  -5  -2  15 1024.50   32.90
  -5   2  15 1046.50   31.70
   5   2 -15 1054.09   32.90
   4  -2 -15  507.05   16.80
  -4  -2  15  510.95   18.20
   4   2 -15  524.95   18.10
  -4   2  15  507.55   17.10
   3  -2 -15   -1.00    1.90
  -3  -2  15   -2.70    2.60
   3   2 -15   -1.20    2.30
  -3   2  15    2.90    2.40
   2  -2 -15 1101.79   33.60
  -2  -2  15 1092.59   34.60
   2   2 -15 1156.18   34.70
  -2   2  15 1136.89   33.90
  -1  -2  15  181.88    8.90
   1  -2 -15  197.38    8.30
   1   2 -15  191.78    8.90
  -1   2  15  195.18    8.50
   0  -2 -15 2794.62   77.99
   0  -2  15 2759.32   78.69
   0   2 -15 2580.84   78.29
   0   2  15 2755.12   78.09
  -1  -2 -15  208.98    9.00
   1  -2  15  191.98    9.10
  -1   2 -15  182.28    8.80
   1   2  15  187.08    8.70
  -2  -2 -15 1182.88   34.40
   2  -2  15 1086.49   34.40
  -2   2 -15 1121.19   34.40
   2   2  15 1039.50   34.10
   3  -2  15   -2.30    2.50
  -3  -2 -15   -3.40    2.60
   3   2  15   -2.10    2.60
   4  -2  15  514.25   18.70
   4   2  15  532.95   18.90
   5  -2  15 1041.40   33.40
   5   2  15 1045.60   33.60
   6  -2  15   89.49    7.20
   6   2  15   75.79    7.20
   7  -2  15   98.89    7.40
   7   2  15   99.89    7.90
   8  -2  15   17.60    4.30
   8   2  15    9.70    4.20
  -9  -2 -15   10.50    4.70
   9  -2  15   11.10    4.20
   9   2  15   10.70    4.90
  10  -2  15  143.19    9.60
 -10  -2 -15  111.39   10.40
  10   2  15  144.89   10.70
 -11  -2 -15  105.59   10.40
  11  -2  15  116.09    9.30
  11   2  15  146.19   11.30
  12  -2  15   74.29    8.70
 -12  -2 -15   56.09    8.40
 -13  -2 -15   13.30    6.00
 -13   2 -15   29.80    6.90
 -14  -2 -15    6.00    5.90
 -14   2 -15   18.60    6.00
 -13  -3  15    2.00    4.40
 -12  -3  15    6.50    5.00
 -11  -3  15   -0.70    3.80
 -11   3  15   -2.40    2.90
 -10  -3  15   26.50    5.30
 -10   3  15   22.70    4.10
  -9  -3  15   68.29    7.20
  -9   3  15   63.89    5.60
  -8  -3  15   -0.40    3.40
   8  -3 -15    1.80    2.00
  -8   3  15   -0.10    2.50
  -7  -3  15   79.49    7.40
   7  -3 -15   85.09    4.80
  -7   3  15   89.69    5.50
   6  -3 -15    6.40    2.00
  -6  -3  15    2.10    3.20
  -6   3  15    1.00    2.20
   6   3 -15   -0.20    2.60
  -5  -3  15   97.79    7.10
   5  -3 -15  102.39    5.30
  -5   3  15  107.19    5.80
   5   3 -15  108.49    7.30
  -4  -3  15   31.00    4.50
   4  -3 -15   28.60    3.00
  -4   3  15   30.70    3.40
   4   3 -15   32.40    4.30
   3  -3 -15  188.38    7.70
  -3  -3  15  184.18    9.30
  -3   3  15  206.78    8.30
   3   3 -15  203.48    9.50
  -2  -3  15   68.39    5.70
   2  -3 -15   69.79    4.60
   2   3 -15   74.49    5.60
  -2   3  15   76.09    5.00
  -1  -3  15   -0.90    2.70
   1  -3 -15    3.10    1.90
   1   3 -15   -0.80    2.60
  -1   3  15    1.40    2.30
   0  -3 -15   -2.30    1.90
   0  -3  15    0.40    2.80
   0   3  15    1.00    2.40
   0   3 -15    0.90    2.40
   1  -3  15    0.90    3.10
  -1  -3 -15   -1.20    2.20
   1   3  15   -3.40    2.10
  -1   3 -15    0.00    2.30
   2  -3  15   63.39    5.70
  -2  -3 -15   74.89    5.80
   2   3  15   76.29    5.60
  -2   3 -15   74.29    5.50
   3  -3  15  176.38    9.00
  -3  -3 -15  193.38    9.30
   3   3  15  192.58    9.20
   4  -3  15   25.60    4.30
  -4  -3 -15   28.10    4.30
   4   3  15   32.50    4.60
   5  -3  15  103.89    7.10
   5   3  15  110.89    7.60
   6  -3  15   -1.20    2.90
   6   3  15    2.20    3.60
   7  -3  15  102.79    7.30
   7   3  15   71.79    7.30
   8  -3  15   -0.10    3.70
  -8  -3 -15   -4.00    3.60
   8   3  15   -5.90    3.40
   9  -3  15   62.99    7.00
  -9  -3 -15   67.89    8.00
   9   3  15   72.89    8.10
 -10  -3 -15   27.00    6.10
  10  -3  15   36.70    5.90
  10   3  15   30.70    6.10
 -11  -3 -15   10.50    5.10
  11  -3  15   -0.20    4.20
 -12  -3 -15    6.20    5.20
  12  -3  15    9.50    4.80
 -13  -3 -15   15.50    5.90
 -13   3 -15   15.50    5.60
 -13  -4  15   10.90    5.40
 -12  -4  15   67.89    8.40
 -11  -4  15   98.79    9.40
 -11   4  15  100.49    7.00
 -10  -4  15  107.49    9.70
 -10   4  15  105.79    6.90
  -9  -4  15    1.60    3.70
  -9   4  15   -2.20    2.20
  -8  -4  15    8.10    4.30
  -8   4  15    5.20    2.50
  -7  -4  15  552.94   20.60
   7  -4 -15  532.05   16.20
  -7   4  15  532.25   17.70
  -6  -4  15  124.09    8.30
  -6   4  15  132.19    6.40
  -5  -4  15  699.43   24.50
  -5   4  15  719.33   22.20
  -4  -4  15   72.49    6.70
   4  -4 -15   78.79    4.10
  -4   4  15   72.69    4.70
  -3  -4  15   71.69    6.40
   3  -4 -15   68.99    4.10
  -3   4  15   66.69    4.40
  -2  -4  15  171.98    9.10
   2  -4 -15  188.98    7.50
   2   4 -15  179.08    9.00
  -2   4  15  196.88    7.90
  -1  -4  15  359.56   14.10
   1  -4 -15  357.46   12.60
  -1   4  15  366.66   12.90
   1   4 -15  360.06   14.00
   0  -4  15 1203.08   36.90
   0  -4 -15 1187.28   35.60
   0   4  15 1167.48   35.80
   0   4 -15 1190.98   36.80
   1  -4  15  380.36   14.20
  -1  -4 -15  378.36   13.40
   1   4  15  332.17   13.20
  -2  -4 -15  210.28    9.10
   2  -4  15  191.58    9.40
   2   4  15  187.38    9.10
   3  -4  15   63.69    5.80
  -3  -4 -15   75.89    5.60
   3   4  15   62.19    5.80
  -4  -4 -15   77.89    6.80
   4  -4  15   72.99    6.10
   4   4  15   84.79    7.20
   5  -4  15  786.52   25.90
   5   4  15  736.33   26.00
   6  -4  15  117.19    7.60
   6   4  15  129.39    8.60
  -7  -4 -15  604.84   22.30
   7  -4  15  565.84   20.90
   7   4  15  551.74   21.80
   8  -4  15   15.40    4.10
  -8  -4 -15    0.50    4.10
   8   4  15    9.30    4.30
  -9  -4 -15   -1.60    4.10
   9  -4  15    4.50    3.50
   9   4  15    2.00    3.90
  10  -4  15   97.09    8.80
 -10  -4 -15  101.49   10.00
  10   4  15   95.09    9.60
 -11  -4 -15  131.29   12.00
  11  -4  15   95.89    9.10
  12  -4  15   69.69    7.90
 -12  -4 -15   81.99   10.10
 -13  -4 -15    7.50    6.30
 -13  -5  15    1.00    5.00
 -12  -5  15   15.10    5.50
 -11  -5  15    7.90    4.70
 -10  -5  15  132.89   10.50
 -10   5  15  130.19    7.20
  -9  -5  15  278.77   14.10
  -9   5  15  283.17   11.00
  -8  -5  15   90.19    8.60
  -8   5  15   97.19    5.70
  -7  -5  15  893.51   30.40
  -7   5  15  865.21   26.80
  -6  -5  15  233.48   12.00
  -6   5  15  241.28    9.10
  -5  -5  15    0.70    3.30
  -5   5  15    0.80    1.80
   4  -5 -15  509.85   15.20
  -4  -5  15  494.15   19.00
  -4   5  15  518.35   16.50
  -3  -5  15  323.57   13.20
   3  -5 -15  251.37    9.70
  -3   5  15  347.67   11.10
  -2  -5  15    0.70    2.90
   2  -5 -15    3.10    1.80
  -2   5  15    0.90    2.00
  -1  -5  15  475.15   17.70
   1  -5 -15  493.55   15.90
  -1   5  15  479.75   16.30
   0  -5 -15    0.10    2.00
   0  -5  15    4.50    2.90
   0   5  15   -1.90    2.20
  -1  -5 -15  527.95   17.20
   1  -5  15  456.55   17.60
   1   5  15  488.05   17.20
   2  -5  15   -3.60    2.50
  -2  -5 -15   -0.30    2.40
   2   5  15    1.70    2.50
  -3  -5 -15  318.97   13.10
   3  -5  15  344.27   13.80
   3   5  15  328.27   13.40
  -4  -5 -15  476.75   18.30
   4  -5  15  523.45   18.50
   4   5  15  513.45   18.80
   5  -5  15    6.00    3.30
  -5  -5 -15    0.00    3.50
   5   5  15   -2.90    3.10
  -6  -5 -15  235.98   12.20
   6  -5  15  250.27   11.60
   6   5  15  237.68   12.20
   7  -5  15  841.92   28.30
  -7  -5 -15  832.72   29.70
   7   5  15  847.02   29.70
  -8  -5 -15   96.59    9.30
   8  -5  15  114.99    8.20
   8   5  15  117.39    9.20
  -9  -5 -15  284.97   15.10
   9  -5  15  316.17   14.00
   9   5  15  278.97   14.80
  10  -5  15  135.19    9.30
 -10  -5 -15  133.99   10.80
  11  -5  15    0.20    3.90
 -11  -5 -15    2.80    5.00
  12  -5  15   21.20    5.40
 -12  -5 -15   15.90    6.40
 -13  -5 -15    1.60    6.20
 -13  -6  15   -4.50    4.80
 -12  -6  15   33.30    7.60
 -11  -6  15   30.10    7.00
 -10  -6  15   -1.30    4.10
  -9  -6  15    4.60    4.20
  -9   6  15    4.50    2.30
  -8  -6  15    1.40    4.10
  -8   6  15    1.70    2.10
  -7  -6  15   16.10    5.10
  -7   6  15   11.80    2.40
  -6  -6  15    6.40    4.10
  -6   6  15   -0.20    1.80
  -5  -6  15   77.69    7.40
  -5   6  15   72.99    4.30
  -4  -6  15  167.28    9.90
  -4   6  15  180.68    7.20
   3  -6 -15   78.19    3.60
  -3  -6  15   93.09    7.10
   3  -6 -15   76.49    3.50
  -3   6  15   80.59    4.70
  -2  -6  15  116.49    7.90
   2  -6 -15  128.99    5.60
   2  -6 -15  129.59    5.50
  -2   6  15  127.79    6.20
  -1  -6  15   35.70    5.10
   1  -6 -15   39.40    3.70
   1  -6 -15   39.20    3.50
  -1   6  15   42.80    4.10
   0  -6  15  281.17   12.50
   0  -6 -15  300.07   11.40
   0  -6 -15  295.97   11.10
   0   6  15  309.67   11.60
  -1  -6 -15   35.30    4.30
  -1  -6 -15   39.70    4.30
   1  -6  15   35.40    4.80
   1   6  15   38.50    4.30
  -2  -6 -15  122.19    7.00
   2  -6  15  123.79    7.60
  -2  -6 -15  130.79    7.60
   2   6  15  127.79    7.70
  -3  -6 -15   87.59    6.90
   3  -6  15   86.59    6.50
  -3  -6 -15   83.79    6.50
   3   6  15   74.39    6.70
   4  -6  15  166.28    9.10
  -4  -6 -15  177.18    9.80
   4   6  15  150.38    9.10
  -5  -6 -15   66.19    6.90
   5  -6  15   59.19    6.10
   5   6  15   62.69    6.90
   6  -6  15   -2.80    3.10
  -6  -6 -15    7.90    4.20
   6   6  15    6.80    4.40
  -7  -6 -15   11.10    4.50
   7  -6  15   11.00    3.90
   7   6  15   16.00    4.80
   8  -6  15    3.70    3.50
  -8  -6 -15   10.60    4.80
   8   6  15    3.40    4.10
   9  -6  15   -0.90    3.30
  -9  -6 -15    6.70    4.80
  10  -6  15    1.60    3.80
 -10  -6 -15    5.00    5.00
  11  -6  15   40.50    6.20
 -11  -6 -15   24.70    6.70
  12  -6  15   67.69    7.70
 -12  -6 -15   52.19    8.60
 -13  -6 -15   -3.80    5.90
 -12  -7  15   38.30    7.30
 -11  -7  15   16.70    5.80
 -10  -7  15   13.20    5.50
  -9  -7  15  128.79   10.40
  -8  -7  15   -3.30    3.70
  -8   7  15    0.40    1.70
  -7  -7  15  342.87   16.20
  -7   7  15  348.87   11.60
  -6  -7  15   -8.50    3.20
  -6   7  15    4.90    1.70
  -5  -7  15  180.98   10.90
  -5   7  15  207.98    7.60
  -4  -7  15  239.68   12.60
  -4   7  15  274.87    9.50
  -3  -7  15   -1.10    3.20
  -3   7  15    3.30    2.00
   2  -7 -15   16.40    2.20
  -2  -7  15   19.00    4.20
  -2   7  15   19.40    2.90
  -1  -7  15  109.39    7.50
   1  -7 -15  107.29    5.40
   1  -7 -15  101.09    5.50
  -1   7  15  110.69    6.00
   0  -7  15    2.10    3.00
   0  -7 -15    0.40    2.10
   0  -7 -15   -0.60    2.10
   0   7  15    0.20    2.20
   1  -7  15   95.79    7.00
  -1  -7 -15  101.99    6.40
  -1  -7 -15   94.99    6.20
   1   7  15  100.99    6.50
  -2  -7 -15   14.00    3.30
  -2  -7 -15   17.80    3.90
   2  -7  15   19.20    4.30
   2   7  15   12.40    3.60
  -3  -7 -15    5.40    2.80
   3  -7  15    2.70    3.30
  -3  -7 -15    4.80    3.10
   3   7  15    4.60    3.10
   4  -7  15  263.97   11.80
  -4  -7 -15  240.48   12.00
   4   7  15  243.58   12.10
  -5  -7 -15  199.18   11.00
   5  -7  15  220.98   10.70
   5   7  15  207.08   11.20
   6  -7  15    1.40    3.30
  -6  -7 -15    1.40    3.80
   6   7  15   10.10    4.20
   7  -7  15  364.46   14.80
  -7  -7 -15  335.07   16.10
   7   7  15  354.06   16.40
  -8  -7 -15    7.80    4.50
   8  -7  15    0.20    3.20
   8   7  15    0.60    4.00
   9  -7  15  139.29    8.90
  -9  -7 -15  132.09   10.70
 -10  -7 -15   20.30    6.60
  10  -7  15   11.70    4.60
 -11  -7 -15    8.90    5.90
  11  -7  15   19.40    5.20
 -12  -7 -15   46.30    8.80
 -12  -8  15   11.70    6.00
 -11  -8  15   20.90    6.40
 -10  -8  15   43.60    7.80
  -9  -8  15    3.40    5.10
  -8  -8  15   18.30    5.70
  -7  -8  15    0.80    4.40
  -7   8  15    8.40    1.70
  -6  -8  15   76.49    8.40
  -6   8  15   86.99    4.10
  -5  -8  15  365.46   16.40
  -5   8  15  364.86   11.90
  -4  -8  15  123.89    9.10
  -4   8  15  127.29    5.70
  -3  -8  15   -2.70    3.70
  -3   8  15    1.90    1.90
  -2  -8  15  857.71   29.30
   2  -8 -15  863.41   24.90
   2  -8 -15  863.41   24.90
  -2   8  15  853.41   26.50
   1  -8 -15    1.90    1.70
  -1  -8  15   -0.10    3.00
   1  -8 -15    2.00    1.90
  -1   8  15    2.90    2.40
   0  -8 -15  849.81   26.10
   0  -8  15  790.82   27.90
   0  -8 -15  828.72   25.90
   0   8  15  856.71   26.70
   1  -8  15   -1.00    3.20
  -1  -8 -15    4.30    2.70
  -1  -8 -15   -2.80    2.40
   1   8  15    4.60    2.90
  -2  -8 -15  931.21   29.20
   2  -8  15  922.31   30.00
  -2  -8 -15  903.21   29.30
   2   8  15  857.41   29.20
  -3  -8 -15    1.00    2.80
   3  -8  15    4.00    3.50
  -3  -8 -15   -4.70    2.90
   3   8  15    0.90    2.90
   4  -8  15  135.89    8.50
  -4  -8 -15  146.29    9.20
   4   8  15  123.19    8.50
   5  -8  15  367.26   15.10
  -5  -8 -15  365.56   16.20
   5   8  15  383.06   16.30
  -6  -8 -15   73.19    7.80
   6  -8  15   73.99    6.70
   6   8  15   81.19    8.20
  -7  -8 -15   11.70    4.80
   7  -8  15    5.00    3.30
   7   8  15    9.90    4.80
  -8  -8 -15   22.10    6.10
   8  -8  15   19.80    4.40
  -9  -8 -15    0.00    4.40
   9  -8  15    5.60    3.70
 -10  -8 -15   51.99    8.20
  10  -8  15   45.40    6.00
  11  -8  15   27.40    5.20
 -11  -8 -15   31.40    7.50
 -12  -8 -15    9.00    7.00
 -11  -9  15   36.00    8.10
 -10  -9  15   37.10    7.50
  -9  -9  15   16.10    5.70
  -8  -9  15  364.36   17.90
  -7  -9  15  205.28   12.70
  -6  -9  15  418.46   18.90
  -6   9  15  434.56   13.10
  -5  -9  15    4.30    4.20
  -5   9  15    8.20    1.80
  -4  -9  15   17.30    5.00
  -4   9  15   16.10    2.30
  -3  -9  15  251.17   12.80
  -3   9  15  250.57    9.50
   2  -9 -15    0.20    0.80
   2  -9 -15    1.10    0.80
  -2  -9  15   -0.70    3.40
  -2   9  15   -0.10    2.00
   1  -9 -15    4.60    1.90
  -1  -9  15    1.50    3.50
   1  -9 -15    3.00    1.80
  -1   9  15    5.80    2.60
   0  -9  15    4.10    3.40
   0  -9 -15   -2.80    2.10
   0  -9 -15   -0.70    2.10
   0   9  15   -1.70    2.60
  -1  -9 -15   10.80    3.10
  -1  -9 -15    6.80    3.00
   1  -9  15   11.80    4.20
   1   9  15    3.60    2.90
  -2  -9 -15    2.60    3.00
   2  -9  15   -0.80    3.00
  -2  -9 -15   -0.70    2.80
   2   9  15    6.10    3.50
   3  -9  15  260.87   12.30
  -3  -9 -15  256.77   12.20
  -3  -9 -15  255.57   12.00
   3   9  15  276.47   12.50
  -4  -9 -15   20.60    4.70
   4  -9  15   16.20    4.20
   4   9  15   10.70    4.20
  -5  -9 -15   11.80    4.30
   5  -9  15   19.10    4.20
   5   9  15   14.40    4.90
   6  -9  15  445.56   17.30
  -6  -9 -15  458.75   19.20
   7  -9  15  217.98   10.60
  -7  -9 -15  206.88   12.40
  -8  -9 -15  350.26   17.40
   8  -9  15  367.46   15.10
  -9  -9 -15   13.50    5.60
   9  -9  15   15.20    4.10
 -10  -9 -15   57.59    9.30
  10  -9  15   52.89    6.20
 -11  -9 -15   45.80    8.50
  11  -9  15   53.49    6.10
 -11 -10  15    3.90    5.60
 -10 -10  15    4.80    6.20
  -9 -10  15    8.00    5.50
  -8 -10  15    7.60    5.20
  -7 -10  15   -6.00    4.40
  -6 -10  15    3.50    4.60
  -5 -10  15   45.00    7.00
  -5  10  15   53.99    3.20
  -4 -10  15   -9.50    3.00
  -4  10  15    4.20    1.80
  -3 -10  15   12.60    5.00
  -3  10  15   10.60    2.50
  -2 -10  15    4.40    3.90
  -2  10  15   -0.30    2.30
   1 -10 -15  199.68    7.50
  -1 -10  15  174.28   10.50
  -1  10  15  187.88    8.80
   0 -10 -15    1.90    2.30
   0 -10 -15   -2.60    2.10
   0 -10  15    7.00    3.70
   0  10  15    0.40    2.50
  -1 -10 -15  186.18    8.90
  -1 -10 -15  202.98    9.30
   1 -10  15  179.18   10.20
   1  10  15  196.38    9.90
  -2 -10 -15    1.30    3.00
  -2 -10 -15   -0.40    3.10
   2 -10  15    5.60    3.60
   2  10  15    2.60    3.50
  -3 -10 -15    4.40    3.70
  -3 -10 -15   10.20    4.00
   3 -10  15   17.70    4.40
   3  10  15    5.50    4.00
  -4 -10 -15   -0.90    3.60
   4 -10  15    2.50    3.20
   4  10  15    2.90    3.70
   5 -10  15   66.99    6.60
  -5 -10 -15   57.49    7.10
  -6 -10 -15   -0.90    3.50
   6 -10  15    5.50    3.60
  -7 -10 -15   -2.20    4.40
   7 -10  15    0.20    3.20
  -8 -10 -15    5.60    5.20
   8 -10  15   -0.20    3.20
  -9 -10 -15    6.50    5.00
   9 -10  15    1.90    3.40
  10 -10  15    3.90    3.30
 -10 -10 -15   -1.90    4.80
  11 -10  15   -0.40    3.20
 -11 -10 -15   -2.50    5.20
 -10 -11  15   24.70    7.20
  -9 -11  15    4.40    5.80
  -8 -11  15  157.68   12.90
  -7 -11  15   -3.50    4.20
  -6 -11  15  154.88   11.40
  -5 -11  15  123.99   11.00
  -4 -11  15  173.68   11.50
  -3 -11  15   16.40    5.20
  -2 -11  15    2.00    4.30
  -2  11  15    1.10    2.50
   1 -11 -15  183.88    7.10
   1 -11 -15  195.58    7.20
  -1 -11  15  216.48   11.70
  -1  11  15  198.28    9.30
   0 -11  15   -0.80    3.30
   0 -11 -15    1.20    2.20
   0  11  15   -4.20    2.50
   1 -11  15  199.28   11.20
  -1 -11 -15  194.48    9.30
   2 -11  15    0.80    3.70
  -2 -11 -15    2.50    3.20
  -3 -11 -15   24.30    4.70
   3 -11  15   20.70    4.80
   4 -11  15  166.78    9.60
  -4 -11 -15  163.98    9.90
  -5 -11 -15  144.89   10.10
   5 -11  15  136.39    8.70
   6 -11  15  177.78    9.80
  -6 -11 -15  179.88   11.90
   7 -11  15    2.20    3.10
  -7 -11 -15    1.90    4.80
  -8 -11 -15  149.39   11.60
   8 -11  15  167.38    9.20
  -9 -11 -15   -3.70    4.70
   9 -11  15    6.40    3.50
  10 -11  15   30.20    5.00
 -10 -11 -15   30.10    8.10
  -9 -12  15    4.60    6.00
  -8 -12  15   19.00    7.30
  -7 -12  15   38.40    7.50
  -6 -12  15    5.60    4.90
  -5 -12  15   -1.90    4.10
  -4 -12  15   -1.00    4.60
  -3 -12  15   46.40    6.90
  -2 -12  15   61.99    7.20
  -1 -12  15   39.40    6.40
   1 -12 -15   38.80    2.50
   0 -12 -15  322.37   11.70
   0 -12  15  300.97   14.70
   1 -12  15   42.60    6.20
  -1 -12 -15   36.30    4.50
   2 -12  15   64.39    6.90
  -2 -12 -15   48.10    5.50
   3 -12  15   52.09    6.30
  -3 -12 -15   51.39    6.10
  -4 -12 -15    1.90    3.90
   4 -12  15   11.20    3.80
  -5 -12 -15   -4.00    3.80
   5 -12  15   -0.50    3.20
  -6 -12 -15    3.50    4.30
   6 -12  15    5.40    3.60
   7 -12  15   41.80    5.30
  -7 -12 -15   44.30    7.70
  -8 -12 -15   12.20    6.20
   8 -12  15   11.70    3.60
  -9 -12 -15    3.00    5.10
  -8 -13  15   18.00    6.80
  -7 -13  15    6.40    6.10
  -6 -13  15    0.90    4.90
  -5 -13  15    2.60    4.80
  -4 -13  15   17.20    5.80
  -3 -13  15  165.88   11.20
  -2 -13  15   19.00    5.70
  -1 -13  15    2.10    3.70
   0 -13 -15   -1.10    2.10
   0 -13  15    4.30    3.80
  -1 -13 -15    5.60    3.00
   1 -13  15    8.30    4.20
  -2 -13 -15   15.90    4.00
   2 -13  15   16.50    4.80
  -3 -13 -15  162.68    9.90
   3 -13  15  164.68   10.20
  -4 -13 -15    5.00    3.80
   4 -13  15    4.90    3.70
   5 -13  15   10.50    3.90
  -5 -13 -15    3.50    4.00
   6 -13  15   -1.50    3.10
  -6 -13 -15   -4.60    4.30
  -7 -13 -15    6.40    5.50
   7 -13  15   15.50    3.70
  -8 -13 -15   25.60    6.70
  -7 -14  15    8.00    5.80
  -6 -14  15   12.70    5.70
  -5 -14  15   75.99    9.70
  -4 -14  15    1.30    4.60
  -3 -14  15    1.40    4.10
  -2 -14  15   96.69    9.70
  -1 -14  15   -0.10    3.60
   0 -14 -15  168.08    7.10
   0 -14  15  164.08   11.00
  -1 -14 -15   -2.00    2.50
   1 -14  15    3.10    4.10
   2 -14  15   92.69    8.70
  -2 -14 -15   85.79    7.00
   3 -14  15    6.40    4.00
  -3 -14 -15    8.10    4.10
  -4 -14 -15    2.80    3.70
   4 -14  15    9.70    4.00
  -5 -14 -15   67.59    7.90
   5 -14  15   64.59    6.60
  -6 -14 -15    3.40    4.80
   6 -14  15   13.20    3.90
  -7 -14 -15    9.30    5.60
  -6 -15  15   63.39    9.50
  -5 -15  15   -3.20    4.50
  -4 -15  15   71.19    9.30
  -3 -15  15   28.90    6.70
  -2 -15  15   -6.90    4.10
  -1 -15  15    7.80    5.10
   0 -15  15   -6.30    3.60
  -1 -15 -15   11.60    3.20
   1 -15  15   14.40    5.00
   2 -15  15    7.60    4.40
  -2 -15 -15    7.40    3.50
  -3 -15 -15   31.20    5.30
   3 -15  15   30.80    5.50
   4 -15  15   65.69    6.80
  -4 -15 -15   71.79    7.90
   5 -15  15   -0.80    3.30
  -5 -15 -15    0.60    4.10
  -6 -15 -15   51.59    7.90
  -3 -16  15   -7.10    4.40
  -2 -16  15   10.80    5.50
  -1 -16  15    6.40    4.90
   0 -16  15    4.70    4.70
   1 -16  15    5.10    4.40
  -2 -16 -15   12.50    3.90
   2 -16  15   15.80    5.20
  -3 -16 -15    0.80    3.60
   3 -16  15    3.60    4.20
 -13   0  16    5.10    4.50
 -12   0  16   37.20    6.10
 -11   0  16    1.80    3.40
 -10   0  16   22.30    4.80
   9   0 -16  271.57   12.80
  -9   0  16  318.77   13.40
  -8   0  16   48.40    5.70
   8   0 -16   57.19    5.70
   7   0 -16  585.24   19.90
  -7   0  16  547.65   20.00
   6   0 -16   44.80    4.80
  -6   0  16   35.40    4.40
   5   0 -16  546.55   18.70
  -5   0  16  543.95   18.90
  -4   0  16  574.24   19.50
   4   0 -16  564.24   19.20
   3   0 -16    0.50    2.20
  -3   0  16    0.40    2.40
  -2   0  16 4231.18  123.89
   2   0 -16 4545.85  123.99
   1   0 -16 3435.06   91.79
  -1   0  16 2985.40   91.39
   0   0  16 3607.44  104.69
   0   0 -16 3760.02  104.69
   1   0  16 2843.12   84.39
  -1   0 -16 3033.70   84.49
   2   0  16 4086.29  117.09
  -2   0 -16 4154.08  116.99
  -3   0 -16    0.10    2.90
   3   0  16    2.10    2.90
   4   0  16  578.54   20.60
   5   0  16  530.35   19.50
   6   0  16   34.20    5.10
   7   0  16  536.55   20.30
   8   0  16   53.49    6.50
   9   0  16  292.07   14.30
  10   0  16   30.00    6.20
  11   0  16    5.10    5.00
 -12   0 -16   38.20    7.10
  12   0  16   34.10    6.70
 -13   0 -16   -3.40    4.80
 -14   0 -16  146.89   13.40
 -14  -1  16    9.00    4.90
 -13  -1  16   28.90    6.40
 -13   1  16   31.30    6.40
 -12  -1  16   17.40    4.90
 -12   1  16   25.70    5.30
 -11  -1  16   39.70    5.80
 -11   1  16   45.10    5.90
 -10  -1  16   25.70    5.00
 -10   1  16   25.80    4.70
  -9  -1  16    0.20    3.10
   9   1 -16   -1.10    2.90
  -9   1  16    5.40    3.40
   8  -1 -16  131.39    7.30
  -8  -1  16  126.99    8.10
  -8   1  16  130.19    7.80
   8   1 -16  121.69    7.90
   7  -1 -16    0.50    2.40
  -7  -1  16    3.90    3.10
  -7   1  16   -5.80    2.10
   7   1 -16    3.60    3.00
   6  -1 -16   85.49    5.70
  -6  -1  16   75.09    6.10
  -6   1  16   77.89    6.00
   6   1 -16   77.39    6.30
   5  -1 -16    6.60    2.50
  -5  -1  16    4.20    3.00
   5   1 -16    6.50    2.80
  -5   1  16    2.10    2.60
  -4  -1  16   15.50    3.70
   4  -1 -16   14.00    2.70
   4   1 -16   14.10    3.20
  -4   1  16   16.10    3.10
  -3  -1  16  221.08   10.10
   3  -1 -16  229.88    9.50
  -3   1  16  224.48    9.80
   3   1 -16  261.57   10.50
   2  -1 -16    2.20    2.40
  -2  -1  16   -2.40    2.60
  -2   1  16   -1.80    2.20
   2   1 -16    1.50    2.60
   1  -1 -16  275.07   10.70
  -1  -1  16  230.88   10.70
   1   1 -16  280.37   11.30
  -1   1  16  273.57   10.90
   0  -1  16   -1.80    2.50
   0  -1 -16   -3.80    2.20
   0   1 -16   -0.30    2.50
   0   1  16   -0.90    2.40
   1  -1  16  254.77   11.00
  -1  -1 -16  254.07   10.50
   1   1  16  241.98   10.50
  -1   1 -16  255.37   10.60
   2  -1  16   -2.00    2.60
  -2  -1 -16   -1.40    2.40
  -2   1 -16    0.30    2.30
   2   1  16   -0.10    2.70
  -3  -1 -16  223.68   10.00
   3  -1  16  204.48   10.00
   3   1  16  216.08   10.10
   4  -1  16   13.90    3.70
   4   1  16   21.50    4.20
   5  -1  16    9.80    3.90
   5   1  16    8.60    3.60
   6  -1  16   70.99    6.70
   6   1  16   74.89    7.00
   7  -1  16   -1.80    3.10
   7   1  16    0.40    3.40
   8  -1  16  141.59    9.30
   8   1  16  122.49    9.10
   9  -1  16    7.00    4.10
   9   1  16    3.40    4.00
  10  -1  16   16.10    4.90
  10   1  16   21.70    5.30
  11  -1  16   44.80    7.00
 -11  -1 -16   51.99    7.80
  11   1  16   31.10    6.40
  12  -1  16   28.20    6.10
 -12  -1 -16   18.00    6.20
 -12   1 -16   31.80    7.10
 -13  -1 -16   36.70    8.00
 -13   1 -16   29.60    7.10
 -14  -1 -16   11.00    5.90
 -14   1 -16   15.80    6.40
 -13  -2  16   71.39    8.40
 -12  -2  16    0.50    4.40
 -12   2  16   -3.10    3.30
 -11  -2  16    5.80    4.40
 -11   2  16    3.30    3.60
 -10  -2  16   20.80    5.10
 -10   2  16   28.90    4.60
  -9  -2  16   38.90    5.70
  -9   2  16   41.70    5.00
   8  -2 -16    6.60    2.70
  -8  -2  16    2.10    3.30
  -8   2  16    5.80    3.00
   8   2 -16    1.10    3.00
  -7  -2  16   36.60    5.20
   7  -2 -16   45.30    4.30
   7   2 -16   38.30    5.00
  -7   2  16   39.00    4.30
  -6  -2  16   -3.50    2.80
   6  -2 -16    0.90    2.00
   6   2 -16   -0.10    2.60
  -6   2  16   -0.20    2.30
  -5  -2  16  105.29    7.10
   5  -2 -16   96.89    5.70
  -5   2  16  107.99    6.30
   5   2 -16  103.39    6.80
   4  -2 -16   13.90    2.70
  -4  -2  16   10.30    3.40
  -4   2  16   13.40    2.90
   4   2 -16   10.50    3.10
   3  -2 -16  470.75   15.80
  -3  -2  16  467.35   17.10
   3   2 -16  487.85   17.00
  -3   2  16  448.96   16.00
  -2  -2  16 1928.81   57.69
   2  -2 -16 1921.41   56.59
  -2   2  16 1888.01   56.79
   2   2 -16 2085.69   57.89
  -1  -2  16  179.68    8.90
   1  -2 -16  193.08    8.40
   1   2 -16  190.98    8.90
  -1   2  16  178.48    8.20
   0  -2 -16   24.60    3.50
   0  -2  16   16.40    3.50
   1  -2  16  195.38    9.20
  -1  -2 -16  204.08    8.90
   1   2  16  177.78    8.70
  -1   2 -16  183.38    8.90
   2  -2  16 1904.81   56.29
  -2  -2 -16 1904.51   55.89
   2   2  16 1920.71   56.19
  -2   2 -16 1850.11   55.99
   3  -2  16  449.26   16.70
  -3  -2 -16  441.46   16.40
   3   2  16  458.25   16.70
   4  -2  16    6.60    3.30
   4   2  16   12.60    3.70
   5  -2  16  102.79    7.20
   5   2  16   91.59    7.20
   6  -2  16    1.90    3.20
   6   2  16    1.20    3.20
   7  -2  16   44.70    6.00
   7   2  16   38.10    5.80
   8  -2  16    4.00    3.80
   8   2  16    7.60    4.30
   9  -2  16   43.00    6.10
   9   2  16   45.00    6.50
 -10  -2 -16   23.20    6.00
  10  -2  16   25.60    5.80
  10   2  16   35.70    6.50
  11  -2  16   16.60    5.60
 -11  -2 -16   17.20    5.70
  11   2  16    2.90    4.60
  12  -2  16    1.70    4.60
 -12  -2 -16   -0.40    4.70
 -13  -2 -16   80.79   10.10
 -13   2 -16   74.59    9.30
 -13  -3  16   -1.70    4.70
 -12  -3  16   11.10    5.40
 -11  -3  16   91.29    9.30
 -11   3  16   95.09    7.30
 -10  -3  16  232.78   12.70
 -10   3  16  222.38   10.60
  -9  -3  16   20.70    5.00
  -9   3  16   28.30    4.20
  -8  -3  16  419.56   17.40
   8  -3 -16  431.66   14.50
  -8   3  16  427.86   15.50
  -7  -3  16   76.49    7.40
   7  -3 -16   71.89    4.70
  -7   3  16   78.69    5.60
  -6  -3  16  743.03   25.70
   6  -3 -16  736.53   22.90
  -6   3  16  745.53   23.70
   5  -3 -16   51.59    4.10
  -5  -3  16   41.10    5.30
  -5   3  16   48.70    4.40
   5   3 -16   51.89    5.50
  -4  -3  16  113.29    7.80
   4  -3 -16  107.59    5.50
  -4   3  16  102.59    5.80
   4   3 -16  111.49    7.00
   3  -3 -16   67.99    4.60
  -3  -3  16   81.29    6.20
   3   3 -16   71.09    5.80
  -3   3  16   72.79    5.00
  -2  -3  16  282.37   11.90
   2  -3 -16  280.97   10.40
  -2   3  16  267.77   10.60
   2   3 -16  271.97   11.60
  -1  -3  16  276.87   11.40
   1  -3 -16  247.88   10.00
  -1   3  16  242.68   10.10
   1   3 -16  254.57   10.90
   0  -3  16    2.10    2.80
   0  -3 -16   -2.30    1.90
   0   3  16   -2.40    2.10
   0   3 -16    3.70    2.40
  -1  -3 -16  274.87   11.00
   1  -3  16  278.97   11.70
  -1   3 -16  260.57   11.30
   1   3  16  271.67   11.10
   2  -3  16  274.57   11.70
  -2  -3 -16  265.07   11.10
   2   3  16  270.67   11.40
   3  -3  16   74.39    6.50
  -3  -3 -16   71.89    5.70
   3   3  16   68.09    6.10
   4  -3  16   95.69    6.90
   4   3  16   99.19    7.10
   5  -3  16   53.39    5.70
   5   3  16   45.80    5.70
   6  -3  16  731.03   25.10
   6   3  16  720.13   25.70
   7  -3  16   69.39    6.80
   7   3  16   71.49    7.70
   8  -3  16  426.16   17.20
   8   3  16  405.16   17.80
  -9  -3 -16   33.80    6.30
   9  -3  16   20.00    5.10
   9   3  16   28.80    5.80
 -10  -3 -16  241.98   14.30
  10  -3  16  257.07   13.50
  10   3  16  265.87   14.60
  11  -3  16   85.79    8.90
 -11  -3 -16   92.89   10.10
  11   3  16   83.39    9.30
 -12  -3 -16    1.90    5.00
  12  -3  16    6.40    4.70
 -13  -3 -16    0.30    5.40
 -13   3 -16    7.90    5.20
 -13  -4  16    1.20    4.90
 -12  -4  16  150.98   11.00
 -11  -4  16    8.40    4.70
 -10  -4  16   -1.70    3.80
 -10   4  16    3.00    2.90
  -9  -4  16    9.80    4.40
  -9   4  16   10.40    3.10
  -8  -4  16  120.69    8.90
  -8   4  16  136.39    7.00
  -7  -4  16   47.00    6.20
   7  -4 -16   34.80    2.80
  -7   4  16   37.70    4.00
  -6  -4  16   26.40    4.90
  -6   4  16   35.30    3.80
   5  -4 -16  116.39    5.40
  -5  -4  16  121.99    8.10
  -5   4  16  146.79    6.50
  -4  -4  16  381.26   15.60
   4  -4 -16  384.16   12.90
  -4   4  16  404.36   13.60
   3  -4 -16   57.69    3.90
  -3  -4  16   52.69    5.60
  -3   4  16   54.69    4.30
  -2  -4  16  165.58    8.80
   2  -4 -16  164.48    7.10
  -2   4  16  163.78    7.40
   1  -4 -16   58.99    4.30
  -1  -4  16   53.59    5.50
  -1   4  16   50.59    4.60
   0  -4  16  561.94   20.10
   0  -4 -16  580.94   19.00
   0   4  16  571.44   19.20
   1  -4  16   62.69    5.80
  -1  -4 -16   63.49    5.30
   1   4  16   60.69    5.00
   2  -4  16  171.78    9.00
  -2  -4 -16  179.08    8.60
   2   4  16  173.48    8.90
  -3  -4 -16   50.99    5.40
   3  -4  16   49.20    5.40
   3   4  16   40.80    5.00
   4  -4  16  372.26   14.70
   4   4  16  354.96   14.70
   5  -4  16  145.49    8.50
   5   4  16  137.79    8.80
   6  -4  16   29.30    4.70
   6   4  16   25.50    4.90
   7  -4  16   34.10    5.50
  -7  -4 -16   25.60    5.50
   7   4  16   31.20    5.70
  -8  -4 -16   90.69    8.70
   8  -4  16  141.09    9.10
   8   4  16  117.39    9.30
  -9  -4 -16   14.10    5.20
   9  -4  16    3.70    4.00
   9   4  16    4.50    4.40
 -10  -4 -16   -2.60    4.20
  10  -4  16    1.30    4.20
  10   4  16    4.00    4.20
  11  -4  16   12.70    5.10
 -11  -4 -16    7.40    5.70
 -12  -4 -16  150.88   12.10
  12  -4  16  140.89   10.90
 -13  -4 -16    4.60    5.60
 -13  -5  16   -2.50    5.10
 -12  -5  16   -1.20    4.10
 -11  -5  16    7.00    4.70
 -10  -5  16    7.80    4.60
 -10   5  16    5.00    2.80
  -9  -5  16   -1.00    3.90
  -9   5  16   -0.30    2.30
  -8  -5  16  121.19   10.00
  -8   5  16  106.59    6.10
  -7  -5  16   41.40    6.40
  -7   5  16   62.89    4.60
  -6  -5  16    4.90    3.90
  -6   5  16    1.20    2.00
   5  -5 -16  147.19    5.30
  -5  -5  16  167.28    9.60
  -5   5  16  149.79    6.80
  -4  -5  16  144.59    8.80
  -4   5  16  133.59    6.40
  -3  -5  16   40.30    5.40
   3  -5 -16   42.20    3.20
  -3   5  16   43.40    3.90
   2  -5 -16    1.80    1.80
  -2  -5  16    5.40    3.30
  -2   5  16   -0.60    1.90
   1  -5 -16   97.09    5.40
  -1  -5  16   80.99    6.60
  -1   5  16   95.99    5.70
   0  -5  16   -3.40    2.70
   0  -5 -16    0.60    2.20
   0   5  16    0.00    2.10
   1  -5  16   73.09    6.20
  -1  -5 -16   75.89    5.60
   1   5  16   80.19    5.60
  -2  -5 -16    1.10    2.60
   2  -5  16   -1.00    2.90
   2   5  16   -1.90    2.60
  -3  -5 -16   38.50    4.70
   3  -5  16   43.30    5.30
   3   5  16   40.40    5.10
   4  -5  16  136.19    8.10
   4   5  16  124.29    8.10
  -5  -5 -16  141.59    9.10
   5  -5  16  151.88    8.70
   5   5  16  152.58    9.20
  -6  -5 -16    3.30    4.10
   6  -5  16   -0.70    3.00
   6   5  16   10.20    4.20
  -7  -5 -16   59.09    7.20
   7  -5  16   57.49    6.50
   7   5  16   56.99    7.00
  -8  -5 -16  113.09    9.30
   8  -5  16  105.59    7.70
   8   5  16   93.99    9.10
  -9  -5 -16    1.50    4.40
   9  -5  16    2.90    3.70
   9   5  16    4.80    4.30
 -10  -5 -16   13.20    5.20
  10  -5  16    3.50    4.10
  10   5  16    4.20    4.70
 -11  -5 -16    4.30    5.10
  11  -5  16    9.20    4.70
  12  -5  16    3.40    4.50
 -12  -5 -16    5.50    5.50
 -13  -5 -16  -11.30    4.60
 -13  -6  16   14.10    5.90
 -12  -6  16  106.79   10.80
 -11  -6  16    2.70    4.60
 -10  -6  16    1.30    4.60
  -9  -6  16   27.70    5.90
  -9   6  16   30.50    3.70
  -8  -6  16   71.89    8.50
  -8   6  16   84.09    5.00
  -7  -6  16    5.20    4.00
  -7   6  16    3.10    2.00
  -6  -6  16   15.60    4.80
  -6   6  16   19.80    2.70
  -5  -6  16  233.58   12.30
  -5   6  16  247.88    9.20
  -4  -6  16  752.12   27.20
  -4   6  16  821.42   24.30
  -3  -6  16   16.10    4.20
   3  -6 -16   14.40    2.00
  -3   6  16   16.30    2.70
  -2  -6  16   41.70    5.40
   2  -6 -16   39.60    3.30
  -2   6  16   30.40    3.50
   1  -6 -16   17.60    2.80
  -1  -6  16   20.20    4.30
  -1   6  16   16.30    3.10
   0  -6 -16  558.64   18.20
   0  -6  16  526.25   19.70
   0   6  16  543.95   18.50
  -1  -6 -16   21.90    3.60
   1  -6  16   13.00    3.70
   1   6  16   15.70    3.30
   2  -6  16   33.60    4.70
  -2  -6 -16   35.90    4.50
  -2  -6 -16   36.30    4.80
   2   6  16   35.00    4.80
  -3  -6 -16   15.70    4.10
   3  -6  16   23.60    4.50
  -3  -6 -16   17.50    3.70
   3   6  16   12.00    3.70
  -4  -6 -16  812.92   27.80
   4  -6  16  847.82   27.60
   4   6  16  794.72   27.60
  -5  -6 -16  254.77   12.50
   5  -6  16  262.77   11.90
   5   6  16  246.58   12.30
   6  -6  16   13.20    4.10
  -6  -6 -16    6.90    4.10
   6   6  16   13.20    4.50
  -7  -6 -16    3.90    4.10
   7  -6  16    1.60    3.60
   7   6  16    9.00    4.60
   8  -6  16   67.09    7.00
  -8  -6 -16   81.89    8.60
   8   6  16   67.59    7.90
  -9  -6 -16   30.80    6.40
   9  -6  16   26.80    5.10
   9   6  16   28.00    6.20
 -10  -6 -16    7.30    5.20
  10  -6  16    4.20    3.90
  11  -6  16   13.90    4.90
 -11  -6 -16    8.90    5.70
  12  -6  16  117.19    9.30
 -12  -6 -16  120.09   12.80
 -13  -6 -16   14.20    6.70
 -12  -7  16   53.69    8.70
 -11  -7  16   16.90    6.00
 -10  -7  16   63.99    8.70
  -9  -7  16  104.59   10.20
  -8  -7  16  366.46   17.00
  -8   7  16  340.57   11.90
  -7  -7  16   53.79    7.20
  -7   7  16   51.79    3.80
  -6  -7  16   38.30    6.20
  -6   7  16   42.20    3.40
  -5  -7  16    6.60    4.20
  -5   7  16    9.60    2.20
  -4  -7  16  204.48   11.30
  -4   7  16  201.58    8.00
  -3  -7  16  133.39    8.80
   3  -7 -16  123.89    4.40
   3  -7 -16  124.99    4.40
  -3   7  16  136.59    6.30
  -2  -7  16  666.53   23.40
   2  -7 -16  620.24   19.50
  -2   7  16  634.14   20.50
   1  -7 -16  161.48    7.30
   1  -7 -16  169.58    7.20
  -1  -7  16  184.18    9.80
  -1   7  16  163.18    7.90
   0  -7 -16    1.70    2.40
   0  -7 -16   -3.60    2.00
   0  -7  16   -0.30    3.40
   0   7  16   -4.90    2.20
   1  -7  16  171.88    9.40
  -1  -7 -16  170.78    8.30
  -1  -7 -16  170.48    8.50
   1   7  16  164.28    8.60
   2  -7  16  660.93   22.60
  -2  -7 -16  622.14   21.80
  -2  -7 -16  658.63   21.80
   2   7  16  597.04   21.70
   3  -7  16  128.99    8.10
  -3  -7 -16  129.89    8.00
  -3  -7 -16  123.99    7.60
   3   7  16  130.09    8.40
   4  -7  16  201.48   10.50
  -4  -7 -16  213.58   10.80
   4   7  16  199.88   11.00
  -5  -7 -16    7.10    3.90
   5  -7  16   14.00    4.10
   5   7  16    0.90    3.60
  -6  -7 -16   53.79    6.80
   6  -7  16   45.30    5.50
   6   7  16   28.50    5.50
   7  -7  16   65.29    6.60
  -7  -7 -16   51.99    7.30
   7   7  16   53.99    7.10
  -8  -7 -16  351.66   17.10
   8  -7  16  369.46   15.50
   8   7  16  364.66   17.30
   9  -7  16  111.09    8.30
  -9  -7 -16  101.89   10.20
  10  -7  16   53.99    6.50
 -10  -7 -16   49.80    8.40
  11  -7  16   10.30    4.50
 -11  -7 -16   32.10    7.10
  12  -7  16   66.09    7.70
 -12  -7 -16   57.09    9.50
 -12  -8  16    6.40    5.40
 -11  -8  16    2.80    5.00
 -10  -8  16   21.70    6.30
  -9  -8  16    5.10    4.90
  -8  -8  16    5.80    4.80
  -7  -8  16   13.30    5.00
  -7   8  16   14.40    2.10
  -6  -8  16    6.30    4.30
  -6   8  16    7.80    1.90
  -5  -8  16    3.40    4.20
  -5   8  16    1.10    1.70
  -4  -8  16    7.50    4.20
  -4   8  16    3.30    1.90
  -3  -8  16  149.79    9.60
  -3   8  16  141.69    6.60
   2  -8 -16   36.30    2.80
   2  -8 -16   27.20    2.40
  -2  -8  16   30.10    5.30
  -2   8  16   30.70    3.60
   1  -8 -16   88.69    5.00
  -1  -8  16   74.39    7.30
   1  -8 -16   89.49    5.10
  -1   8  16   91.19    5.90
   0  -8  16   88.69    7.10
   0  -8 -16   77.79    5.30
   0  -8 -16   80.79    5.60
   0   8  16   85.09    6.00
   1  -8  16   86.49    7.10
  -1  -8 -16   83.19    6.00
  -1  -8 -16   81.49    5.90
   1   8  16   63.89    5.90
  -2  -8 -16   46.30    5.30
   2  -8  16   32.00    5.10
  -2  -8 -16   32.80    4.70
   2   8  16   33.30    4.90
   3  -8  16  132.59    8.30
  -3  -8 -16  132.19    8.20
  -3  -8 -16  126.39    8.20
   3   8  16  140.59    8.50
  -4  -8 -16    5.10    3.80
   4  -8  16    6.90    3.70
   4   8  16    0.60    3.20
  -5  -8 -16   -0.70    3.40
   5  -8  16    2.00    3.10
   5   8  16    9.00    4.20
   6  -8  16    0.10    3.40
  -6  -8 -16   12.50    5.00
   6   8  16    3.60    4.10
  -7  -8 -16   14.60    5.10
   7  -8  16   16.70    4.40
   7   8  16   12.80    4.90
  -8  -8 -16    0.60    4.50
   8  -8  16    2.40    3.60
  -9  -8 -16    2.30    4.70
   9  -8  16    6.10    3.80
 -10  -8 -16   24.10    6.90
  10  -8  16   37.60    5.80
 -11  -8 -16    3.20    5.20
  11  -8  16    5.30    4.00
  12  -8  16   -1.70    3.70
 -12  -8 -16    3.40    5.70
 -11  -9  16   39.70    8.20
 -10  -9  16   49.70    8.70
  -9  -9  16    7.60    5.50
  -8  -9  16  251.17   14.60
  -7  -9  16    1.80    4.50
  -6  -9  16   39.10    6.90
  -6   9  16   33.50    2.70
  -5  -9  16    7.50    4.60
  -5   9  16    6.30    1.90
  -4  -9  16   15.60    5.00
  -4   9  16   24.60    2.90
  -3  -9  16  111.79    8.80
  -3   9  16  129.69    6.20
   2  -9 -16  319.67    9.80
  -2  -9  16  311.37   14.90
   2  -9 -16  316.37    9.90
  -2   9  16  331.97   12.10
  -1  -9  16   34.50    5.50
   1  -9 -16   35.50    3.30
   1  -9 -16   37.10    3.40
  -1   9  16   33.70    4.10
   0  -9 -16    0.90    2.20
   0  -9 -16    4.40    2.30
   0  -9  16    0.70    3.30
   0   9  16   -1.40    2.60
  -1  -9 -16   30.70    4.20
  -1  -9 -16   39.90    4.60
   1  -9  16   36.00    5.90
   1   9  16   30.40    4.50
  -2  -9 -16  337.17   13.90
   2  -9  16  366.36   15.20
  -2  -9 -16  335.17   13.80
   2   9  16  329.27   14.10
  -3  -9 -16  138.39    8.60
   3  -9  16  135.09    8.50
  -3  -9 -16  136.39    8.30
   3   9  16  130.69    8.60
  -4  -9 -16   26.00    5.10
   4  -9  16   27.70    4.90
   4   9  16   25.10    4.90
   5  -9  16    8.70    3.90
  -5  -9 -16   11.20    4.60
   5   9  16   12.90    4.30
   6  -9  16   36.20    5.30
  -6  -9 -16   47.30    6.90
   6   9  16   43.90    6.90
  -7  -9 -16   -1.10    3.90
   7  -9  16    2.70    3.50
  -8  -9 -16  245.88   14.20
   8  -9  16  241.18   11.80
   9  -9  16   11.40    4.10
  -9  -9 -16   12.70    5.40
 -10  -9 -16   44.60    8.00
  10  -9  16   58.89    6.60
 -11  -9 -16   24.30    7.80
  11  -9  16   41.90    5.90
 -11 -10  16   43.40    8.40
 -10 -10  16   36.90    7.90
  -9 -10  16   -2.10    4.60
  -8 -10  16    5.30    5.20
  -7 -10  16   11.20    5.50
  -6 -10  16  109.79   10.20
  -5 -10  16  106.89    9.90
  -5  10  16  106.99    4.90
  -4 -10  16  494.55   20.10
  -4  10  16  444.96   15.00
  -3 -10  16  387.66   17.50
  -3  10  16  409.76   14.00
  -2 -10  16 1773.62   54.89
  -2  10  16 1733.03   51.39
   1 -10 -16   20.30    2.70
  -1 -10  16   19.90    4.90
  -1  10  16   20.70    3.60
   0 -10 -16   -0.40    2.20
   0 -10 -16    3.00    2.30
   0 -10  16   -2.00    3.40
   0  10  16   -0.50    2.80
  -1 -10 -16   15.40    3.50
  -1 -10 -16   17.60    3.70
   1 -10  16   27.50    5.30
   1  10  16   16.70    4.00
   2 -10  16 1807.32   54.19
  -2 -10 -16 1718.23   52.69
  -2 -10 -16 1703.73   52.59
   2  10  16 1750.02   53.39
   3 -10  16  401.16   16.60
  -3 -10 -16  432.76   16.70
  -3 -10 -16  380.56   16.30
   3  10  16  387.16   16.40
  -4 -10 -16  467.55   18.70
   4 -10  16  471.05   18.30
   4  10  16  455.05   18.90
   5 -10  16  115.39    8.10
  -5 -10 -16  117.99    8.90
  -6 -10 -16  108.09    9.90
   6 -10  16  105.09    7.70
  -7 -10 -16    3.90    4.60
   7 -10  16   10.30    3.80
  -8 -10 -16    1.90    5.00
   8 -10  16   -2.40    3.10
  -9 -10 -16    2.00    4.70
   9 -10  16    3.10    3.50
  10 -10  16   31.20    5.20
 -10 -10 -16   36.80    7.60
  11 -10  16   42.90    5.50
 -11 -10 -16   40.10    8.80
 -10 -11  16   13.80    6.50
  -9 -11  16   11.00    5.90
  -8 -11  16    8.90    5.40
  -7 -11  16   28.70    7.10
  -6 -11  16   16.50    5.80
  -5 -11  16    0.90    4.30
  -4 -11  16   31.70    6.20
  -3 -11  16   30.50    5.90
  -3  11  16   19.30    3.10
  -2 -11  16   41.80    6.60
  -2  11  16   48.60    4.70
   1 -11 -16    9.30    2.00
   1 -11 -16   13.20    2.10
  -1 -11  16    9.90    4.60
  -1  11  16    3.60    2.90
   0 -11  16    1.10    3.90
   0 -11 -16   -2.20    2.00
   0  11  16   -0.30    2.70
   1 -11  16   12.80    4.70
  -1 -11 -16   10.60    3.20
   1  11  16   12.10    3.80
  -2 -11 -16   44.90    5.40
   2 -11  16   51.69    6.40
   2  11  16   44.10    5.60
  -3 -11 -16   22.50    4.80
   3 -11  16   31.00    5.20
   4 -11  16   27.70    5.00
  -4 -11 -16   32.90    5.70
   5 -11  16    2.00    3.60
  -5 -11 -16    6.10    4.20
   6 -11  16   32.00    5.20
  -6 -11 -16   23.20    5.50
  -7 -11 -16   15.20    5.20
   7 -11  16   41.50    5.40
  -8 -11 -16    6.80    4.90
   8 -11  16    9.10    3.70
  -9 -11 -16   -1.40    4.70
   9 -11  16    2.70    3.40
  10 -11  16   24.70    4.50
 -10 -11 -16   21.30    6.80
  -9 -12  16   -5.60    5.60
  -8 -12  16    9.10    6.70
  -7 -12  16    4.00    5.30
  -6 -12  16    3.00    4.70
  -5 -12  16   56.39    7.80
  -4 -12  16   56.89    8.10
  -3 -12  16   12.60    4.90
  -2 -12  16  352.86   16.80
   1 -12 -16   67.79    3.30
  -1 -12  16   65.79    7.50
   0 -12 -16   28.70    3.50
   0 -12  16   28.10    5.30
   1 -12  16   69.29    7.30
  -1 -12 -16   65.19    5.70
  -2 -12 -16  334.27   13.90
   2 -12  16  316.77   14.80
   3 -12  16   11.70    4.30
  -3 -12 -16   15.80    4.30
  -4 -12 -16   62.59    7.30
   4 -12  16   61.09    6.80
  -5 -12 -16   60.49    7.30
   5 -12  16   54.59    6.30
  -6 -12 -16   -0.80    4.30
   6 -12  16    3.80    3.60
  -7 -12 -16    4.30    4.90
   7 -12  16    2.20    3.40
   8 -12  16    1.70    3.20
  -8 -12 -16    0.80    5.40
   9 -12  16    0.60    3.20
  -9 -12 -16   -7.30    4.30
  -8 -13  16  249.08   16.60
  -7 -13  16    2.20    4.90
  -6 -13  16   40.30    7.70
  -5 -13  16   -4.80    3.90
  -4 -13  16  138.99   11.50
  -3 -13  16   -1.90    3.80
  -2 -13  16  119.99    9.50
  -1 -13  16   22.10    5.70
   0 -13 -16    1.50    2.10
   0 -13  16    1.20    3.70
  -1 -13 -16   11.30    3.30
   1 -13  16   17.30    5.00
  -2 -13 -16  120.89    8.20
   2 -13  16  126.39    9.20
  -3 -13 -16    1.60    3.40
   3 -13  16   -4.60    3.30
  -4 -13 -16  122.59    9.10
   4 -13  16  125.89    8.70
  -5 -13 -16    1.50    4.00
   5 -13  16   -3.70    3.30
  -6 -13 -16   44.90    7.40
   6 -13  16   43.70    5.90
   7 -13  16    0.90    3.20
  -7 -13 -16    1.40    5.20
  -8 -13 -16  231.98   14.60
   8 -13  16  233.58   11.00
  -7 -14  16    7.70    6.20
  -6 -14  16    7.70    5.70
  -5 -14  16   -0.30    5.00
  -4 -14  16   39.80    7.70
  -3 -14  16    3.00    4.80
  -2 -14  16   -4.00    3.80
  -1 -14  16   14.90    5.40
   0 -14  16  101.69    9.70
   0 -14 -16  104.59    5.50
  -1 -14 -16   15.10    3.50
   1 -14  16   18.10    5.10
  -2 -14 -16    0.00    3.00
   2 -14  16   -0.10    4.10
  -3 -14 -16    0.00    3.50
   3 -14  16    4.10    4.00
  -4 -14 -16   26.80    5.50
   4 -14  16   34.30    5.50
  -5 -14 -16    1.40    4.00
   5 -14  16    4.00    3.80
  -6 -14 -16    3.40    4.60
   6 -14  16    9.10    3.70
  -7 -14 -16    3.60    5.40
  -5 -15  16    1.20    4.80
  -4 -15  16    3.80    4.70
  -3 -15  16    1.70    4.50
  -2 -15  16   34.40    6.60
  -1 -15  16   20.20    5.80
   0 -15  16    1.20    4.60
  -1 -15 -16   22.30    3.90
   1 -15  16   22.60    5.70
   2 -15  16   33.10    6.20
  -2 -15 -16   34.50    5.00
  -3 -15 -16   -0.20    3.30
   3 -15  16   -2.80    3.90
   4 -15  16    2.10    3.70
  -4 -15 -16   -0.40    4.00
  -5 -15 -16    4.80    4.60
   5 -15  16    3.80    3.50
  -2 -16  16   29.80    6.70
  -1 -16  16   -1.60    4.70
   0 -16  16  101.29   10.00
   1 -16  16    2.90    4.40
   2 -16  16   21.70    5.80
  -2 -16 -16   25.50    4.50
 -13   0  17   -1.60    4.10
 -12   0  17    3.80    4.20
 -11   0  17    4.60    3.90
 -10   0  17   -2.80    3.20
  -9   0  17    5.40    3.30
  -8   0  17    2.60    3.30
   8   0 -17    0.20    2.90
  -7   0  17   -1.60    2.60
   7   0 -17    0.10    2.80
   6   0 -17   -3.10    2.50
  -6   0  17    1.60    2.80
   5   0 -17    2.80    2.40
  -5   0  17    0.70    2.60
   4   0 -17   -2.50    2.50
  -4   0  17   -2.40    2.40
   3   0 -17    3.90    2.80
  -3   0  17    2.90    2.60
  -2   0  17   -0.80    2.50
   2   0 -17    2.50    2.50
   1   0 -17    2.60    2.40
   2   0  17    0.20    2.70
  -2   0 -17    0.20    2.60
   3   0  17   -0.50    2.90
   4   0  17    2.60    3.30
   5   0  17    0.50    3.50
   6   0  17   -1.90    3.20
   7   0  17    2.00    3.60
   8   0  17   -1.60    3.50
   9   0  17    1.40    3.90
  10   0  17   -4.10    3.70
  11   0  17    2.80    4.50
  12   0  17   -0.30    5.20
 -12   0 -17    1.60    5.30
 -13   0 -17   -6.70    4.90
 -13  -1  17   21.50    5.60
 -12  -1  17  106.19    9.60
 -12   1  17  100.59    8.90
 -11  -1  17  281.47   13.60
 -11   1  17  255.87   12.70
 -10  -1  17   10.70    4.00
 -10   1  17   13.30    4.00
  -9  -1  17  143.69    9.00
  -9   1  17  151.88    8.80
   8  -1 -17   10.50    3.30
  -8  -1  17    7.90    4.00
   8   1 -17    8.20    3.30
  -8   1  17   11.30    3.60
  -7  -1  17  212.88   10.80
   7  -1 -17  236.98   10.30
   7   1 -17  246.88   11.20
  -7   1  17  235.68   10.60
   6  -1 -17  121.69    6.90
  -6  -1  17  114.09    7.80
   6   1 -17  114.89    7.60
  -6   1  17  136.89    7.50
   5  -1 -17  488.05   16.70
  -5  -1  17  466.15   17.40
  -5   1  17  471.65   16.90
   5   1 -17  478.65   17.40
   4  -1 -17  514.05   17.20
  -4  -1  17  479.15   17.70
  -4   1  17  490.35   17.30
   4   1 -17  503.35   17.90
   3  -1 -17    1.60    2.40
  -3  -1  17    2.40    2.80
  -3   1  17    7.70    3.00
   3   1 -17    4.10    2.70
  -2  -1  17  163.98    8.20
   2  -1 -17  149.59    7.50
  -2   1  17  149.39    7.60
   2   1 -17  161.58    8.10
   1  -1 -17  234.58    9.60
  -1  -1  17  201.78    9.70
   1   1 -17  226.18   10.10
  -1   1  17  211.08    9.80
   0  -1  17   -1.20    2.70
   0  -1 -17   -3.90    2.20
   0   1  17    2.20    2.70
   0   1 -17   -0.80    2.30
  -1  -1 -17  213.98    9.50
   1  -1  17  204.68    9.80
   1   1  17  205.88    9.60
  -1   1 -17  209.48    9.60
   2  -1  17  159.78    8.50
  -2  -1 -17  152.88    8.00
  -2   1 -17  152.78    8.10
   2   1  17  138.19    8.00
   3  -1  17    3.00    3.10
  -3  -1 -17    4.00    2.90
   3   1  17   -0.40    2.90
   4  -1  17  485.75   18.00
   4   1  17  466.65   17.80
   5  -1  17  472.25   18.10
   5   1  17  476.25   18.20
   6  -1  17  106.49    7.90
   6   1  17  128.29    8.50
   7  -1  17  215.68   11.70
   7   1  17  219.18   11.70
   8  -1  17    5.00    3.90
   8   1  17   14.70    4.70
   9  -1  17  146.29   10.40
   9   1  17  142.49   10.60
  10  -1  17   11.90    4.80
  10   1  17    8.10    4.70
 -11  -1 -17  297.27   16.00
  11  -1  17  290.37   15.50
  11   1  17  292.17   15.90
  12  -1  17   92.29   10.10
 -12  -1 -17  101.39   11.10
 -12   1 -17  102.89   10.50
  12   1  17  102.09   10.60
 -13  -1 -17   25.00    7.00
 -13   1 -17   27.20    6.80
 -13  -2  17   -0.90    4.80
 -12  -2  17   81.49    8.60
 -12   2  17   80.29    7.80
 -11  -2  17  169.08   10.90
 -11   2  17  181.38   10.00
 -10  -2  17  178.78   10.60
 -10   2  17  176.58    9.60
  -9  -2  17   15.60    4.50
  -9   2  17   22.10    4.10
   8  -2 -17   11.40    3.00
  -8  -2  17    5.70    3.60
  -8   2  17   17.30    3.70
  -7  -2  17  102.09    8.00
   7  -2 -17  106.49    6.30
  -7   2  17  121.39    7.10
   7   2 -17  111.29    7.50
  -6  -2  17  187.58    9.90
   6  -2 -17  194.08    8.60
   6   2 -17  186.28    9.60
  -6   2  17  202.08    9.10
  -5  -2  17  488.35   18.40
   5  -2 -17  506.45   17.00
   5   2 -17  504.85   18.50
  -5   2  17  506.45   17.30
  -4  -2  17    4.10    3.10
   4  -2 -17    1.90    2.20
   4   2 -17    3.20    2.70
  -4   2  17    0.70    2.10
   3  -2 -17  571.64   18.50
  -3  -2  17  568.74   19.70
  -3   2  17  571.14   18.80
   3   2 -17  514.45   19.20
  -2  -2  17   96.59    6.70
   2  -2 -17   93.49    5.80
  -2   2  17   90.39    5.70
   2   2 -17  110.39    7.00
   1  -2 -17  918.31   28.30
  -1  -2  17  893.71   29.10
   1   2 -17  910.11   29.10
  -1   2  17  904.01   28.50
   0  -2  17  349.67   14.40
   0  -2 -17  419.86   14.30
   0   2  17  385.06   14.20
   0   2 -17  366.86   14.40
   1  -2  17  885.91   29.30
  -1  -2 -17  961.10   29.10
   1   2  17  892.21   29.00
  -1   2 -17  907.31   29.20
   2  -2  17  112.29    7.10
  -2  -2 -17   85.49    6.20
   2   2  17   87.69    6.40
   3  -2  17  593.64   20.30
  -3  -2 -17  567.14   19.80
   3   2  17  530.55   19.80
   4  -2  17   -1.10    3.00
   4   2  17   -1.30    3.10
   5  -2  17  492.65   18.60
   5   2  17  495.15   18.90
   6  -2  17  204.58   10.80
   6   2  17  182.48   10.50
   7  -2  17  116.99    8.70
   7   2  17  110.49    8.50
   8  -2  17    7.30    3.80
   8   2  17    2.70    4.10
   9  -2  17   15.90    4.90
   9   2  17   26.30    5.60
 -10  -2 -17  178.28   12.20
  10  -2  17  217.08   12.00
  10   2  17  182.08   12.30
 -11  -2 -17  182.98   13.30
  11  -2  17  182.88   12.00
  11   2  17  180.48   12.80
 -12  -2 -17   85.29   10.50
  12  -2  17   70.49    8.50
 -13  -2 -17    0.80    5.70
 -13   2 -17    4.30    5.10
 -13  -3  17   -2.80    4.90
 -12  -3  17   44.20    7.00
 -11  -3  17   48.20    6.90
 -11   3  17   57.79    6.30
 -10  -3  17    3.70    3.90
 -10   3  17    5.40    3.10
  -9  -3  17   44.10    6.50
  -9   3  17   50.39    5.20
  -8  -3  17   -1.70    3.70
   8  -3 -17   -2.00    1.90
  -8   3  17   -3.60    2.40
   7  -3 -17  271.37   10.30
  -7  -3  17  279.77   13.00
  -7   3  17  270.57   11.10
   6  -3 -17   29.60    3.40
  -6  -3  17   42.60    5.80
  -6   3  17   32.10    4.00
  -5  -3  17   51.39    5.80
   5  -3 -17   52.89    4.10
  -5   3  17   57.99    4.70
   4  -3 -17  471.25   16.10
  -4  -3  17  482.85   18.20
  -4   3  17  502.35   16.70
  -3  -3  17 1021.10   32.60
   3  -3 -17 1027.90   30.90
   3   3 -17  965.80   32.30
  -3   3  17 1048.80   31.20
   2  -3 -17  165.28    7.60
  -2  -3  17  174.08    9.30
  -2   3  17  173.38    8.00
   2   3 -17  158.88    8.60
   1  -3 -17   23.80    3.50
  -1  -3  17   22.70    4.20
  -1   3  17   32.40    3.80
   1   3 -17   31.20    4.40
   0  -3 -17   -1.70    2.00
   0  -3  17    1.30    2.90
   0   3  17   -1.30    2.20
   1  -3  17   34.00    4.70
  -1  -3 -17   28.90    4.10
   1   3  17   31.10    4.10
   2  -3  17  167.18    9.00
  -2  -3 -17  172.28    8.70
   2   3  17  156.98    8.40
   3  -3  17 1043.60   32.90
  -3  -3 -17  955.10   32.20
   3   3  17 1059.09   32.70
   4  -3  17  492.45   18.20
   4   3  17  474.05   18.10
   5  -3  17   51.99    5.80
   5   3  17   42.00    5.50
   6  -3  17   30.60    4.90
   6   3  17   24.80    5.10
   7  -3  17  263.27   12.60
   7   3  17  254.37   13.10
   8  -3  17    2.20    4.00
   8   3  17    1.20    4.40
   9  -3  17   44.60    6.30
  -9  -3 -17   66.59    8.40
   9   3  17   49.30    7.60
  10  -3  17    4.50    4.40
 -10  -3 -17    7.60    5.20
  10   3  17   -0.70    4.40
 -11  -3 -17   57.79    8.50
  11  -3  17   62.79    7.70
  11   3  17   62.79    8.60
  12  -3  17   42.30    6.90
 -12  -3 -17   54.79    8.50
 -13  -3 -17   -0.60    5.20
 -13  -4  17   38.10    7.80
 -12  -4  17   17.90    5.60
 -11  -4  17   -4.70    3.60
 -10  -4  17  198.58   12.00
 -10   4  17  203.78    9.70
  -9  -4  17   54.29    7.00
  -9   4  17   59.29    5.40
  -8  -4  17   24.80    5.10
  -8   4  17   21.50    3.70
  -7  -4  17   17.30    4.80
  -7   4  17   19.20    3.30
  -6  -4  17  332.97   14.50
  -6   4  17  312.17   11.90
  -5  -4  17   27.10    5.00
   5  -4 -17   32.50    3.10
  -5   4  17   30.20    3.70
   4  -4 -17   81.19    4.70
  -4  -4  17   86.49    7.40
  -4   4  17   80.69    5.20
   3  -4 -17  467.35   15.40
  -3  -4  17  460.45   17.70
  -3   4  17  465.65   15.90
   2  -4 -17    8.50    2.50
  -2  -4  17   13.90    3.70
  -2   4  17    9.50    2.70
   1  -4 -17   -0.10    1.90
  -1  -4  17    4.80    3.30
  -1   4  17    2.40    2.40
   0  -4  17  233.68   11.00
   0  -4 -17  242.28    9.90
   0   4  17  241.28   10.30
   1  -4  17    0.90    3.00
  -1  -4 -17    0.60    2.70
   1   4  17    4.20    3.00
   2  -4  17    6.10    3.50
  -2  -4 -17   12.60    3.60
   2   4  17    8.70    3.40
  -3  -4 -17  429.86   16.60
   3  -4  17  469.35   17.30
   3   4  17  455.05   17.10
   4  -4  17   90.59    7.10
   4   4  17   55.39    5.70
   5  -4  17   32.00    4.80
   5   4  17   31.60    5.10
   6  -4  17  344.07   14.80
   6   4  17  328.97   14.90
   7  -4  17   19.80    5.00
   7   4  17   18.30    4.90
  -8  -4 -17   23.40    5.70
   8  -4  17   19.80    4.70
   8   4  17   29.10    5.70
   9  -4  17   70.39    7.60
  -9  -4 -17   53.99    7.60
   9   4  17   65.09    7.90
 -10  -4 -17  180.98   12.60
  10  -4  17  202.88   11.50
  10   4  17  193.98   12.60
 -11  -4 -17   -1.60    4.50
  11  -4  17   -1.10    4.20
  12  -4  17   19.10    5.30
 -12  -4 -17   13.40    6.20
 -13  -4 -17   26.10    7.20
 -13  -5  17  116.29   11.60
 -12  -5  17   17.30    5.60
 -11  -5  17   30.10    6.50
 -10  -5  17  129.69   10.00
  -9  -5  17   22.90    5.50
  -9   5  17   26.10    3.80
  -8  -5  17    2.80    4.20
  -8   5  17   19.80    3.20
  -7  -5  17    5.50    4.10
  -7   5  17   14.40    2.90
  -6  -5  17  859.21   28.70
   6  -5 -17  767.52   22.80
  -6   5  17  817.72   25.20
  -5  -5  17   -0.40    3.40
   5  -5 -17    0.60    1.20
  -5   5  17   -1.00    2.00
  -4  -5  17   -0.70    3.40
   4  -5 -17    0.50    0.90
  -4   5  17    1.20    2.10
   3  -5 -17  302.67   10.60
  -3  -5  17  304.17   13.40
  -3   5  17  296.47   11.20
   2  -5 -17  154.48    7.10
  -2  -5  17  158.68    9.10
  -2   5  17  165.88    7.50
  -1  -5  17  148.49    8.70
   1  -5 -17  138.19    6.80
  -1   5  17  154.38    7.40
   0  -5  17   -1.80    2.90
   0  -5 -17    0.50    2.30
   0   5  17   -3.10    2.30
  -1  -5 -17  165.68    7.90
   1  -5  17  152.48    8.70
   1   5  17  140.79    7.70
  -2  -5 -17  158.38    8.20
   2  -5  17  146.89    8.70
   2   5  17  168.08    8.90
   3  -5  17  313.47   13.20
  -3  -5 -17  298.77   12.60
   3   5  17  290.97   12.80
   4  -5  17   -4.30    2.60
   4   5  17   -0.40    2.80
   5  -5  17    2.70    3.20
   5   5  17    1.60    3.40
  -6  -5 -17  798.62   28.20
   6  -5  17  784.72   27.20
   6   5  17  797.42   28.20
  -7  -5 -17   15.60    5.00
   7  -5  17   16.80    4.60
   7   5  17    6.70    4.30
  -8  -5 -17   16.40    5.10
   8  -5  17   12.40    4.40
   8   5  17   13.20    5.00
  -9  -5 -17   25.60    6.00
   9  -5  17   15.30    4.40
   9   5  17   23.60    5.80
 -10  -5 -17  161.48   11.60
  10  -5  17  124.29    9.60
  10   5  17  130.39   10.80
 -11  -5 -17   40.20    7.60
  11  -5  17   32.30    6.00
 -12  -5 -17    9.00    5.80
  12  -5  17   16.10    5.40
 -13  -5 -17   93.39   11.60
 -12  -6  17   10.30    5.60
 -11  -6  17   -1.40    4.60
 -10  -6  17   17.80    5.60
  -9  -6  17  105.19   10.00
  -9   6  17  119.39    6.40
  -8  -6  17    3.00    4.50
  -8   6  17    4.40    2.20
  -7  -6  17   21.80    5.30
  -7   6  17   30.50    3.40
  -6  -6  17   11.60    4.60
  -6   6  17   15.90    2.70
  -5  -6  17   67.19    7.30
  -5   6  17   66.89    4.60
   4  -6 -17   25.60    2.00
   4  -6 -17   26.60    2.10
  -4  -6  17   21.80    4.90
  -4   6  17   26.30    3.20
  -3  -6  17    1.70    3.60
   3  -6 -17    0.60    0.90
  -3   6  17   -1.70    1.90
  -2  -6  17   52.39    6.10
   2  -6 -17   58.89    4.00
  -2   6  17   54.39    4.40
   1  -6 -17   -0.50    2.00
  -1  -6  17   -0.80    3.10
  -1   6  17   -3.00    2.20
   0  -6 -17   56.69    5.00
   0  -6  17   50.69    5.80
   0   6  17   59.49    5.20
  -1  -6 -17   -3.10    2.40
   1  -6  17    6.40    3.30
   1   6  17    3.90    2.90
   2  -6  17   49.70    5.70
  -2  -6 -17   67.19    6.20
   2   6  17   53.09    5.40
   3  -6  17   -3.10    2.70
  -3  -6 -17   -1.20    2.50
  -3  -6 -17   -4.10    2.70
   3   6  17    3.00    3.30
   4  -6  17   25.10    4.80
  -4  -6 -17   17.60    4.40
   4   6  17   32.30    5.30
  -5  -6 -17   84.49    7.70
   5  -6  17   57.19    6.40
   5   6  17   60.19    6.70
   6  -6  17   10.20    4.20
  -6  -6 -17   16.20    4.60
   6   6  17   10.30    4.50
   7  -6  17   39.40    5.70
  -7  -6 -17   29.90    5.80
   7   6  17   22.70    5.50
  -8  -6 -17    4.00    4.50
   8  -6  17   -6.30    3.10
   8   6  17   -0.50    3.80
  -9  -6 -17   96.59   10.00
   9  -6  17  123.89    9.00
   9   6  17  131.99   10.50
 -10  -6 -17   14.40    6.00
  10  -6  17   24.40    5.20
 -11  -6 -17   -2.60    5.40
  11  -6  17   -0.70    4.00
  12  -6  17    6.40    4.50
 -12  -6 -17    0.70    5.40
 -12  -7  17    4.80    5.30
 -11  -7  17   24.10    7.00
 -10  -7  17   10.40    5.40
  -9  -7  17  111.69   10.60
  -8  -7  17   10.10    4.80
  -8   7  17    2.50    2.00
  -7  -7  17  225.28   12.90
  -7   7  17  222.08    8.60
  -6  -7  17  184.68   11.30
  -6   7  17  176.68    7.40
  -5  -7  17   44.60    6.30
  -5   7  17   43.10    3.70
  -4  -7  17   67.59    7.60
  -4   7  17   59.39    4.30
   3  -7 -17  740.63   21.90
   3  -7 -17  762.92   21.90
  -3  -7  17  738.23   26.60
  -3   7  17  763.32   23.60
  -2  -7  17  329.77   14.70
   2  -7 -17  344.67   11.60
   2  -7 -17  338.07   11.50
  -2   7  17  345.47   12.60
   1  -7 -17    1.10    2.00
  -1  -7  17    4.90    3.60
   1  -7 -17    2.20    2.20
  -1   7  17   -0.60    2.30
   0  -7 -17   -3.80    2.10
   0  -7 -17   -0.80    2.30
   0  -7  17   -5.00    2.80
   0   7  17   -1.90    2.50
  -1  -7 -17    2.50    2.60
  -1  -7 -17    1.30    2.60
   1  -7  17    2.10    3.10
   1   7  17   -1.70    2.70
  -2  -7 -17  338.97   13.80
   2  -7  17  339.17   14.30
  -2  -7 -17  350.16   13.70
   2   7  17  307.17   13.40
  -3  -7 -17  715.63   25.40
  -3  -7 -17  753.22   25.80
   3  -7  17  793.72   26.30
   3   7  17  750.42   25.90
   4  -7  17   46.40    5.60
  -4  -7 -17   58.39    6.30
   4   7  17   53.99    6.30
  -5  -7 -17   51.79    6.70
   5  -7  17   37.00    5.40
   5   7  17   45.60    6.20
  -6  -7 -17  206.38   11.50
   6  -7  17  184.38   10.40
   6   7  17  191.38   11.40
   7  -7  17  246.78   12.20
  -7  -7 -17  252.37   13.50
   7   7  17  232.98   13.20
  -8  -7 -17   -1.90    3.90
   8  -7  17    1.70    3.60
   8   7  17    2.90    4.40
   9  -7  17   99.99    8.20
  -9  -7 -17   99.59   10.10
 -10  -7 -17    5.60    5.20
  10  -7  17    9.10    4.40
  11  -7  17   23.40    5.40
 -11  -7 -17   18.50    7.20
 -12  -7 -17   11.20    6.40
  12  -7  17    4.20    4.10
 -12  -8  17   11.50    6.30
 -11  -8  17   11.20    5.70
 -10  -8  17   25.40    6.70
  -9  -8  17  370.96   18.40
  -8  -8  17   -0.30    4.40
  -7  -8  17  412.76   18.70
  -7   8  17  401.16   13.20
  -6  -8  17    0.80    4.00
  -6   8  17    2.20    1.80
  -5  -8  17  143.69   10.10
  -5   8  17  132.59    6.10
  -4  -8  17   68.39    7.60
  -4   8  17   69.39    4.60
  -3  -8  17   50.69    6.90
  -3   8  17   50.49    4.30
   2  -8 -17   12.00    2.10
  -2  -8  17   14.10    4.40
  -2   8  17    8.20    2.70
   1  -8 -17   16.10    2.80
  -1  -8  17    9.90    4.50
   1  -8 -17   17.40    2.80
  -1   8  17   14.40    3.30
   0  -8 -17 1094.79   32.90
   0  -8 -17 1037.80   32.60
   0  -8  17 1040.80   34.90
   0   8  17 1092.59   33.50
   1  -8  17   10.80    3.90
  -1  -8 -17   12.60    3.20
  -1  -8 -17   13.70    3.30
   1   8  17   16.20    3.60
  -2  -8 -17    5.00    3.40
   2  -8  17    6.80    4.00
  -2  -8 -17    6.10    3.40
   2   8  17   10.50    3.80
  -3  -8 -17   54.19    6.10
   3  -8  17   61.79    6.50
  -3  -8 -17   49.80    5.70
   3   8  17   56.09    6.20
  -4  -8 -17   69.19    6.90
   4  -8  17   80.49    7.40
   4   8  17   59.59    6.70
  -5  -8 -17  149.88   10.00
   5  -8  17  134.69    9.00
   5   8  17  144.29   10.10
  -6  -8 -17    4.90    4.00
   6  -8  17    6.20    3.70
   6   8  17   -0.20    3.90
   7  -8  17  426.86   17.10
  -7  -8 -17  411.76   18.80
   7   8  17  407.76   18.50
   8  -8  17    3.90    3.70
  -8  -8 -17    7.20    4.70
   8   8  17    6.60    4.90
  -9  -8 -17  362.06   18.30
   9  -8  17  367.56   15.90
  10  -8  17   27.20    5.60
 -10  -8 -17   31.20    7.10
  11  -8  17    7.60    4.20
 -11  -8 -17   16.20    6.80
 -12  -8 -17   14.20    6.80
  12  -8  17    0.50    4.10
 -11  -9  17   29.50    7.50
 -10  -9  17    3.60    5.20
  -9  -9  17   -5.70    4.60
  -8  -9  17    8.60    5.10
  -7  -9  17   70.39    8.60
  -6  -9  17    8.10    5.00
  -6   9  17   11.40    2.00
  -5  -9  17   47.30    7.00
  -5   9  17   53.49    3.70
  -4  -9  17  227.78   12.90
  -4   9  17  243.38    9.20
  -3  -9  17   -0.20    4.20
  -3   9  17    1.60    2.20
   2  -9 -17   17.50    2.00
  -2  -9  17   12.00    4.90
   2  -9 -17   15.90    1.80
  -2   9  17   17.00    3.20
   1  -9 -17  356.16   12.40
  -1  -9  17  358.66   15.60
   1  -9 -17  336.17   12.10
  -1   9  17  353.56   13.40
   0  -9  17   -0.20    3.40
   0  -9 -17   -1.10    2.20
   0  -9 -17    1.50    2.40
   0   9  17    2.50    2.80
  -1  -9 -17  325.27   13.40
   1  -9  17  343.47   15.30
  -1  -9 -17  348.67   13.60
   1   9  17  356.06   14.20
  -2  -9 -17   23.40    4.30
   2  -9  17   17.70    4.30
  -2  -9 -17   15.20    4.00
   2   9  17   20.10    4.40
  -3  -9 -17   -1.30    3.00
   3  -9  17    4.10    3.70
  -3  -9 -17   -1.70    3.20
   3   9  17    3.30    3.40
   4  -9  17  251.67   12.40
  -4  -9 -17  262.67   12.90
   4   9  17  247.68   12.50
  -5  -9 -17   34.90    5.90
   5  -9  17   49.40    6.10
   5   9  17   48.30    6.60
  -6  -9 -17    6.90    4.40
   6  -9  17    9.80    3.90
   6   9  17   10.50    4.70
   7  -9  17   68.59    6.90
  -7  -9 -17   89.99    9.20
   8  -9  17    6.80    4.00
  -8  -9 -17    6.90    4.80
  -9  -9 -17    1.90    4.70
   9  -9  17    1.40    3.50
 -10  -9 -17    7.50    5.60
  10  -9  17    5.00    3.80
  11  -9  17   44.40    6.10
 -11  -9 -17   24.70    7.50
 -10 -10  17   -1.30    5.30
  -9 -10  17   13.90    5.90
  -8 -10  17   74.59    9.90
  -7 -10  17   13.30    5.60
  -6 -10  17   88.89    9.70
  -5 -10  17    3.60    4.40
  -4 -10  17   23.60    5.70
  -4  10  17   25.30    3.10
  -3 -10  17   13.60    5.00
  -3  10  17   17.70    3.10
  -2 -10  17  144.99    9.90
  -2  10  17  141.19    7.40
  -1 -10  17   97.19    9.10
   1 -10 -17  113.99    5.60
  -1  10  17  105.79    6.60
   0 -10 -17  329.67   12.50
   0 -10 -17  329.57   12.60
   0 -10  17  346.97   15.60
   0  10  17  344.27   13.80
  -1 -10 -17  112.19    7.00
  -1 -10 -17  103.49    7.00
   1 -10  17  105.69    8.70
   1  10  17   92.89    7.20
   2 -10  17  146.39    9.70
  -2 -10 -17  143.89    8.60
   2  10  17  139.19    8.70
   3 -10  17   11.90    4.60
  -3 -10 -17   25.20    5.10
   3  10  17   20.00    4.60
  -4 -10 -17   28.10    5.40
   4 -10  17   27.80    5.10
   4  10  17   19.10    4.90
   5 -10  17    2.20    3.50
  -5 -10 -17    5.40    4.30
   5  10  17    8.60    4.20
  -6 -10 -17   95.29    9.20
   6 -10  17   95.19    8.20
   7 -10  17   13.10    4.30
  -7 -10 -17   10.10    4.90
  -8 -10 -17   55.09    8.40
   8 -10  17   50.59    6.10
  -9 -10 -17   10.80    5.50
   9 -10  17    7.20    3.90
 -10 -10 -17    4.40    6.10
  10 -10  17    4.60    4.00
 -10 -11  17    2.60    6.60
  -9 -11  17    1.10    5.40
  -8 -11  17   11.60    6.10
  -7 -11  17   91.09   10.00
  -6 -11  17   59.89    8.30
  -5 -11  17   11.90    5.30
  -4 -11  17  236.88   13.50
  -3 -11  17   65.99    7.90
  -3  11  17   63.99    4.90
  -2 -11  17   49.00    6.80
  -2  11  17   50.69    4.90
   1 -11 -17  238.48    8.50
  -1 -11  17  212.68   12.20
  -1  11  17  227.68   10.50
   0 -11  17   -1.80    4.00
   0 -11 -17   -0.50    2.20
   0  11  17    4.10    3.00
   1 -11  17  216.28   12.10
  -1 -11 -17  237.18   10.40
   1  11  17  213.28   11.20
  -2 -11 -17   50.59    5.80
   2 -11  17   50.89    6.40
   2  11  17   52.29    6.40
   3 -11  17   79.79    7.70
  -3 -11 -17   64.59    6.80
   3  11  17   60.69    7.10
   4 -11  17  222.58   11.70
  -4 -11 -17  217.18   12.00
  -5 -11 -17   12.00    5.00
   5 -11  17   17.00    4.40
  -6 -11 -17   53.29    7.30
   6 -11  17   68.59    7.10
   7 -11  17  111.79    8.30
  -7 -11 -17  112.29   10.40
   8 -11  17   15.40    4.30
  -8 -11 -17    8.70    5.50
   9 -11  17   -2.80    3.20
  -9 -11 -17    7.30    5.90
 -10 -11 -17   -1.10    5.10
  10 -11  17    2.10    3.50
  -9 -12  17   24.40    7.70
  -8 -12  17    7.10    6.10
  -7 -12  17  147.69   12.10
  -6 -12  17   26.20    6.80
  -5 -12  17   50.39    7.70
  -4 -12  17   15.80    6.10
  -3 -12  17    7.00    4.70
  -2 -12  17   75.89    8.30
  -1 -12  17   14.40    5.10
   1 -12 -17   19.90    2.10
   0 -12 -17  100.69    6.00
   0 -12  17  101.59    8.50
  -1 -12 -17   20.50    3.80
   1 -12  17   12.60    4.70
   2 -12  17   84.99    8.20
  -2 -12 -17   91.29    7.20
   3 -12  17    8.30    4.40
  -3 -12 -17   17.80    4.40
  -4 -12 -17   25.40    5.40
   4 -12  17   17.30    4.80
  -5 -12 -17   51.69    7.30
   5 -12  17   52.39    6.40
  -6 -12 -17   27.50    6.30
   6 -12  17   29.00    5.10
  -7 -12 -17  145.69   11.50
   7 -12  17  139.59    9.00
  -8 -12 -17   -1.10    4.90
   8 -12  17   -2.50    3.30
  -9 -12 -17   22.50    7.30
   9 -12  17   26.40    4.80
  -8 -13  17   24.60    7.90
  -7 -13  17   67.69    9.50
  -6 -13  17   19.80    6.20
  -5 -13  17   39.60    7.50
  -4 -13  17   20.10    6.00
  -3 -13  17    2.90    4.70
  -2 -13  17   78.99    9.00
  -1 -13  17    6.00    4.70
   0 -13 -17    0.00    2.20
   0 -13  17    2.60    3.80
   1 -13  17    5.50    4.60
  -1 -13 -17   12.10    3.50
  -2 -13 -17   79.89    7.10
   2 -13  17   87.69    8.40
  -3 -13 -17    2.30    3.40
   3 -13  17   -2.40    3.60
   4 -13  17   28.00    5.40
  -4 -13 -17   17.00    5.10
  -5 -13 -17   27.90    6.00
   5 -13  17   48.60    6.20
   6 -13  17   19.10    4.80
  -6 -13 -17   14.70    5.60
   7 -13  17   61.69    6.60
  -7 -13 -17   76.39    9.50
  -8 -13 -17   28.80    7.10
   8 -13  17   15.50    4.10
  -6 -14  17   20.60    6.60
  -5 -14  17   21.80    6.50
  -4 -14  17    9.10    5.40
  -3 -14  17  137.19   10.80
  -2 -14  17   -4.10    4.40
  -1 -14  17   14.50    5.60
   0 -14  17   50.79    7.40
  -1 -14 -17   15.00    3.50
   1 -14  17   18.10    5.60
  -2 -14 -17    1.00    3.10
   2 -14  17    2.30    4.30
   3 -14  17  146.39    9.80
  -3 -14 -17  128.29    9.10
   4 -14  17   10.00    4.50
  -4 -14 -17    7.40    4.40
  -5 -14 -17   27.80    5.90
   5 -14  17   26.50    5.10
  -6 -14 -17   11.40    5.30
   6 -14  17   13.10    4.20
  -5 -15  17   13.60    6.40
  -4 -15  17   19.30    6.40
  -3 -15  17   89.79   10.00
  -2 -15  17   -0.90    4.50
  -1 -15  17    5.00    4.90
   0 -15  17    6.60    5.00
   1 -15  17   15.80    5.50
  -2 -15 -17    7.10    3.50
   2 -15  17    7.00    4.50
  -3 -15 -17   78.59    7.70
   3 -15  17   82.69    8.40
  -4 -15 -17   25.80    5.70
   4 -15  17   23.20    5.30
   5 -15  17   17.00    4.70
  -5 -15 -17    9.00    4.90
  -1 -16  17    2.00    5.00
   0 -16  17    8.20    5.30
   1 -16  17    0.10    4.30
 -13   0  18   -5.40    4.00
 -12   0  18    4.40    4.30
 -11   0  18   30.30    5.60
 -10   0  18  111.09    8.40
  -9   0  18   51.39    6.20
   8   0 -18  224.38   10.70
  -8   0  18  216.88   10.90
   7   0 -18  167.08    8.90
  -7   0  18  158.08    9.10
   6   0 -18  518.95   18.20
  -6   0  18  481.55   18.10
   5   0 -18  800.12   24.80
  -5   0  18  689.93   24.50
   4   0 -18   11.60    3.20
  -4   0  18    7.40    3.00
   3   0 -18  335.87   12.70
  -3   0  18  304.37   12.60
   2   0 -18  478.05   17.10
  -2   0  18  479.35   17.30
   1   0 -18  354.26   13.60
  -1   0  18  356.06   14.00
   0   0  18  394.66   15.40
   0   0 -18  434.36   15.50
  -1   0 -18  317.97   13.00
   1   0  18  338.07   13.30
  -2   0 -18  445.76   16.60
   2   0  18  447.16   17.00
   3   0  18  319.87   13.50
   4   0  18    3.50    3.30
   5   0  18  712.23   25.00
   6   0  18  485.75   19.00
   7   0  18  148.49    9.70
   8   0  18  221.58   12.20
   9   0  18   65.39    7.60
  10   0  18  111.19   10.10
  11   0  18   36.80    6.80
 -12   0 -18    3.60    5.00
  12   0  18   -2.20    4.20
 -13   0 -18    7.70    5.70
 -13  -1  18   12.50    5.30
 -12  -1  18   15.00    4.80
 -12   1  18   15.30    4.70
 -11  -1  18   14.70    5.00
 -11   1  18   12.10    4.40
 -10  -1  18   12.60    4.20
 -10   1  18    8.30    3.80
  -9  -1  18  106.89    8.00
  -9   1  18  105.09    7.70
   8  -1 -18   83.09    6.60
  -8  -1  18  106.49    8.00
   8   1 -18   86.79    7.10
  -8   1  18   94.99    7.10
   7  -1 -18    0.10    2.40
  -7  -1  18    3.10    3.50
   7   1 -18   -1.00    2.80
  -7   1  18    1.10    3.00
   6  -1 -18   83.99    6.00
  -6  -1  18   77.09    6.90
   6   1 -18   86.69    6.60
  -6   1  18   73.99    6.10
   5  -1 -18  321.57   12.50
  -5  -1  18  320.27   13.20
  -5   1  18  323.07   12.80
   5   1 -18  309.87   12.90
  -4  -1  18   51.99    5.50
   4  -1 -18   58.79    5.20
  -4   1  18   59.69    5.40
   4   1 -18   60.39    5.80
  -3  -1  18  432.76   16.10
   3  -1 -18  437.56   15.30
  -3   1  18  402.46   15.20
   3   1 -18  410.86   15.70
   2  -1 -18  542.95   17.80
  -2  -1  18  473.35   18.00
  -2   1  18  499.85   17.80
   2   1 -18  511.35   18.20
   1  -1 -18 1723.73   47.70
  -1  -1  18 1508.55   47.80
  -1   1  18 1523.55   47.40
   1   1 -18 1592.24   47.80
   0  -1 -18   -0.60    2.40
   0  -1  18   -1.90    2.80
   0   1 -18    2.90    2.80
   0   1  18    3.40    2.80
  -1  -1 -18 1658.23   47.10
   1  -1  18 1517.85   47.20
   1   1  18 1509.05   47.00
  -1   1 -18 1547.95   47.10
   2  -1  18  483.75   18.40
  -2  -1 -18  514.95   18.30
   2   1  18  526.85   18.50
   3  -1  18  414.26   16.10
   3   1  18  385.36   15.60
   4  -1  18   53.09    6.00
   4   1  18   64.29    6.40
   5  -1  18  292.57   13.20
   5   1  18  300.57   13.40
   6  -1  18   67.59    6.90
   6   1  18   74.99    7.30
   7  -1  18    6.90    4.30
   7   1  18    4.40    3.70
   8  -1  18   90.79    8.40
   8   1  18   85.99    8.40
   9  -1  18  103.59    8.60
   9   1  18   96.59    9.30
  10  -1  18   14.40    4.90
  10   1  18    6.90    4.70
 -11  -1 -18   10.70    5.50
  11  -1  18    5.00    4.50
  11   1  18   12.60    5.40
  12  -1  18   18.40    5.50
 -12  -1 -18   13.70    5.80
  12   1  18   16.70    6.20
 -13  -1 -18   14.20    6.40
 -13   1 -18   10.30    6.40
 -13  -2  18    2.30    4.90
 -12  -2  18    8.90    4.80
 -11  -2  18   57.09    7.60
 -11   2  18   58.19    6.60
 -10  -2  18  119.89    9.40
 -10   2  18  136.59    8.50
  -9  -2  18   -1.40    3.10
  -9   2  18    6.00    3.30
  -8  -2  18   41.20    5.70
   8  -2 -18   42.50    4.50
  -8   2  18   48.80    5.30
   7  -2 -18   38.60    4.30
  -7  -2  18   41.70    5.50
  -7   2  18   50.79    5.10
   6  -2 -18  106.19    6.40
  -6  -2  18  109.49    7.70
   6   2 -18  103.49    7.20
  -6   2  18  110.49    6.80
  -5  -2  18  523.15   19.00
   5  -2 -18  525.05   17.40
  -5   2  18  522.25   17.80
   5   2 -18  458.85   18.20
   4  -2 -18   86.39    5.50
  -4  -2  18   79.29    6.50
   4   2 -18   87.19    6.40
  -4   2  18   83.19    5.90
  -3  -2  18    0.00    3.00
   3  -2 -18    6.40    2.50
   3   2 -18    4.10    3.30
  -3   2  18    8.00    2.70
   2  -2 -18  364.86   13.20
  -2  -2  18  324.57   13.70
   2   2 -18  349.96   13.90
  -2   2  18  354.96   13.40
   1  -2 -18  298.37   11.40
  -1  -2  18  277.67   12.10
   1   2 -18  280.07   12.00
  -1   2  18  286.97   11.50
   0  -2 -18  186.88    8.70
   0  -2  18  171.08    9.00
   0   2  18  157.18    8.50
   0   2 -18  164.68    8.70
   1  -2  18  266.77   11.90
  -1  -2 -18  287.07   11.70
   1   2  18  267.27   11.50
   2  -2  18  340.17   14.00
  -2  -2 -18  334.37   13.40
   2   2  18  339.67   13.90
   3  -2  18    1.40    3.10
   3   2  18    4.10    3.30
   4  -2  18   86.39    7.00
   4   2  18   97.29    7.20
   5  -2  18  517.95   19.10
   5   2  18  476.55   19.00
   6  -2  18  128.09    8.50
   6   2  18  108.99    8.40
   7  -2  18   35.70    5.90
   7   2  18   39.00    6.00
   8  -2  18   32.60    5.60
   8   2  18   37.70    6.30
   9  -2  18    1.70    4.00
   9   2  18    0.90    3.90
 -10  -2 -18  147.29   11.20
  10  -2  18  142.39   10.70
  10   2  18  148.49   10.80
 -11  -2 -18   40.10    7.60
  11  -2  18   43.70    6.90
  11   2  18   39.60    7.00
  12  -2  18   12.90    5.40
 -12  -2 -18    2.90    5.30
  12   2  18    0.10    5.10
 -13  -2 -18    9.80    5.90
 -13   2 -18   -0.40    6.00
 -13  -3  18   82.59    9.60
 -12  -3  18    0.60    4.30
 -11  -3  18  108.69    9.80
 -11   3  18   97.19    7.30
 -10  -3  18    3.70    4.00
 -10   3  18    6.30    3.30
  -9  -3  18   43.30    6.30
  -9   3  18   58.19    5.60
   8  -3 -18  129.99    6.50
  -8  -3  18  131.89    9.10
  -8   3  18  128.49    7.70
  -7  -3  18   51.59    6.50
   7  -3 -18   62.59    4.70
  -7   3  18   66.59    5.40
   6  -3 -18  310.97   11.60
  -6  -3  18  306.37   13.90
  -6   3  18  323.37   12.30
   5  -3 -18   -1.00    1.90
  -5  -3  18   -1.20    3.10
  -5   3  18   -0.90    2.30
   4  -3 -18   25.10    3.30
  -4  -3  18   30.60    5.20
  -4   3  18   27.90    3.80
   3  -3 -18   68.19    4.80
  -3  -3  18   71.99    6.50
  -3   3  18   78.89    5.50
  -2  -3  18  205.48   10.30
   2  -3 -18  204.98    8.90
  -2   3  18  210.18    9.30
   1  -3 -18  272.47   10.60
  -1  -3  18  277.27   11.90
  -1   3  18  246.48   10.80
   0  -3 -18    3.00    2.70
   0  -3  18   -0.50    3.00
   0   3  18   -3.00    2.20
   1  -3  18  249.48   11.70
  -1  -3 -18  269.97   11.20
   1   3  18  276.27   11.40
  -2  -3 -18  200.18    9.90
   2  -3  18  211.08   10.30
   2   3  18  209.38   10.00
  -3  -3 -18   76.89    6.20
   3  -3  18   73.29    6.80
   3   3  18   77.79    6.40
   4  -3  18   22.00    4.50
   4   3  18   23.50    4.40
   5  -3  18    0.20    3.20
   5   3  18   -1.40    3.10
   6  -3  18  318.57   14.10
   6   3  18  320.67   14.60
   7  -3  18   73.59    7.30
   7   3  18   64.19    7.40
   8  -3  18  136.69    9.70
   8   3  18  131.99    9.80
   9  -3  18   46.30    6.60
  -9  -3 -18   60.19    7.90
   9   3  18   43.00    6.80
 -10  -3 -18    3.80    5.00
  10  -3  18    6.20    4.60
  10   3  18    9.30    5.00
 -11  -3 -18   94.49   10.40
  11  -3  18  109.29   10.30
  11   3  18  120.79   11.30
 -12  -3 -18    4.00    5.40
  12  -3  18    4.70    5.10
 -13  -3 -18  121.69   12.40
  13  -3  18  109.99   10.90
 -13  -4  18   13.30    6.20
 -12  -4  18   16.40    5.80
 -11  -4  18    4.50    4.30
 -10  -4  18   11.20    4.90
 -10   4  18   17.40    3.80
  -9  -4  18  146.19   10.30
  -9   4  18  162.58    8.30
   8  -4 -18    1.20    1.60
  -8  -4  18    1.60    3.80
  -8   4  18    0.70    2.50
  -7  -4  18  346.87   16.00
  -7   4  18  364.96   13.40
   6  -4 -18    2.40    1.80
  -6  -4  18    6.00    3.90
  -6   4  18    5.20    2.50
  -5  -4  18   11.00    4.20
   5  -4 -18   16.00    2.50
  -5   4  18   20.10    3.20
  -4  -4  18  121.59    8.20
   4  -4 -18  124.39    6.00
  -4   4  18  123.49    6.50
  -3  -4  18  122.69    8.10
   3  -4 -18  117.19    6.00
  -3   4  18  121.69    6.70
  -2  -4  18  174.38    9.50
   2  -4 -18  172.08    7.70
  -2   4  18  175.18    8.20
   1  -4 -18    2.00    2.20
  -1  -4  18   -2.20    3.10
  -1   4  18    2.30    2.50
   0  -4  18  767.72   26.30
   0  -4 -18  809.32   25.10
   0   4  18  747.53   25.00
   1  -4  18   -0.40    3.10
  -1  -4 -18    3.90    2.90
   1   4  18    3.00    2.80
   2  -4  18  153.48    9.00
  -2  -4 -18  170.68    8.50
   2   4  18  163.38    8.70
  -3  -4 -18  101.89    7.00
   3  -4  18  114.49    7.70
   3   4  18  117.99    7.60
   4  -4  18  125.29    8.10
   4   4  18  111.89    7.90
   5  -4  18   11.40    4.00
   5   4  18   19.00    4.50
   6  -4  18    1.10    3.40
   6   4  18    1.60    3.80
   7  -4  18  371.16   15.80
   7   4  18  354.76   16.40
   8  -4  18    0.20    3.40
  -8  -4 -18    3.10    4.20
   8   4  18   -6.90    3.40
  -9  -4 -18  150.78   11.20
   9  -4  18  161.08   10.60
   9   4  18  158.88   11.10
  10  -4  18    8.90    5.00
 -10  -4 -18   21.30    6.20
  10   4  18   17.80    5.60
  11  -4  18    3.70    4.30
 -11  -4 -18    6.90    5.40
  11   4  18   -1.60    4.60
 -12  -4 -18   18.40    6.70
  12  -4  18   11.80    5.60
  13  -4  18   18.30    6.20
 -13  -4 -18   10.60    6.90
 -12  -5  18   34.40    7.40
 -11  -5  18    1.00    4.40
 -10  -5  18    2.00    4.30
  -9  -5  18    0.80    4.00
  -9   5  18    6.40    2.90
  -8  -5  18    9.00    4.60
  -8   5  18    8.90    2.90
  -7  -5  18  108.69    8.80
  -7   5  18  121.19    6.50
  -6  -5  18    2.60    4.00
   6  -5 -18    0.70    1.20
  -6   5  18    5.90    2.40
  -5  -5  18   55.49    6.60
  -5   5  18   54.99    4.60
   4  -5 -18  252.17    9.10
  -4  -5  18  257.17   12.70
  -4   5  18  245.58   10.00
  -3  -5  18   32.10    5.10
   3  -5 -18   30.20    3.20
  -3   5  18   35.60    3.90
   2  -5 -18   15.40    2.80
  -2  -5  18   14.90    4.20
  -2   5  18   14.30    3.00
   1  -5 -18   44.90    4.30
  -1  -5  18   52.89    6.00
  -1   5  18   54.89    4.90
   0  -5 -18    0.20    2.30
   0  -5  18    1.20    3.20
   0   5  18   -0.60    2.30
  -1  -5 -18   44.50    4.90
   1  -5  18   47.00    5.60
   1   5  18   46.20    5.00
   2  -5  18    7.90    3.60
  -2  -5 -18   19.40    3.70
   2   5  18   21.20    4.20
  -3  -5 -18   32.00    4.60
   3  -5  18   23.50    4.50
   3   5  18   23.00    4.30
   4  -5  18  248.38   12.10
   4   5  18  244.88   11.90
   5  -5  18   47.40    6.00
   5   5  18   56.89    6.80
   6  -5  18    5.50    3.70
  -6  -5 -18    1.50    3.80
   6   5  18   -0.50    3.70
  -7  -5 -18  117.69    9.30
   7  -5  18  121.59    8.40
   7   5  18  120.59    9.30
   8  -5  18   13.60    4.70
  -8  -5 -18    8.90    4.70
   8   5  18    6.20    4.60
   9  -5  18    4.80    4.00
  -9  -5 -18    3.60    5.20
   9   5  18    0.60    4.10
 -10  -5 -18    0.20    4.70
  10  -5  18    4.40    4.30
  10   5  18    7.40    5.30
  11  -5  18    2.30    4.50
 -11  -5 -18    6.10    5.70
 -12  -5 -18   35.50    8.00
  12  -5  18   37.50    6.80
 -12  -6  18   10.60    6.40
 -11  -6  18   25.80    6.50
 -10  -6  18   62.29    8.60
  -9  -6  18  101.09    9.80
  -8  -6  18   -6.40    4.20
  -8   6  18    3.00    2.20
  -7  -6  18  298.07   14.70
  -7   6  18  287.77   11.00
  -6  -6  18  115.29    9.10
  -6   6  18  121.59    6.20
  -5  -6  18   47.30    6.40
  -5   6  18   45.90    4.10
   4  -6 -18    3.50    1.50
  -4  -6  18    8.40    4.30
  -4   6  18    7.50    2.40
  -3  -6  18  141.09    9.10
   3  -6 -18  127.69    5.70
  -3   6  18  120.59    6.60
  -2  -6  18   75.99    7.20
   2  -6 -18   63.99    4.50
  -2   6  18   71.29    5.10
   1  -6 -18    0.40    2.10
  -1  -6  18    1.70    3.20
  -1   6  18   -1.70    2.30
   0  -6  18 1484.25   46.00
   0  -6 -18 1455.05   44.00
   0   6  18 1477.05   44.40
   1  -6  18    0.90    3.10
  -1  -6 -18   -0.30    2.70
   1   6  18    0.40    2.80
  -2  -6 -18   73.19    6.40
   2  -6  18   65.19    6.70
   2   6  18   76.19    6.80
   3  -6  18  132.89    8.90
  -3  -6 -18  127.29    7.90
   3   6  18  138.29    8.40
  -4  -6 -18    2.20    3.50
   4  -6  18   -1.00    3.70
   4   6  18    2.60    3.60
  -5  -6 -18   52.99    6.70
   5  -6  18   39.00    5.90
   5   6  18   41.40    6.00
  -6  -6 -18  131.89    9.40
   6  -6  18  130.59    9.00
   6   6  18  119.29    9.10
  -7  -6 -18  255.67   14.00
   7  -6  18  291.17   13.60
   7   6  18  284.77   14.40
  -8  -6 -18    7.00    4.60
   8  -6  18   -2.20    3.50
   8   6  18   -1.00    4.10
   9  -6  18  120.39    9.00
  -9  -6 -18  115.79   10.80
   9   6  18   99.89   10.10
  10  -6  18   48.50    7.10
 -10  -6 -18   53.99    8.60
  10   6  18   49.00    8.10
  11  -6  18   27.40    5.80
 -11  -6 -18   23.30    6.50
 -12  -6 -18   16.80    6.90
  12  -6  18   14.70    5.40
 -12  -7  18   25.80    6.90
 -11  -7  18   68.39    9.30
 -10  -7  18    2.80    4.70
  -9  -7  18   57.69    7.90
  -8  -7  18   -2.30    4.00
  -7  -7  18    6.30    4.60
  -7   7  18    4.80    2.20
  -6  -7  18   23.30    5.60
  -6   7  18   27.60    3.30
  -5  -7  18    2.00    4.00
  -5   7  18    0.80    2.00
  -4  -7  18  114.09    8.90
  -4   7  18  114.19    6.10
  -3  -7  18  224.08   12.00
   3  -7 -18  215.78    7.80
   3  -7 -18  230.58    8.00
  -3   7  18  243.18    9.50
  -2  -7  18   23.70    5.00
   2  -7 -18   33.00    3.30
   2  -7 -18   27.00    3.10
  -2   7  18   30.50    3.80
   1  -7 -18   19.20    3.30
   1  -7 -18   22.90    3.10
  -1  -7  18   14.80    4.20
  -1   7  18   16.90    3.40
   0  -7 -18   -1.80    2.50
   0  -7  18    2.30    3.20
   0  -7 -18    0.50    2.40
   0   7  18    1.70    2.60
  -1  -7 -18   23.70    4.00
   1  -7  18   19.90    4.50
  -1  -7 -18   22.50    4.00
   1   7  18   20.00    4.10
   2  -7  18   30.20    4.90
  -2  -7 -18   32.00    4.90
  -2  -7 -18   38.70    5.10
   2   7  18   30.40    4.90
   3  -7  18  219.48   11.30
  -3  -7 -18  240.88   11.60
  -3  -7 -18  212.98   10.90
   3   7  18  218.78   11.10
  -4  -7 -18  122.09    8.90
   4  -7  18  127.99    8.40
   4   7  18  122.29    8.60
   5  -7  18    6.80    4.10
  -5  -7 -18    1.50    3.50
   5   7  18    2.80    4.00
  -6  -7 -18   30.30    5.60
   6  -7  18   22.00    4.90
   6   7  18   24.90    5.50
   7  -7  18    7.20    3.80
  -7  -7 -18    3.10    4.50
   7   7  18   14.30    5.30
   8  -7  18   -4.90    3.20
  -8  -7 -18    3.40    4.40
   8   7  18    0.40    4.30
  -9  -7 -18  103.49   10.30
   9  -7  18   55.69    7.00
   9   7  18   59.49    8.80
  10  -7  18    6.90    4.60
 -10  -7 -18    7.40    5.80
  11  -7  18   71.59    7.90
 -11  -7 -18   52.49    8.80
  12  -7  18   26.20    5.90
 -12  -7 -18   39.00    8.30
 -11  -8  18   24.90    7.20
 -10  -8  18    5.50    5.20
  -9  -8  18    4.80    4.90
  -8  -8  18   -5.90    4.30
  -7  -8  18   22.40    5.90
  -6  -8  18   12.50    5.10
  -6   8  18   10.10    2.30
  -5  -8  18   66.09    7.80
  -5   8  18   67.19    4.50
  -4  -8  18   -1.90    3.90
  -4   8  18    4.70    2.20
  -3  -8  18   25.60    5.30
  -3   8  18   26.30    3.50
  -2  -8  18  176.58   10.70
   2  -8 -18  184.68    7.30
  -2   8  18  184.98    8.50
  -1  -8  18  447.36   18.30
   1  -8 -18  464.65   15.60
   1  -8 -18  442.66   15.30
  -1   8  18  463.25   16.40
   0  -8  18  205.48   11.00
   0  -8 -18  196.38    9.10
   0  -8 -18  196.28    9.10
   0   8  18  215.68    9.90
   1  -8  18  423.26   17.90
  -1  -8 -18  445.26   16.80
  -1  -8 -18  478.65   16.70
   1   8  18  461.75   17.00
  -2  -8 -18  177.48    9.60
   2  -8  18  182.68   10.20
  -2  -8 -18  186.38    9.70
   2   8  18  168.98    9.70
  -3  -8 -18   25.20    4.90
  -3  -8 -18   28.80    5.00
   3  -8  18   36.90    5.70
   3   8  18   29.80    5.00
   4  -8  18   -0.20    3.50
  -4  -8 -18    6.80    4.10
   4   8  18    4.80    3.60
   5  -8  18   73.49    7.20
  -5  -8 -18   68.59    7.40
   5   8  18   70.29    7.50
   6  -8  18   10.00    3.90
  -6  -8 -18   10.30    4.50
   6   8  18   10.20    4.60
  -7  -8 -18   15.30    5.50
   7  -8  18   16.50    4.30
   7   8  18   29.80    6.30
  -8  -8 -18   -4.50    3.90
   8  -8  18   -1.90    3.30
   8   8  18   -2.50    4.30
   9  -8  18    1.80    3.60
  -9  -8 -18    3.80    4.70
  10  -8  18   -2.20    3.40
 -10  -8 -18    4.70    6.00
  11  -8  18   24.00    5.70
 -11  -8 -18   39.20    8.10
 -11  -9  18    5.90    5.60
 -10  -9  18   -2.10    4.70
  -9  -9  18    7.30    6.10
  -8  -9  18   -2.10    4.50
  -7  -9  18    3.50    4.70
  -6  -9  18  161.38   11.80
  -5  -9  18   95.79    9.40
  -5   9  18   87.69    4.90
  -4  -9  18   34.20    6.40
  -4   9  18   43.10    3.90
  -3  -9  18  159.98   10.50
  -3   9  18  170.78    7.80
  -2  -9  18  172.98   11.00
   2  -9 -18  169.18    6.40
   2  -9 -18  163.98    6.30
  -2   9  18  164.98    8.10
   1  -9 -18  308.57   11.30
  -1  -9  18  319.27   14.90
   1  -9 -18  297.27   11.10
  -1   9  18  305.67   12.40
   0  -9 -18    0.60    2.50
   0  -9 -18   -0.50    2.30
   0  -9  18   -2.80    3.60
   0   9  18   -4.70    2.30
  -1  -9 -18  313.67   12.80
   1  -9  18  319.87   14.70
  -1  -9 -18  313.77   12.80
   1   9  18  293.67   13.20
  -2  -9 -18  156.68    9.10
  -2  -9 -18  168.08    9.30
   2  -9  18  159.48    9.80
   2   9  18  179.28    9.60
  -3  -9 -18  148.29    9.40
  -3  -9 -18  192.88   10.20
   3  -9  18  163.88   10.20
   3   9  18  160.68    9.70
   4  -9  18   49.50    6.30
  -4  -9 -18   45.50    6.00
   4   9  18   30.50    5.60
   5  -9  18  104.39    8.20
  -5  -9 -18   87.69    8.70
   5   9  18  100.89    9.40
  -6  -9 -18  142.79   10.40
   6  -9  18  170.28   10.10
   6   9  18  169.98   11.50
  -7  -9 -18    2.30    4.00
   7  -9  18    4.90    3.80
   7   9  18    9.80    5.50
   8  -9  18   -2.70    3.40
  -8  -9 -18    0.10    4.40
  -9  -9 -18    7.40    5.80
   9  -9  18    9.00    4.20
 -10  -9 -18    3.60    5.40
  10  -9  18    2.50    3.80
  11  -9  18    4.10    4.20
 -11  -9 -18    0.20    5.60
 -10 -10  18   16.50    6.60
  -9 -10  18   80.29   10.20
  -8 -10  18    6.90    5.40
  -7 -10  18   72.39    9.00
  -6 -10  18   34.80    6.80
  -5 -10  18  109.69   10.20
  -4 -10  18   18.80    5.80
  -4  10  18   12.90    2.70
  -3 -10  18  126.99    9.70
  -3  10  18  125.59    6.70
  -2 -10  18  149.79   10.80
  -2  10  18  175.58    8.30
  -1 -10  18   82.69    8.20
   1 -10 -18   94.19    5.30
  -1  10  18   99.19    6.40
   0 -10  18   99.19    8.20
   0 -10 -18  100.19    6.20
   0  10  18   98.09    6.90
   1 -10  18   91.49    8.60
  -1 -10 -18   81.69    6.10
   1  10  18   93.09    7.20
  -2 -10 -18  170.38    9.40
   2 -10  18  178.78   10.40
   2  10  18  152.88    9.70
  -3 -10 -18  113.59    8.40
   3 -10  18  118.59    8.90
   3  10  18  118.69    8.50
   4 -10  18   20.70    4.80
  -4 -10 -18    7.10    4.30
   4  10  18   18.80    5.00
  -5 -10 -18  111.39    9.10
   5 -10  18   96.49    8.00
   5  10  18   94.79    9.10
   6 -10  18   37.80    5.80
  -6 -10 -18   22.40    5.50
   6  10  18   44.50    6.80
  -7 -10 -18   76.59    8.80
   7 -10  18   75.79    7.60
   8 -10  18   10.00    4.20
  -8 -10 -18    6.30    5.40
  -9 -10 -18   76.69   10.00
   9 -10  18   75.99    7.40
  10 -10  18   11.60    4.30
 -10 -10 -18   19.10    6.70
  -9 -11  18    9.30    6.20
  -8 -11  18   17.90    6.80
  -7 -11  18   13.20    5.70
  -6 -11  18   10.00    6.00
  -5 -11  18   30.00    6.60
  -4 -11  18   68.79    8.40
  -3 -11  18  163.08   11.00
  -3  11  18  168.38    8.00
  -2 -11  18   96.99    9.20
  -2  11  18  101.19    6.40
  -1 -11  18   39.30    6.50
   1 -11 -18   44.10    3.60
  -1  11  18   54.49    5.50
   0 -11  18   -2.00    4.00
   0 -11 -18   -1.10    2.10
   0  11  18    1.30    2.90
   1 -11  18   43.30    6.20
  -1 -11 -18   46.20    5.10
   1  11  18   50.29    6.00
   2 -11  18   95.29    8.80
  -2 -11 -18   89.79    7.70
   2  11  18   94.69    8.30
  -3 -11 -18  155.28    9.70
   3 -11  18  160.98   10.20
   3  11  18  159.98   10.00
   4 -11  18   78.59    7.70
  -4 -11 -18   56.29    6.90
   4  11  18   55.69    7.50
  -5 -11 -18   38.10    6.00
   5 -11  18   27.80    5.30
  -6 -11 -18   17.20    5.60
   6 -11  18   14.90    4.40
   7 -11  18   25.90    5.00
  -7 -11 -18   20.50    6.00
  -8 -11 -18   13.80    5.80
   8 -11  18   30.80    5.30
  -9 -11 -18    5.30    6.00
   9 -11  18    0.10    3.60
  -8 -12  18   42.20    8.70
  -7 -12  18   33.30    7.30
  -6 -12  18   12.10    5.90
  -5 -12  18  160.68   11.80
  -4 -12  18  137.39   11.40
  -3 -12  18   26.90    5.90
  -2 -12  18   72.09    8.30
  -2  12  18   60.59    5.70
  -1 -12  18   52.99    7.10
   1 -12 -18   50.49    3.10
  -1  12  18   59.79    5.90
   0 -12  18   52.99    6.90
   0 -12 -18   52.79    4.70
   0  12  18   48.50    5.70
   1 -12  18   61.29    7.60
  -1 -12 -18   50.79    5.30
  -2 -12 -18   60.19    6.40
   2 -12  18   60.29    7.40
   3 -12  18   39.90    6.30
  -3 -12 -18   45.60    6.40
  -4 -12 -18  153.48   10.20
   4 -12  18  165.78   10.30
  -5 -12 -18  163.18   11.00
   5 -12  18  150.78    9.80
   6 -12  18   12.20    4.40
  -6 -12 -18    5.70    5.10
   7 -12  18   26.70    5.20
  -7 -12 -18   29.70    6.90
   8 -12  18   32.50    5.40
  -8 -12 -18   38.20    7.60
  -7 -13  18    7.40    6.00
  -6 -13  18   24.10    7.20
  -5 -13  18   52.09    8.20
  -4 -13  18   31.70    6.60
  -3 -13  18   77.39    9.00
  -2 -13  18   12.60    5.10
  -1 -13  18   55.49    7.50
   0 -13  18    3.40    4.00
   0 -13 -18   -0.30    2.10
   1 -13  18   43.80    6.80
  -1 -13 -18   63.49    5.80
  -2 -13 -18   14.40    4.00
   2 -13  18   18.30    5.10
   3 -13  18   87.39    8.40
  -3 -13 -18   79.39    7.80
  -4 -13 -18   23.00    5.50
   4 -13  18   16.80    4.90
  -5 -13 -18   34.60    6.30
   5 -13  18   37.40    6.00
  -6 -13 -18   14.80    5.60
   6 -13  18   17.50    4.80
  -7 -13 -18   14.50    6.10
   7 -13  18   12.30    4.40
  -6 -14  18    1.80    5.70
  -5 -14  18   -2.50    4.30
  -4 -14  18   10.20    5.30
  -3 -14  18   33.00    7.00
  -2 -14  18   14.20    5.90
  -1 -14  18   72.29    8.80
   0 -14  18    1.10    4.60
  -1 -14 -18   51.89    5.10
   1 -14  18   60.49    7.60
  -2 -14 -18   15.90    4.30
   2 -14  18    9.80    5.10
   3 -14  18   26.00    5.60
  -3 -14 -18   20.90    4.60
  -4 -14 -18   11.90    4.50
   4 -14  18    9.80    4.70
  -5 -14 -18   -0.20    4.20
   5 -14  18    1.10    3.80
   6 -14  18   -1.30    3.80
  -6 -14 -18   -1.40    4.00
  -4 -15  18   -2.40    4.50
  -3 -15  18  127.79   12.00
  -2 -15  18   45.40    8.00
  -1 -15  18   63.89    8.50
   0 -15  18   -8.90    3.30
   1 -15  18   56.29    7.70
  -2 -15 -18   39.70    5.20
   2 -15  18   46.50    7.10
   3 -15  18  124.69    9.80
  -3 -15 -18  133.09    9.20
   4 -15  18    4.80    4.30
  -4 -15 -18    2.00    3.90
 -13   0  19    4.60    5.30
 -12   0  19    4.20    4.10
 -11   0  19    1.50    3.40
 -10   0  19   -2.30    3.50
  -9   0  19    1.70    3.50
   8   0 -19   -2.60    2.80
  -8   0  19    2.60    3.30
  -7   0  19    2.10    3.40
   7   0 -19    2.40    2.90
  -6   0  19    3.20    3.00
   6   0 -19    0.50    2.80
   5   0 -19    2.40    2.50
  -5   0  19   -1.20    2.70
   4   0 -19    5.00    2.90
  -4   0  19   -1.50    2.60
  -3   0  19   -1.00    2.70
   3   0 -19   -2.30    2.20
  -2   0  19   -4.50    2.80
   2   0 -19    2.20    2.80
   1   0 -19    3.10    2.60
  -1   0  19   -0.70    2.80
   0   0  19    3.60    3.00
   0   0 -19    0.70    2.70
   1   0  19   -0.90    3.00
  -1   0 -19    0.80    2.70
   2   0  19   -0.50    2.80
   3   0  19    3.20    3.30
   4   0  19    1.60    3.30
   5   0  19    9.30    4.20
   6   0  19    0.00    3.50
   7   0  19    1.20    3.80
   8   0  19   -1.20    3.80
   9   0  19    5.80    4.70
  10   0  19   -5.90    3.60
  11   0  19    5.10    5.30
 -12   0 -19   -1.70    4.80
  12   0  19    2.20    4.80
 -13   0 -19    0.00    5.90
 -13  -1  19   -2.00    4.50
 -12  -1  19   -1.40    4.10
 -12   1  19    7.10    4.30
 -11  -1  19    7.20    4.60
 -11   1  19   16.40    4.60
 -10  -1  19    6.10    4.20
 -10   1  19    1.80    3.50
  -9  -1  19   58.09    6.70
  -9   1  19   54.19    6.00
  -8  -1  19  916.81   29.90
   8   1 -19  830.32   29.20
  -8   1  19  866.31   28.90
   7  -1 -19  410.66   15.70
  -7  -1  19  433.56   17.00
  -7   1  19  405.46   16.10
   7   1 -19  429.26   16.70
  -6  -1  19   32.90    4.90
   6  -1 -19   46.10    4.90
   6   1 -19   34.70    4.90
  -6   1  19   38.90    4.70
  -5  -1  19    1.50    3.40
   5  -1 -19    0.00    2.40
  -5   1  19    4.50    3.10
   5   1 -19    5.80    3.10
  -4  -1  19   57.69    5.70
   4  -1 -19   60.69    5.30
   4   1 -19   66.99    5.90
  -4   1  19   62.59    5.70
  -3  -1  19  113.39    7.30
   3  -1 -19  110.99    6.80
  -3   1  19  109.39    6.80
   3   1 -19  118.49    7.50
   2  -1 -19  146.49    7.60
  -2  -1  19  139.89    8.10
  -2   1  19  148.49    7.80
   2   1 -19  129.09    7.70
  -1  -1  19 1137.19   36.00
   1  -1 -19 1185.68   35.60
  -1   1  19 1124.99   35.60
   1   1 -19 1132.79   35.80
   0  -1 -19    1.70    2.50
   0  -1  19   -3.10    2.70
   0   1 -19    0.70    2.60
   0   1  19   -2.40    2.60
   1  -1  19 1199.58   36.50
  -1  -1 -19 1099.89   35.80
   1   1  19 1151.38   36.20
  -2  -1 -19  140.99    8.80
   2  -1  19  134.39    8.30
   2   1  19  131.89    8.10
   3  -1  19  117.99    7.80
   3   1  19  105.39    7.60
   4  -1  19   50.59    5.90
   4   1  19   48.10    5.80
   5  -1  19    1.40    3.40
   5   1  19    7.10    3.80
   6  -1  19   28.70    5.20
   6   1  19   35.80    5.70
   7  -1  19  382.96   16.80
   7   1  19  393.06   17.00
   8  -1  19  892.31   31.40
   8   1  19  907.11   31.80
   9  -1  19   51.79    7.00
   9   1  19   54.39    7.30
  10  -1  19    5.40    4.60
  10   1  19   10.00    4.90
 -11  -1 -19   11.80    5.60
  11  -1  19   13.80    5.30
  11   1  19    4.40    5.10
 -12  -1 -19   11.00    6.30
  12  -1  19    4.10    4.80
  12   1  19   -2.80    4.40
  13  -1  19    1.90    5.70
 -13  -1 -19    1.90    5.50
 -13   1 -19    0.90    5.50
 -13  -2  19   21.70    6.40
 -12  -2  19   81.19    9.00
 -11  -2  19   81.69    8.60
 -11   2  19  102.79    7.80
 -10  -2  19    0.50    4.10
 -10   2  19   -1.80    3.10
  -9  -2  19   19.20    5.10
  -9   2  19   17.20    4.10
  -8  -2  19   47.60    6.20
  -8   2  19   48.60    5.30
   7  -2 -19  213.58    9.80
  -7  -2  19  224.18   11.50
  -7   2  19  237.58   10.60
  -6  -2  19   17.00    4.60
   6  -2 -19   17.70    3.40
  -6   2  19   11.00    3.50
  -5  -2  19  582.84   21.00
   5  -2 -19  581.04   19.50
   5   2 -19  554.04   20.80
  -5   2  19  601.84   20.10
  -4  -2  19  433.46   16.90
   4  -2 -19  437.86   15.40
  -4   2  19  431.86   15.80
   4   2 -19  420.06   16.60
  -3  -2  19  205.98   10.30
   3  -2 -19  203.48    9.10
  -3   2  19  206.08    9.60
   3   2 -19  211.58   10.30
  -2  -2  19  336.57   14.10
   2  -2 -19  381.36   13.50
  -2   2  19  341.77   13.50
   2   2 -19  326.97   13.80
  -1  -2  19  121.79    7.70
   1  -2 -19  123.59    7.20
  -1   2  19  117.49    7.30
   0  -2 -19  427.16   15.80
   0  -2  19  419.46   16.50
   0   2  19  451.05   16.20
   1  -2  19  114.19    7.80
  -1  -2 -19  125.99    7.50
   1   2  19  125.69    7.50
  -2  -2 -19  345.27   13.80
   2  -2  19  328.97   14.20
   2   2  19  350.26   14.10
   3  -2  19  203.48   10.50
   3   2  19  210.68   10.50
   4  -2  19  411.96   16.70
   4   2  19  429.86   16.90
   5  -2  19  583.84   21.90
   5   2  19  617.34   22.30
   6  -2  19   12.00    4.20
   6   2  19   13.90    4.40
   7  -2  19  217.48   12.00
   7   2  19  247.28   12.80
   8  -2  19   47.80    6.70
   8   2  19   47.70    6.90
   9  -2  19   10.50    4.50
   9   2  19   14.40    5.20
  10  -2  19    4.20    4.80
  10   2  19    5.10    4.70
 -11  -2 -19   99.59   10.50
  11  -2  19   94.39    9.70
  11   2  19   88.89    9.80
  12  -2  19   98.79   10.30
 -12  -2 -19   69.59   10.10
  12   2  19   69.79    9.10
  13  -2  19   20.70    6.70
 -13  -2 -19   26.20    7.90
 -13   2 -19   31.70    7.60
 -13  -3  19    5.30    5.40
 -12  -3  19   11.20    5.10
 -11  -3  19   25.50    5.90
 -11   3  19   11.60    4.10
 -10  -3  19   88.59    9.00
 -10   3  19   79.89    7.10
  -9  -3  19    0.20    4.20
  -9   3  19    1.00    2.90
  -8  -3  19  255.17   13.10
  -8   3  19  240.08   10.80
  -7  -3  19   -4.40    3.70
   7  -3 -19    1.30    2.30
  -7   3  19   -1.50    2.60
   6  -3 -19    1.40    2.20
  -6  -3  19    5.20    3.70
  -6   3  19   -0.90    2.60
  -5  -3  19   86.69    7.80
   5  -3 -19   97.29    5.80
  -5   3  19  101.99    6.30
  -4  -3  19    1.70    3.40
   4  -3 -19    5.40    2.40
  -4   3  19    5.40    2.70
  -3  -3  19   16.10    4.30
   3  -3 -19   13.50    2.90
  -3   3  19   18.60    3.50
  -2  -3  19  188.08   10.10
   2  -3 -19  198.18    8.70
  -2   3  19  175.98    8.60
   1  -3 -19   17.30    3.40
  -1  -3  19   23.00    4.30
  -1   3  19   19.50    3.70
   0  -3 -19   -2.00    2.50
   0  -3  19    1.80    3.20
   0   3  19   -1.80    2.30
   1  -3  19   18.30    4.00
  -1  -3 -19   16.10    3.70
   1   3  19   18.10    3.90
   2  -3  19  178.38    9.60
  -2  -3 -19  183.88    9.10
   2   3  19  157.18    8.90
   3  -3  19   18.00    4.20
   3   3  19   19.10    4.60
   4  -3  19    6.70    3.80
   4   3  19    4.80    3.50
   5  -3  19   98.69    7.60
   5   3  19   99.89    7.90
   6  -3  19   -1.50    3.80
   6   3  19    0.40    3.70
   7  -3  19    0.00    3.50
   7   3  19    0.90    3.80
   8  -3  19  236.38   12.30
   8   3  19  220.38   12.80
   9  -3  19    5.30    4.40
   9   3  19    1.20    4.30
  10  -3  19   84.59    8.70
 -10  -3 -19   69.49    8.90
  10   3  19   59.19    8.20
  11  -3  19   14.40    5.50
 -11  -3 -19   15.60    6.10
  11   3  19   12.40    5.90
 -12  -3 -19   15.00    7.00
  12  -3  19    9.90    5.10
 -13  -3 -19   -0.60    5.30
  13  -3  19    3.00    5.30
 -13  -4  19   19.90    6.60
 -12  -4  19   25.40    6.40
 -11  -4  19   13.90    5.10
 -10  -4  19    1.70    4.50
 -10   4  19    0.20    2.80
  -9  -4  19    0.90    3.80
  -9   4  19    3.60    2.90
  -8  -4  19   44.60    6.50
  -8   4  19   30.20    4.20
   7  -4 -19    2.00    1.20
  -7  -4  19    9.70    4.20
  -7   4  19    4.70    2.80
  -6  -4  19  144.39   10.00
   6  -4 -19  137.49    6.40
  -6   4  19  145.89    7.50
  -5  -4  19  236.98   12.30
   5  -4 -19  236.28    9.10
  -5   4  19  226.88    9.80
   4  -4 -19   45.10    4.00
  -4  -4  19   35.50    5.40
  -4   4  19   49.10    4.70
  -3  -4  19   11.30    4.00
   3  -4 -19   12.90    2.70
  -3   4  19   11.60    3.00
   2  -4 -19  186.58    8.40
  -2  -4  19  202.38   10.60
  -2   4  19  175.48    8.60
   1  -4 -19  128.59    6.90
  -1  -4  19  114.09    8.00
  -1   4  19  140.49    7.50
   0  -4 -19  104.79    6.60
   0  -4  19   99.29    7.50
   0   4  19   95.99    6.70
  -1  -4 -19  144.49    7.70
   1  -4  19  120.49    8.60
   1   4  19  134.49    7.70
  -2  -4 -19  177.18    9.00
   2  -4  19  175.28    9.70
   2   4  19  176.08    9.20
   3  -4  19   14.60    4.30
   3   4  19    9.00    3.60
   4  -4  19   36.20    5.40
   4   4  19   47.90    5.90
   5  -4  19  229.48   11.70
   5   4  19  242.48   12.60
   6  -4  19  147.89    9.30
   6   4  19  127.79    9.40
   7  -4  19   -0.30    3.60
   7   4  19   -0.20    4.00
   8  -4  19   26.70    5.20
  -8  -4 -19   17.50    5.40
   8   4  19   36.30    6.20
  -9  -4 -19    4.00    4.70
   9  -4  19    2.00    4.30
   9   4  19   -8.50    4.20
 -10  -4 -19   11.30    5.50
  10  -4  19    2.30    4.40
  10   4  19   -0.50    4.50
  11  -4  19   17.30    5.40
 -11  -4 -19   19.30    6.80
  11   4  19   13.90    5.70
  12  -4  19   23.90    6.30
 -12  -4 -19   16.40    6.60
 -13  -4 -19    8.00    6.20
  13  -4  19   13.40    5.70
 -12  -5  19   46.10    8.00
 -11  -5  19   86.29    9.90
 -10  -5  19  168.58   11.60
  -9  -5  19    5.40    4.70
  -9   5  19    0.60    2.70
  -8  -5  19   72.59    8.00
  -8   5  19   57.89    5.10
  -7  -5  19    0.20    4.20
  -7   5  19   -4.30    2.00
  -6  -5  19  252.47   13.20
   6  -5 -19  250.97    8.60
  -6   5  19  267.47   10.60
  -5  -5  19  354.16   15.70
  -5   5  19  355.06   13.10
  -4  -5  19    7.90    4.00
   4  -5 -19    3.60    1.90
  -4   5  19   -1.80    2.30
   3  -5 -19  200.78    8.30
  -3  -5  19  193.68   10.70
  -3   5  19  214.08    9.10
   2  -5 -19  347.77   12.50
  -2  -5  19  345.17   14.80
  -2   5  19  336.07   13.00
  -1  -5  19  351.86   15.10
   1  -5 -19  369.16   13.30
  -1   5  19  350.16   13.50
   0  -5  19   -0.80    3.60
   0  -5 -19    0.10    2.50
   0   5  19    0.00    2.70
  -1  -5 -19  366.16   14.00
   1  -5  19  360.66   15.10
   1   5  19  344.57   14.10
   2  -5  19  335.87   14.50
  -2  -5 -19  309.67   13.10
   2   5  19  334.57   13.60
   3  -5  19  204.18   10.50
   3   5  19  171.28    9.70
   4  -5  19    0.50    3.60
   4   5  19    0.30    3.40
   5  -5  19  367.36   15.30
   5   5  19  325.77   15.20
   6  -5  19  239.28   12.10
   6   5  19  234.58   12.60
   7  -5  19    4.40    4.10
  -7  -5 -19    2.90    4.20
   7   5  19    0.20    4.10
   8  -5  19   57.89    7.20
  -8  -5 -19   63.19    8.10
   8   5  19   53.59    7.50
  -9  -5 -19   -4.90    4.10
   9  -5  19    3.10    4.20
   9   5  19    3.40    4.70
  10  -5  19  175.98   10.90
 -10  -5 -19  187.88   12.80
  10   5  19  154.28   11.90
 -11  -5 -19   64.89    9.20
  11  -5  19   70.79    8.40
  12  -5  19   59.69    8.00
 -12  -5 -19   51.39    8.90
 -12  -6  19    2.20    5.30
 -11  -6  19   46.50    8.00
 -10  -6  19   26.70    6.20
  -9  -6  19    2.30    4.70
  -8  -6  19   19.70    6.10
  -8   6  19   24.50    3.50
  -7  -6  19   10.40    4.70
  -7   6  19    8.90    2.70
  -6  -6  19   -2.10    3.80
  -6   6  19    2.70    2.30
   5  -6 -19  108.39    3.70
  -5  -6  19  112.09    8.80
   5  -6 -19   99.09    3.70
  -5   6  19  104.99    5.90
  -4  -6  19  212.08   11.70
  -4   6  19  215.98    9.10
  -3  -6  19   55.29    6.60
   3  -6 -19   48.80    3.80
  -3   6  19   49.10    4.60
  -2  -6  19    9.60    4.20
   2  -6 -19    9.30    2.60
  -2   6  19   10.60    2.90
  -1  -6  19   21.70    4.70
   1  -6 -19   28.10    3.70
  -1   6  19   26.00    3.80
   0  -6  19  125.89    8.50
   0  -6 -19  141.19    7.40
   0   6  19  126.59    7.60
  -1  -6 -19   25.80    4.10
   1  -6  19   30.70    5.10
   1   6  19   22.50    4.20
   2  -6  19   15.30    4.20
  -2  -6 -19   10.80    3.40
   2   6  19    6.90    3.60
   3  -6  19   46.70    5.90
   3   6  19   44.10    5.60
  -4  -6 -19  193.08   10.70
   4  -6  19  204.38   11.10
   4   6  19  190.18   10.70
   5  -6  19  125.09    8.50
  -5  -6 -19  107.29    9.30
   5   6  19  109.29    8.50
  -6  -6 -19   -3.00    4.20
   6  -6  19    1.90    3.70
   6   6  19    4.10    3.90
  -7  -6 -19    8.60    4.50
   7  -6  19    6.20    4.20
   7   6  19   12.00    5.30
   8  -6  19   27.30    5.20
  -8  -6 -19   24.40    6.20
   8   6  19   24.60    5.90
  -9  -6 -19   15.30    5.40
   9  -6  19   10.70    4.50
   9   6  19   18.00    5.50
  10  -6  19   20.90    5.20
 -10  -6 -19   15.90    6.00
  10   6  19   16.60    6.20
 -11  -6 -19   52.19    8.60
  11  -6  19   44.80    7.10
 -12  -6 -19    6.90    6.00
  12  -6  19    6.50    4.80
 -12  -7  19   15.70    6.00
 -11  -7  19   28.10    7.20
 -10  -7  19  150.88   11.70
  -9  -7  19   -1.40    4.40
  -8  -7  19   70.59    8.40
  -7  -7  19   10.80    5.40
  -7   7  19   12.60    2.80
  -6  -7  19   93.99    9.00
  -6   7  19   71.39    4.90
  -5  -7  19   79.59    8.20
  -5   7  19   69.29    4.90
  -4  -7  19   -6.90    3.50
  -4   7  19    0.30    2.10
   3  -7 -19   64.89    3.90
  -3  -7  19   51.79    6.90
  -3   7  19   65.69    5.00
   2  -7 -19   84.59    5.10
   2  -7 -19   80.29    4.90
  -2  -7  19   75.29    7.50
  -2   7  19   73.59    5.70
   1  -7 -19    1.40    2.40
  -1  -7  19    0.20    3.40
   1  -7 -19   -0.80    2.20
  -1   7  19    3.40    2.70
   0  -7 -19   -0.70    2.40
   0  -7  19    1.00    3.40
   0  -7 -19    1.70    2.60
   0   7  19    1.00    2.40
  -1  -7 -19    1.60    2.80
  -1  -7 -19   -0.50    2.80
   1  -7  19    2.90    3.50
   1   7  19    1.40    3.00
  -2  -7 -19   85.69    6.90
   2  -7  19   87.99    7.80
  -2  -7 -19   83.89    7.20
   2   7  19   75.09    7.00
  -3  -7 -19   58.59    6.40
   3  -7  19   62.19    6.70
  -3  -7 -19   79.09    7.10
   3   7  19   70.09    6.90
   4  -7  19   -1.40    3.60
  -4  -7 -19   -2.50    3.60
   4   7  19    3.30    3.60
  -5  -7 -19   63.09    7.20
   5  -7  19   74.19    7.20
   5   7  19   69.49    7.70
   6  -7  19   80.69    7.80
  -6  -7 -19   70.59    7.80
   6   7  19   71.89    8.00
  -7  -7 -19    3.80    4.80
   7  -7  19    9.60    4.20
   7   7  19    5.50    4.40
  -8  -7 -19   68.99    8.70
   8  -7  19   72.99    7.70
   8   7  19  104.89   10.20
   9  -7  19    0.50    3.80
  -9  -7 -19    6.80    5.00
   9   7  19   -4.20    4.90
  10  -7  19  134.19    9.80
 -10  -7 -19  119.59   11.90
  11  -7  19   20.40    5.40
 -11  -7 -19   21.30    7.00
  12  -7  19   19.90    5.60
 -12  -7 -19   16.90    6.80
 -11  -8  19   21.20    6.80
 -10  -8  19   -1.40    4.80
  -9  -8  19   -4.50    4.20
  -8  -8  19    4.30    4.80
  -7  -8  19   13.00    5.30
  -6  -8  19   10.90    5.00
  -6   8  19   10.50    2.50
  -5  -8  19  103.99    9.60
  -5   8  19   98.79    5.60
  -4  -8  19  371.06   17.60
  -4   8  19  437.66   14.50
  -3  -8  19  144.69   10.00
   3  -8 -19  145.59    5.20
   3  -8 -19  143.89    5.20
  -3   8  19  160.18    7.50
  -2  -8  19  655.63   25.00
   2  -8 -19  707.73   21.20
  -2   8  19  668.83   22.30
   1  -8 -19   75.29    5.20
  -1  -8  19   49.20    6.60
   1  -8 -19   66.49    5.00
  -1   8  19   66.39    5.80
   0  -8 -19    2.70    2.50
   0  -8 -19    2.70    2.60
   0  -8  19    2.90    3.80
   0   8  19    4.90    3.00
  -1  -8 -19   62.89    6.00
  -1  -8 -19   64.69    6.00
   1  -8  19   72.19    7.30
   1   8  19   76.99    6.80
  -2  -8 -19  711.63   24.00
   2  -8  19  653.43   24.60
  -2  -8 -19  716.03   24.10
   2   8  19  656.63   24.00
  -3  -8 -19  133.99    9.00
   3  -8  19  145.09    9.70
  -3  -8 -19  130.79    8.90
   3   8  19  157.28    9.70
  -4  -8 -19  428.66   17.60
   4  -8  19  434.76   17.80
   4   8  19  418.16   17.70
  -5  -8 -19  101.39    8.30
   5  -8  19  102.59    8.30
   5   8  19   97.09    8.80
   6  -8  19    8.70    3.90
  -6  -8 -19   11.80    4.80
   6   8  19    8.10    4.50
   7  -8  19   16.30    4.80
  -7  -8 -19   16.90    5.00
   7   8  19   26.10    5.90
   8  -8  19   16.50    4.70
  -8  -8 -19    3.10    5.10
   8   8  19   14.40    5.70
   9  -8  19   -2.10    3.90
  -9  -8 -19   -0.10    5.10
 -10  -8 -19    6.10    5.60
  10  -8  19   -2.20    3.80
 -11  -8 -19   10.50    6.30
  11  -8  19   21.80    5.60
 -11  -9  19   -0.40    6.00
 -10  -9  19   -5.00    5.30
  -9  -9  19   36.10    7.40
  -8  -9  19  227.18   14.20
  -7  -9  19   -2.70    4.20
  -6  -9  19    3.70    4.70
  -5  -9  19   11.00    5.10
  -5   9  19    5.20    2.20
  -4  -9  19  189.88   12.10
  -4   9  19  197.58    8.40
  -3  -9  19   71.99    7.90
  -3   9  19   76.19    5.40
   2  -9 -19  142.09    6.00
  -2  -9  19  156.78   10.80
   2  -9 -19  155.48    6.20
  -2   9  19  148.29    7.80
  -1  -9  19  165.48   10.40
   1  -9 -19  170.88    7.60
   1  -9 -19  155.38    7.30
  -1   9  19  173.48    8.70
   0  -9 -19   -2.00    2.30
   0  -9 -19    0.90    2.40
   0  -9  19   -2.50    3.30
   0   9  19   -4.80    2.70
   1  -9  19  181.48   10.70
  -1  -9 -19  178.28    9.30
  -1  -9 -19  192.18    9.40
   1   9  19  179.68    9.70
   2  -9  19  165.88   10.40
  -2  -9 -19  158.18    9.10
  -2  -9 -19  160.48    9.10
   2   9  19  128.99    8.70
   3  -9  19   83.49    8.00
  -3  -9 -19   62.99    7.00
  -3  -9 -19   82.79    7.60
   3   9  19   73.89    7.60
  -4  -9 -19  213.58   11.70
   4  -9  19  200.58   11.40
   4   9  19  190.48   11.30
  -5  -9 -19   11.20    4.80
   5  -9  19    6.00    4.20
   5   9  19   10.40    4.30
   6  -9  19    8.80    4.10
  -6  -9 -19    2.90    4.00
   6   9  19    7.30    4.50
  -7  -9 -19   -0.80    4.00
   7  -9  19    0.90    3.40
   7   9  19    1.50    4.50
  -8  -9 -19  243.08   14.10
   8  -9  19  210.38   11.90
   9  -9  19   22.80    5.10
  -9  -9 -19   39.70    7.40
 -10  -9 -19    2.50    5.70
  10  -9  19    1.60    3.90
 -11  -9 -19    1.20    6.20
  11  -9  19    2.60    4.30
 -10 -10  19    3.90    5.40
  -9 -10  19    5.90    5.50
  -8 -10  19    0.00    4.90
  -7 -10  19   16.00    6.00
  -6 -10  19    6.90    5.00
  -5 -10  19   10.20    5.20
  -4 -10  19  200.58   13.10
  -4  10  19  212.88    8.80
  -3 -10  19  105.69    9.70
  -3  10  19  110.59    6.40
   2 -10 -19   65.89    3.10
  -2 -10  19   70.79    7.90
   2 -10 -19   63.39    3.00
  -2  10  19   70.29    5.50
  -1 -10  19   -2.30    3.70
   1 -10 -19   -2.80    1.80
  -1  10  19    0.10    2.70
   0 -10 -19   31.70    4.20
   0 -10  19   31.30    5.70
   0  10  19   39.80    5.20
  -1 -10 -19    1.60    2.90
   1 -10  19    4.50    3.90
   1  10  19   -2.20    3.00
   2 -10  19   60.69    7.20
  -2 -10 -19   63.59    6.30
   2  10  19   62.69    6.70
   3 -10  19  106.29    8.30
  -3 -10 -19  105.79    8.20
   3  10  19  112.29    8.70
   4 -10  19  244.88   12.50
  -4 -10 -19  210.58   12.00
   4  10  19  222.98   12.30
  -5 -10 -19   10.30    4.70
   5 -10  19    8.70    4.10
   5  10  19    6.80    4.60
   6 -10  19   10.00    4.10
  -6 -10 -19    7.10    4.50
   6  10  19   -2.10    4.00
   7 -10  19   25.90    5.20
  -7 -10 -19   23.00    5.90
  -8 -10 -19    3.90    4.70
   8 -10  19    5.00    3.80
   9 -10  19   -1.10    3.40
  -9 -10 -19   -4.90    4.30
  10 -10  19   -6.40    3.40
 -10 -10 -19   -3.80    5.00
  -9 -11  19   24.70    7.40
  -8 -11  19  189.88   13.80
  -7 -11  19  157.88   12.30
  -6 -11  19    6.50    5.30
  -5 -11  19   15.60    5.70
  -4 -11  19  122.59   10.20
  -3 -11  19  172.48   12.20
  -3  11  19  196.68    8.80
  -2 -11  19  265.07   13.90
  -2  11  19  244.18   10.80
  -1 -11  19  212.08   12.20
   1 -11 -19  198.38    7.80
  -1  11  19  188.28    9.80
   0 -11 -19   -0.40    2.40
   0 -11  19   -1.00    3.70
   0  11  19   -0.40    2.70
  -1 -11 -19  206.68    9.90
   1 -11  19  190.48   11.40
   1  11  19  189.18   10.50
   2 -11  19  254.87   13.40
  -2 -11 -19  257.07   12.10
   2  11  19  244.48   12.60
  -3 -11 -19  182.68   10.60
   3 -11  19  187.58   11.30
   3  11  19  184.78   11.20
  -4 -11 -19  149.88    9.90
   4 -11  19  122.39    9.40
   4  11  19  137.59    9.80
   5 -11  19   25.10    5.20
  -5 -11 -19   33.20    6.30
  -6 -11 -19    8.30    5.00
   6 -11  19    5.00    4.00
   7 -11  19  146.09    9.90
  -7 -11 -19  137.49   11.40
  -8 -11 -19  200.28   13.90
   8 -11  19  173.18   10.50
  -9 -11 -19   18.10    6.30
   9 -11  19   15.90    4.50
  -8 -12  19   17.10    7.40
  -7 -12  19    7.30    5.60
  -6 -12  19    8.60    5.60
  -5 -12  19   40.30    7.30
  -4 -12  19   44.50    7.40
  -3 -12  19    3.50    5.10
  -2 -12  19   98.09    9.70
  -1 -12  19   68.49    8.30
   1 -12 -19   70.59    3.80
  -1  12  19   77.89    6.60
   0 -12 -19   79.39    5.50
   0 -12  19   93.19    8.90
   0  12  19   81.19    6.70
  -1 -12 -19   69.59    6.20
   1 -12  19   68.69    7.80
   1  12  19   64.99    6.90
  -2 -12 -19   91.79    7.30
   2 -12  19   87.29    8.70
   2  12  19   88.49    8.30
  -3 -12 -19    4.00    3.90
   3 -12  19    7.00    4.30
  -4 -12 -19   56.19    7.10
   4 -12  19   55.49    6.90
  -5 -12 -19   47.40    7.00
   5 -12  19   45.90    6.50
  -6 -12 -19    5.10    5.00
   6 -12  19   10.30    4.50
  -7 -12 -19    1.70    5.30
   7 -12  19    1.00    3.60
   8 -12  19    6.90    4.20
  -8 -12 -19    7.20    5.20
  -7 -13  19   11.90    6.40
  -6 -13  19   71.29    9.70
  -5 -13  19   -4.40    5.10
  -4 -13  19   32.60    6.80
  -3 -13  19    1.20    5.10
  -2 -13  19   45.20    7.50
  -1 -13  19   17.00    5.60
   0 -13 -19   -0.60    2.10
   0 -13  19    1.80    4.00
   1 -13  19   26.70    6.10
  -1 -13 -19   14.50    3.60
   2 -13  19   41.80    6.50
  -2 -13 -19   54.99    6.20
  -3 -13 -19    2.10    3.60
   3 -13  19   -5.10    3.60
   4 -13  19   38.30    6.20
  -4 -13 -19   36.50    6.30
   5 -13  19   -2.50    3.90
  -5 -13 -19   13.00    4.90
   6 -13  19   71.09    7.50
  -6 -13 -19   67.19    8.70
   7 -13  19   13.90    4.60
  -7 -13 -19   15.90    6.10
  -6 -14  19   -3.10    5.10
  -5 -14  19   27.10    7.40
  -4 -14  19   55.19    8.70
  -3 -14  19    2.80    4.80
  -2 -14  19   12.10    5.10
  -1 -14  19   30.80    6.70
   0 -14  19    1.10    4.30
   1 -14  19   14.80    5.50
  -1 -14 -19   22.00    3.90
   2 -14  19   24.30    5.70
  -2 -14 -19   16.40    4.40
   3 -14  19    1.20    4.20
  -3 -14 -19    0.40    3.60
  -4 -14 -19   59.29    7.30
   4 -14  19   69.89    7.90
  -5 -14 -19   33.00    6.50
   5 -14  19   32.10    5.80
  -6 -14 -19    8.10    5.10
   6 -14  19    4.70    4.20
  -3 -15  19    1.70    4.50
  -2 -15  19   29.80    7.00
  -1 -15  19    3.80    5.30
   0 -15  19    0.00    4.40
   1 -15  19    5.60    4.90
  -2 -15 -19   24.00    4.40
   2 -15  19   16.00    5.60
   3 -15  19    4.90    4.80
  -3 -15 -19   -1.60    3.40
 -12   0  20   50.89    6.90
 -11   0  20  129.89    9.60
 -10   0  20  204.08   11.40
  -9   0  20   63.59    6.90
  -8   0  20   27.20    4.90
  -7   0  20    8.10    3.90
   7   0 -20   -3.10    2.80
   6   0 -20  389.86   15.20
  -6   0  20  371.36   15.20
  -5   0  20  840.22   28.00
   5   0 -20  846.82   27.70
   4   0 -20  350.96   13.90
  -4   0  20  349.27   14.30
  -3   0  20  655.93   22.30
   3   0 -20  622.24   21.70
  -2   0  20 1650.03   48.70
   2   0 -20 1545.95   48.10
  -1   0  20   54.49    5.60
   1   0 -20   57.09    5.50
   0   0 -20 2638.04   78.49
   0   0  20 2756.72   78.89
   1   0  20   57.69    6.10
   2   0  20 1609.94   49.30
   3   0  20  657.53   23.30
   4   0  20  358.76   15.30
   5   0  20  868.11   29.80
   6   0  20  372.46   16.30
   7   0  20    3.70    4.30
   8   0  20   18.30    5.10
   9   0  20   69.69    8.00
  10   0  20  226.28   13.40
  11   0  20  155.38   12.20
  12   0  20   57.49    8.60
 -12   0 -20   62.99    9.20
  13   0  20  118.29   11.70
 -13   0 -20  125.49   12.50
 -13  -1  20    1.30    4.10
 -12  -1  20   43.90    6.70
 -12   1  20   38.10    6.30
 -11  -1  20    0.60    4.10
 -11   1  20   -3.10    3.30
 -10  -1  20   16.40    4.60
 -10   1  20    5.80    3.80
  -9  -1  20   31.80    5.30
  -9   1  20   28.40    5.00
  -8  -1  20   12.90    4.40
  -8   1  20    7.90    3.90
   7  -1 -20  272.97   12.00
  -7  -1  20  294.67   13.10
  -7   1  20  292.57   12.70
   7   1 -20  279.07   13.00
  -6  -1  20  242.28   11.70
   6  -1 -20  277.07   11.30
  -6   1  20  249.08   11.40
   6   1 -20  227.88   11.20
   5  -1 -20    3.10    2.90
  -5  -1  20    6.90    3.30
  -5   1  20    4.10    2.80
   5   1 -20    1.60    2.80
  -4  -1  20  219.18   10.60
   4  -1 -20  201.28    9.60
   4   1 -20  181.08    9.80
  -4   1  20  208.68    9.80
  -3  -1  20   20.50    4.20
   3  -1 -20   26.20    3.80
   3   1 -20   23.60    4.30
  -3   1  20   19.00    3.80
   2  -1 -20  106.19    6.50
  -2  -1  20  102.29    7.50
   2   1 -20   90.49    6.70
  -2   1  20   92.89    6.90
  -1  -1  20  264.67   12.00
   1  -1 -20  271.87   11.50
  -1   1  20  285.47   11.90
   1   1 -20  262.77   11.70
   0  -1 -20   -0.80    2.50
   0  -1  20   -2.90    3.30
   0   1  20    0.90    2.90
  -1  -1 -20  289.17   12.40
   1  -1  20  302.77   12.90
   1   1  20  263.37   12.20
   2  -1  20  112.29    7.70
   2   1  20   96.49    7.20
   3  -1  20   21.30    4.50
   3   1  20   22.50    4.40
   4  -1  20  209.48   10.80
   4   1  20  187.18   10.50
   5  -1  20    4.20    3.80
   5   1  20    0.10    3.50
   6  -1  20  271.07   13.50
   6   1  20  258.17   13.10
   7  -1  20  283.67   13.90
   7   1  20  273.67   14.00
   8  -1  20   21.40    5.50
   8   1  20    6.90    4.60
   9  -1  20   28.60    6.10
   9   1  20   21.60    5.60
  10  -1  20   16.00    5.40
  10   1  20   13.80    5.30
  11  -1  20    1.90    4.50
  11   1  20   -4.60    4.00
  12  -1  20   49.00    7.70
 -12  -1 -20   41.20    7.90
  12   1  20   61.59    8.90
 -13  -1 -20    3.00    6.10
  13  -1  20   -7.00    5.10
 -13   1 -20    6.00    5.60
 -13  -2  20    3.00    4.50
 -12  -2  20  109.89   10.40
 -11  -2  20    8.20    4.80
 -11   2  20   17.70    4.60
 -10  -2  20   81.09    8.50
 -10   2  20   74.29    7.10
  -9  -2  20    0.40    3.60
  -9   2  20    1.50    3.20
  -8  -2  20   28.60    5.30
  -8   2  20   37.00    5.10
   7  -2 -20   66.79    5.60
  -7  -2  20   70.19    7.50
  -7   2  20   70.29    6.40
   6  -2 -20   68.79    5.60
  -6  -2  20   63.69    6.70
  -6   2  20   67.69    6.00
   5  -2 -20  280.77   11.40
  -5  -2  20  277.67   12.80
  -5   2  20  275.67   11.80
  -4  -2  20   -0.90    3.50
   4  -2 -20    0.20    2.50
  -4   2  20    0.70    2.80
  -3  -2  20   85.99    7.50
   3  -2 -20  100.39    6.30
  -3   2  20   92.39    6.60
  -2  -2  20  274.07   12.40
   2  -2 -20  298.17   11.70
  -2   2  20  271.07   11.60
   1  -2 -20    1.40    2.70
  -1  -2  20    2.90    3.70
  -1   2  20    3.00    2.90
   0  -2  20  879.11   29.10
   0  -2 -20  853.61   28.10
   0   2  20  881.51   28.40
   1  -2  20   -1.90    3.10
  -1  -2 -20   -2.60    2.80
   1   2  20    0.70    3.00
   2  -2  20  255.87   12.00
   2   2  20  247.48   11.60
   3  -2  20   87.59    7.00
   3   2  20   67.49    6.70
   4  -2  20   -0.20    3.40
   4   2  20   -2.30    3.10
   5  -2  20  279.17   13.50
   5   2  20  277.07   13.30
   6  -2  20   62.29    6.90
   6   2  20   64.99    7.20
   7  -2  20   76.39    8.10
   7   2  20   70.69    7.90
   8  -2  20   30.80    5.80
   8   2  20   31.90    6.20
   9  -2  20    2.50    4.50
   9   2  20    3.30    4.70
  10  -2  20   76.99    8.90
  10   2  20   78.69    9.10
  11  -2  20   13.30    5.20
 -11  -2 -20    7.10    5.50
  11   2  20   11.50    5.60
 -12  -2 -20  118.09   12.20
  12  -2  20  110.59   11.00
  12   2  20  116.19   11.60
 -13  -2 -20   -5.40    5.00
  13  -2  20   -5.20    4.90
 -12  -3  20  166.08   11.70
 -11  -3  20   91.89    9.70
 -10  -3  20  127.89    9.60
 -10   3  20  113.19    7.90
  -9  -3  20   78.19    8.00
  -9   3  20   64.39    6.30
  -8  -3  20   -3.20    3.30
  -8   3  20    7.00    3.30
  -7  -3  20   25.20    5.10
   7  -3 -20   19.00    3.20
  -7   3  20   21.30    4.00
  -6  -3  20  452.35   18.50
   6  -3 -20  464.25   16.10
  -6   3  20  467.35   16.80
   5  -3 -20    9.80    2.80
  -5  -3  20   16.60    4.50
  -5   3  20   12.50    3.30
  -4  -3  20  908.01   31.40
   4  -3 -20  949.40   29.50
  -4   3  20  986.40   30.20
  -3  -3  20  405.86   16.70
   3  -3 -20  437.76   15.30
  -3   3  20  422.56   15.50
   2  -3 -20  202.28    9.30
  -2  -3  20  213.88   10.70
  -2   3  20  204.88    9.70
  -1  -3  20  123.99    8.10
   1  -3 -20  118.19    6.70
  -1   3  20  108.59    7.20
   0  -3  20    4.60    3.40
   0  -3 -20   -0.10    2.40
   0   3  20   -0.90    2.60
   1  -3  20  116.69    7.90
  -1  -3 -20  105.89    6.80
   1   3  20   96.49    6.90
   2  -3  20  196.28   10.20
  -2  -3 -20  175.38    9.30
   2   3  20  177.58    9.90
   3  -3  20  418.46   16.90
   3   3  20  420.06   16.70
   4  -3  20  945.41   31.90
   4   3  20  953.50   31.90
   5  -3  20   18.10    4.50
   5   3  20   10.10    4.20
   6  -3  20  477.25   19.10
   6   3  20  466.55   19.30
   7  -3  20   18.60    5.00
   7   3  20   21.40    5.30
   8  -3  20   -0.50    3.70
   8   3  20    5.40    4.40
   9  -3  20   59.29    7.30
   9   3  20   61.99    8.10
 -10  -3 -20  123.49   11.60
  10  -3  20  129.59   10.10
  10   3  20  145.79   11.10
 -11  -3 -20  126.19   12.40
  11  -3  20  104.29   10.00
  11   3  20  101.19   11.00
 -12  -3 -20  204.68   14.30
  12  -3  20  180.18   12.60
  12   3  20  160.08   12.90
 -12  -4  20   66.99    8.80
 -11  -4  20   -4.20    3.80
 -10  -4  20  121.79   10.70
 -10   4  20   90.79    7.70
  -9  -4  20   -1.60    4.20
  -9   4  20    2.80    3.00
  -8  -4  20    3.00    4.00
  -8   4  20    6.00    2.80
  -7  -4  20   38.20    6.10
   7  -4 -20   29.30    3.20
  -7   4  20   31.90    4.30
  -6  -4  20   -5.60    3.20
   6  -4 -20    1.30    2.00
  -6   4  20   -4.20    2.30
  -5  -4  20   98.29    7.90
   5  -4 -20   84.69    5.30
  -5   4  20   93.89    6.10
  -4  -4  20   34.00    5.70
   4  -4 -20   27.90    3.50
  -4   4  20   35.00    4.20
   3  -4 -20   15.90    3.00
  -3  -4  20   13.90    4.20
  -3   4  20    5.60    2.80
   2  -4 -20   20.60    3.50
  -2  -4  20   12.40    4.20
  -2   4  20   11.60    3.40
   1  -4 -20  212.58    9.30
  -1  -4  20  205.28   10.70
  -1   4  20  185.78    9.20
   0  -4 -20  352.46   13.60
   0  -4  20  359.66   15.00
   0   4  20  350.76   13.90
   1  -4  20  197.68   10.50
  -1  -4 -20  185.98    9.60
   1   4  20  200.78   10.00
   2  -4  20   22.40    4.70
  -2  -4 -20   19.00    3.90
   2   4  20   23.60    4.40
   3  -4  20    6.20    3.80
   3   4  20   16.80    4.30
   4  -4  20   23.70    4.90
   4   4  20   31.70    5.30
   5  -4  20   86.89    8.10
   5   4  20   86.09    8.10
   6  -4  20   -5.60    3.20
   6   4  20    0.60    3.80
   7  -4  20   30.90    5.50
   7   4  20   28.90    5.90
   8  -4  20    3.30    4.20
   8   4  20   -0.10    3.90
  -9  -4 -20    4.20    5.40
   9  -4  20   -0.40    4.20
   9   4  20    4.90    4.50
  10  -4  20  101.19    9.60
 -10  -4 -20   95.69   10.80
  10   4  20  103.89   10.60
  11  -4  20   -4.50    4.20
 -11  -4 -20   -0.30    5.10
  11   4  20    0.70    4.90
  12  -4  20   66.19    8.50
 -12  -4 -20   64.69    9.90
 -12  -5  20   64.49    9.00
 -11  -5  20    4.10    5.30
 -10  -5  20   10.30    5.20
  -9  -5  20   -3.50    3.90
  -9   5  20    1.90    2.70
  -8  -5  20    1.50    4.10
  -8   5  20    5.60    2.80
  -7  -5  20   21.70    5.70
   7  -5 -20   17.50    1.80
  -7   5  20   21.50    3.60
  -6  -5  20    6.40    4.30
   6  -5 -20    7.90    1.80
  -6   5  20    6.20    2.70
   5  -5 -20    7.60    2.00
  -5  -5  20   12.00    4.60
  -5   5  20   18.20    3.40
   4  -5 -20  178.48    7.70
  -4  -5  20  171.08   10.50
  -4   5  20  188.78    8.50
   3  -5 -20   12.10    2.60
  -3  -5  20    8.40    4.10
  -3   5  20    9.70    3.00
   2  -5 -20   -3.40    1.90
  -2  -5  20    2.50    3.50
  -2   5  20   -1.70    2.30
   1  -5 -20   49.90    4.80
  -1  -5  20   39.30    5.70
  -1   5  20   39.00    4.70
   0  -5  20   -3.60    3.20
   0  -5 -20   -1.20    2.40
   0   5  20   -0.80    2.50
  -1  -5 -20   39.30    4.70
   1  -5  20   40.40    5.60
   1   5  20   39.10    5.20
   2  -5  20    5.40    3.50
  -2  -5 -20    0.70    2.80
   2   5  20   -0.50    2.90
   3  -5  20   10.50    4.40
   3   5  20    5.10    3.80
   4  -5  20  185.18   10.80
   4   5  20  182.48   10.40
   5  -5  20   15.00    4.80
   5   5  20   20.40    5.20
   6  -5  20   10.80    4.20
   6   5  20    8.20    4.40
  -7  -5 -20   18.70    5.40
   7  -5  20   21.70    5.20
   7   5  20   22.20    5.50
   8  -5  20   -5.70    3.20
  -8  -5 -20    1.00    4.80
   8   5  20   -0.60    4.00
  -9  -5 -20    2.50    4.80
   9  -5  20    0.20    4.20
   9   5  20    2.50    4.50
 -10  -5 -20    0.50    5.00
  10  -5  20    8.00    4.20
  10   5  20    0.50    4.90
 -11  -5 -20   -3.40    4.90
  11  -5  20   -0.80    4.50
  11   5  20    3.90    5.90
  12  -5  20   57.59    8.00
 -12  -5 -20   68.59   10.00
 -12  -6  20   36.00    7.40
 -11  -6  20    7.20    5.30
 -10  -6  20  220.58   13.80
  -9  -6  20    7.20    4.90
  -8  -6  20   -2.00    3.90
  -8   6  20    0.00    2.30
  -7  -6  20   76.79    8.40
  -7   6  20   66.69    5.10
  -6  -6  20  229.78   12.80
  -6   6  20  225.58    9.60
  -5  -6  20   36.50    6.10
   5  -6 -20   37.10    2.60
  -5   6  20   34.80    4.00
   4  -6 -20   -0.20    0.60
  -4  -6  20    2.10    3.80
  -4   6  20    4.00    2.60
   3  -6 -20  330.27   11.70
  -3  -6  20  342.97   15.20
  -3   6  20  322.97   12.70
  -2  -6  20  473.95   19.00
   2  -6 -20  468.25   16.10
  -2   6  20  481.55   16.90
  -1  -6  20  541.65   20.60
   1  -6 -20  521.15   18.00
  -1   6  20  521.15   18.50
   0  -6 -20   34.50    4.40
   0  -6  20   27.20    5.20
   0   6  20   35.80    4.70
  -1  -6 -20  538.55   18.90
   1  -6  20  545.25   20.50
   1   6  20  482.45   18.60
  -2  -6 -20  461.15   17.70
   2  -6  20  476.15   18.70
   2   6  20  465.15   18.00
   3  -6  20  342.67   15.00
   3   6  20  330.17   14.50
   4  -6  20    6.80    3.80
   4   6  20    5.50    3.80
  -5  -6 -20   34.90    5.80
   5  -6  20   44.00    5.90
   5   6  20   38.30    6.00
  -6  -6 -20  227.58   12.70
   6  -6  20  238.28   12.50
   6   6  20  227.88   12.70
  -7  -6 -20   81.19    8.60
   7  -6  20   55.59    6.80
   7   6  20   57.79    7.90
  -8  -6 -20    1.20    4.60
   8  -6  20   -0.10    4.00
   8   6  20    0.20    4.50
   9  -6  20    1.10    4.30
  -9  -6 -20    3.30    4.90
   9   6  20    7.70    4.90
 -10  -6 -20  171.08   13.50
  10  -6  20  199.38   11.60
  10   6  20  177.58   12.90
  11  -6  20   -0.40    4.50
 -11  -6 -20    5.60    5.70
  12  -6  20   55.39    7.70
 -12  -6 -20   33.20    8.10
 -11  -7  20   34.90    7.50
 -10  -7  20   78.79    9.70
  -9  -7  20   65.99    8.60
  -8  -7  20  243.28   14.20
  -7  -7  20   11.50    5.00
  -7   7  20    9.00    2.60
  -6  -7  20  417.26   18.40
  -6   7  20  395.26   14.20
  -5  -7  20    6.50    4.50
  -5   7  20    4.50    2.60
   4  -7 -20  100.69    4.00
  -4  -7  20  104.59    9.20
   4  -7 -20   94.99    3.90
  -4   7  20  108.39    6.10
   3  -7 -20  224.08    8.50
  -3  -7  20  235.68   12.50
  -3   7  20  222.38    9.60
   2  -7 -20    7.60    2.40
   2  -7 -20   10.10    2.60
  -2  -7  20    2.30    4.00
  -2   7  20    3.80    2.70
   1  -7 -20    4.70    2.70
  -1  -7  20    2.60    4.00
   1  -7 -20    5.70    2.70
  -1   7  20   11.60    3.30
   0  -7 -20    1.40    2.60
   0  -7  20   -1.10    3.50
   0  -7 -20   -0.80    2.60
   0   7  20   -1.60    2.60
  -1  -7 -20   14.40    3.70
   1  -7  20    6.10    3.80
  -1  -7 -20   10.40    3.60
   1   7  20   10.70    3.80
  -2  -7 -20    2.70    3.40
  -2  -7 -20    3.90    3.50
   2  -7  20    2.80    3.80
   2   7  20    6.30    3.50
  -3  -7 -20  222.38   11.30
   3  -7  20  214.98   11.50
   3   7  20  226.38   11.80
  -4  -7 -20  109.09    8.80
   4  -7  20  110.79    8.80
   4   7  20  130.69    8.80
  -5  -7 -20    1.80    4.20
   5  -7  20    9.90    4.40
   5   7  20    1.10    4.20
  -6  -7 -20  399.86   17.80
   6  -7  20  380.26   16.70
   6   7  20  356.26   17.00
  -7  -7 -20    7.30    4.50
   7  -7  20   11.20    4.60
   7   7  20   10.60    4.90
   8  -7  20  246.98   13.20
  -8  -7 -20  261.17   14.50
   8   7  20  242.58   14.90
  -9  -7 -20   61.29    8.70
   9  -7  20   76.19    8.30
   9   7  20   76.99    9.30
 -10  -7 -20   91.59   10.60
  10  -7  20   84.59    8.80
  11  -7  20   35.70    6.70
 -11  -7 -20   43.30    8.60
 -11  -8  20   11.80    6.10
 -10  -8  20   16.80    6.20
  -9  -8  20   15.90    5.70
  -8  -8  20   28.80    6.80
  -7  -8  20   45.60    7.30
  -6  -8  20   30.00    6.40
  -6   8  20   42.60    3.90
  -5  -8  20    5.30    4.50
  -5   8  20   -1.90    2.00
  -4  -8  20   24.80    5.50
  -4   8  20   18.60    3.10
   3  -8 -20    2.60    1.50
  -3  -8  20    7.00    4.50
   3  -8 -20    4.60    1.50
  -3   8  20   -0.50    2.40
   2  -8 -20    0.00    1.90
   2  -8 -20    1.20    1.90
  -2  -8  20    0.00    3.90
  -2   8  20   -2.20    2.50
  -1  -8  20   -7.90    3.10
   1  -8 -20    1.70    2.40
   1  -8 -20    0.40    2.20
  -1   8  20   -2.80    2.50
   0  -8 -20   36.00    4.40
   0  -8 -20   41.20    4.70
   0  -8  20   41.70    6.20
   0   8  20   46.00    5.30
  -1  -8 -20    1.50    2.90
   1  -8  20   -1.00    3.80
  -1  -8 -20   -1.10    2.80
   1   8  20   -1.20    3.00
  -2  -8 -20    0.90    3.20
  -2  -8 -20    3.80    3.60
   2  -8  20   -1.90    3.80
   2   8  20   -3.90    2.80
   3  -8  20   -1.40    3.50
  -3  -8 -20    6.40    4.00
   3   8  20    5.50    3.90
  -4  -8 -20   21.60    4.70
   4  -8  20   28.40    5.20
   4   8  20   17.30    5.00
  -5  -8 -20    1.10    3.70
   5  -8  20    0.10    3.40
   5   8  20   -2.90    3.40
  -6  -8 -20   33.40    6.00
   6  -8  20   35.60    6.00
   6   8  20   39.10    6.90
   7  -8  20   58.49    7.00
  -7  -8 -20   41.10    6.90
   7   8  20   41.80    6.90
   8  -8  20   21.80    5.30
  -8  -8 -20   30.10    6.70
   8   8  20   24.90    6.40
   9  -8  20    7.90    4.30
  -9  -8 -20    4.10    4.80
   9   8  20    0.60    5.50
  10  -8  20   37.40    6.50
 -10  -8 -20   20.90    6.80
  11  -8  20   -0.40    4.40
 -11  -8 -20    1.50    5.70
 -10  -9  20    5.30    5.70
  -9  -9  20   36.30    7.60
  -8  -9  20   24.60    7.00
  -7  -9  20   24.70    6.90
  -6  -9  20   86.89    9.60
  -5  -9  20   -1.40    4.40
  -5   9  20   -0.80    2.00
  -4  -9  20   85.09    9.20
  -4   9  20   94.39    5.70
  -3  -9  20   19.10    5.20
  -3   9  20    7.50    2.80
   2  -9 -20    1.40    1.80
   2  -9 -20   -0.90    1.00
  -2  -9  20    1.40    4.00
  -2   9  20    0.20    2.70
   1  -9 -20   40.20    4.00
   1  -9 -20   35.30    4.20
  -1  -9  20   37.20    6.10
  -1   9  20   38.30    4.70
   0  -9 -20   -1.00    2.50
   0  -9  20    2.90    4.00
   0   9  20   -1.20    2.80
  -1  -9 -20   31.40    4.60
   1  -9  20   36.60    6.00
   1   9  20   43.00    5.40
   2  -9  20   -1.30    3.50
  -2  -9 -20    0.00    3.10
   2   9  20   -1.30    3.30
   3  -9  20   18.40    5.10
  -3  -9 -20   15.20    4.50
   3   9  20   12.90    4.20
  -4  -9 -20  105.89    9.30
   4  -9  20   87.69    8.20
   4   9  20   96.79    9.00
   5  -9  20   -2.00    3.60
  -5  -9 -20    1.00    4.20
   5   9  20   -4.10    3.40
   6  -9  20  107.59    8.70
  -6  -9 -20   98.89    9.50
   6   9  20  105.89    9.90
   7  -9  20   21.20    5.20
  -7  -9 -20   23.90    5.80
   7   9  20   19.50    5.90
   8  -9  20   31.80    5.70
  -8  -9 -20   22.20    6.80
   8   9  20   19.70    6.40
   9  -9  20   37.50    6.10
  -9  -9 -20   40.40    7.60
  10  -9  20   11.20    4.70
 -10  -9 -20   16.80    6.40
 -10 -10  20    7.80    6.70
  -9 -10  20   15.70    6.60
  -8 -10  20   -1.20    4.80
  -7 -10  20   61.89    8.80
  -6 -10  20    4.70    4.90
  -5 -10  20  133.69   10.80
  -4 -10  20  108.79   10.20
  -4  10  20  102.99    6.00
  -3 -10  20   64.39    7.90
  -3  10  20   65.49    5.50
   2 -10 -20  217.78    7.60
  -2 -10  20  228.98   12.90
  -2  10  20  232.88   10.30
   1 -10 -20   63.19    4.80
  -1 -10  20   51.79    7.00
  -1  10  20   58.79    5.80
   0 -10  20 1106.59   37.20
   0 -10 -20 1110.69   33.90
   0  10  20 1064.09   35.00
   1 -10  20   54.69    7.00
  -1 -10 -20   49.20    5.50
   1  10  20   57.49    6.20
  -2 -10 -20  208.18   10.80
   2 -10  20  220.58   12.40
   2  10  20  212.18   11.50
  -3 -10 -20   61.99    6.90
   3 -10  20   62.99    7.20
   3  10  20   63.89    7.10
   4 -10  20  122.99    9.10
  -4 -10 -20  112.89    8.40
   4  10  20   96.99    9.40
   5 -10  20  161.48   10.00
  -5 -10 -20  170.48   10.60
   5  10  20  144.89   10.50
   6 -10  20    5.90    4.30
  -6 -10 -20    3.00    4.10
   6  10  20    3.50    4.30
  -7 -10 -20   58.39    8.40
   7 -10  20   60.99    7.20
  -8 -10 -20   10.90    5.40
   8 -10  20    5.70    4.20
  -9 -10 -20   17.00    6.20
   9 -10  20   24.60    5.60
 -10 -10 -20   -1.20    5.30
  10 -10  20   13.70    4.90
  -9 -11  20    4.10    5.90
  -8 -11  20  102.69   11.50
  -7 -11  20   17.60    6.50
  -6 -11  20   58.19    8.50
  -5 -11  20   18.00    6.10
  -4 -11  20   -5.80    3.90
  -3 -11  20   47.20    7.20
  -2 -11  20   32.40    6.20
  -2  11  20   30.00    4.30
   1 -11 -20   10.30    2.40
  -1 -11  20    2.20    4.00
  -1  11  20    8.30    3.30
   0 -11 -20    1.80    2.50
   0 -11  20   -5.10    3.40
   0  11  20    1.30    3.20
  -1 -11 -20    6.40    3.40
   1 -11  20    9.40    4.70
   1  11  20    5.50    3.80
   2 -11  20   31.70    5.70
  -2 -11 -20   30.80    5.20
   2  11  20   22.90    4.90
  -3 -11 -20   41.80    5.80
   3 -11  20   55.59    7.10
   3  11  20   43.20    6.60
   4 -11  20   -0.90    3.30
  -4 -11 -20    3.60    4.00
   4  11  20   -1.60    4.20
   5 -11  20   14.20    4.70
  -5 -11 -20   10.10    5.10
   5  11  20   19.10    5.70
   6 -11  20   66.99    7.50
  -6 -11 -20   58.89    7.90
   7 -11  20    6.10    4.30
  -7 -11 -20    6.60    5.40
  -8 -11 -20  114.09   11.20
   8 -11  20   96.69    8.80
   9 -11  20   -1.30    3.80
  -9 -11 -20    7.30    5.90
  -8 -12  20   29.30    8.20
  -7 -12  20    8.10    5.80
  -6 -12  20   26.10    6.90
  -5 -12  20   61.29    8.90
  -4 -12  20   37.60    7.00
  -3 -12  20   46.80    7.50
  -2 -12  20    4.00    4.40
   1 -12 -20    0.60    1.60
  -1 -12  20    1.30    4.50
  -1  12  20   -0.30    2.80
   0 -12 -20   70.89    5.30
   0 -12  20   70.39    8.20
   0  12  20   78.59    7.10
  -1 -12 -20   -1.40    2.70
   1 -12  20    0.00    4.40
   1  12  20    1.50    3.30
   2 -12  20   -5.60    3.30
  -2 -12 -20   -0.30    3.30
   2  12  20    4.60    4.20
  -3 -12 -20   45.20    6.10
   3 -12  20   49.30    6.70
   3  12  20   55.29    7.40
   4 -12  20   45.30    6.70
  -4 -12 -20   50.09    6.80
  -5 -12 -20   49.50    7.40
   5 -12  20   56.69    7.20
  -6 -12 -20   35.40    6.90
   6 -12  20   22.50    5.50
  -7 -12 -20   14.40    5.80
   7 -12  20    3.00    4.10
  -8 -12 -20    3.00    5.80
   8 -12  20   10.20    4.50
  -7 -13  20   21.80    7.10
  -6 -13  20   63.49    9.40
  -5 -13  20   22.70    6.80
  -4 -13  20   79.49    9.90
  -3 -13  20   -4.10    4.20
  -2 -13  20    0.80    4.40
  -1 -13  20   16.10    5.60
   0 -13  20   -9.80    3.20
   0 -13 -20    0.50    2.30
   1 -13  20    5.50    4.70
  -1 -13 -20    6.50    3.10
  -2 -13 -20    2.70    3.40
   2 -13  20    2.30    4.50
  -3 -13 -20   -5.80    3.30
   3 -13  20   -1.10    4.00
  -4 -13 -20   80.69    8.30
   4 -13  20   68.89    7.80
   5 -13  20   19.50    5.30
  -5 -13 -20   21.90    5.60
  -6 -13 -20   93.29    9.90
   6 -13  20   90.89    8.70
  -7 -13 -20   17.20    6.20
   7 -13  20    7.40    4.40
  -5 -14  20   16.80    6.50
  -4 -14  20   -1.70    4.60
  -3 -14  20   41.50    8.20
  -2 -14  20   39.50    7.20
  -1 -14  20   18.10    6.10
   0 -14  20    7.30    4.60
  -1 -14 -20   11.50    3.40
   1 -14  20   12.70    5.30
  -2 -14 -20   46.50    5.70
   2 -14  20   45.30    7.20
  -3 -14 -20   39.70    5.80
   3 -14  20   36.60    6.60
   4 -14  20    0.30    4.40
  -4 -14 -20   -1.90    3.90
  -5 -14 -20   14.20    5.20
   5 -14  20    7.10    4.60
  -3 -15  20   11.90    6.20
  -2 -15  20    5.50    5.20
  -1 -15  20   32.60    7.10
   0 -15  20   -2.20    4.40
   1 -15  20   30.60    6.70
   2 -15  20   11.10    5.10
  -2 -15 -20   12.20    4.00
   3 -15  20    3.10    4.50
 -12   0  21   -4.20    4.10
 -11   0  21    1.80    4.00
 -10   0  21    4.20    3.90
  -9   0  21    0.50    3.40
  -8   0  21    2.90    3.30
  -7   0  21    1.30    3.10
   7   0 -21   -2.70    3.10
   6   0 -21    3.20    2.60
  -6   0  21    3.40    3.50
   5   0 -21    2.70    3.00
  -5   0  21   -4.50    2.90
  -4   0  21   -1.90    2.70
   4   0 -21   -0.50    2.50
  -3   0  21    2.90    3.00
   3   0 -21    1.00    2.90
  -2   0  21    1.70    3.00
   2   0 -21   -0.10    2.90
  -1   0  21   -0.10    3.20
   1   0 -21    1.00    2.70
   1   0  21    4.00    3.40
   2   0  21    5.60    3.50
   3   0  21    5.70    3.60
   4   0  21    3.40    3.70
   5   0  21    0.10    3.60
   6   0  21   -1.50    3.70
   7   0  21    0.70    4.20
   8   0  21    1.80    3.90
   9   0  21   -9.00    3.40
  10   0  21    4.10    4.70
  11   0  21   -6.20    3.60
  12   0  21   -2.20    4.70
  13   0  21    1.50    5.70
 -12  -1  21   45.30    7.10
 -11  -1  21    9.30    4.80
 -11   1  21   27.60    5.30
 -10  -1  21  202.38   11.60
 -10   1  21  225.98   11.70
  -9  -1  21    6.80    4.30
  -9   1  21    3.60    3.60
  -8  -1  21   61.39    6.70
  -8   1  21   68.99    6.70
  -7  -1  21   94.19    8.30
   7  -1 -21   94.89    6.90
   7   1 -21   91.49    7.50
  -7   1  21   84.39    7.30
   6  -1 -21  827.42   26.40
  -6  -1  21  754.52   27.00
  -6   1  21  806.12   26.60
   6   1 -21  755.22   26.60
   5  -1 -21  103.79    7.00
  -5  -1  21   98.09    7.40
  -5   1  21  111.49    7.50
   5   1 -21  102.29    7.50
  -4  -1  21   -0.70    3.00
   4  -1 -21    5.50    3.00
   4   1 -21    1.90    2.90
  -4   1  21    9.40    3.60
   3  -1 -21  628.64   21.40
  -3  -1  21  643.14   22.30
  -3   1  21  632.84   21.70
   3   1 -21  575.84   21.50
   2  -1 -21   38.30    4.80
  -2  -1  21   37.90    5.10
   2   1 -21   33.80    4.90
  -2   1  21   46.80    5.20
   1  -1 -21  483.05   17.60
  -1  -1  21  495.55   18.30
  -1   1  21  467.75   17.70
   0  -1 -21    2.20    2.60
   0  -1  21   -1.20    3.20
   0   1  21    2.30    3.50
   1  -1  21  494.05   18.50
   1   1  21  471.45   18.10
   2  -1  21   36.30    5.30
   2   1  21   38.20    5.30
   3  -1  21  595.04   21.90
   3   1  21  585.14   21.70
   4  -1  21    2.20    3.70
   4   1  21   -0.50    3.50
   5  -1  21  103.99    8.90
   5   1  21   99.39    8.20
   6  -1  21  809.62   29.10
   6   1  21  836.32   29.30
   7  -1  21   80.29    8.20
   7   1  21   92.69    9.20
   8  -1  21   62.49    7.50
   8   1  21   62.99    7.80
   9  -1  21    4.00    4.20
   9   1  21    4.30    4.30
  10  -1  21  217.48   13.20
  10   1  21  208.08   13.20
  11  -1  21   19.00    5.60
  11   1  21   16.10    6.50
  12  -1  21   63.59    8.70
 -12  -1 -21   43.00    8.50
  12   1  21   60.39    9.10
 -12  -2  21   70.39    8.60
 -11  -2  21    9.10    5.00
 -11   2  21    6.70    4.00
 -10  -2  21   -0.90    3.70
 -10   2  21   -1.20    3.50
  -9  -2  21  561.54   22.10
  -9   2  21  549.95   20.50
  -8  -2  21    2.10    3.60
  -8   2  21    3.80    3.40
  -7  -2  21  671.73   24.70
  -7   2  21  685.93   23.50
  -6  -2  21   -0.40    3.70
   6  -2 -21   -1.60    2.30
  -6   2  21   -2.60    2.80
   5  -2 -21   43.90    4.80
  -5  -2  21   39.00    5.50
  -5   2  21   33.10    4.70
  -4  -2  21   18.30    4.70
   4  -2 -21   14.70    3.30
  -4   2  21   14.30    3.60
  -3  -2  21  237.18   11.50
   3  -2 -21  244.68   10.40
  -3   2  21  227.58   10.50
  -2  -2  21  131.49    8.40
   2  -2 -21  140.39    7.80
  -2   2  21  131.59    7.60
  -1  -2  21  157.58    9.10
   1  -2 -21  149.99    8.20
  -1   2  21  158.08    8.50
   0  -2 -21  593.54   20.50
   0  -2  21  567.24   21.20
   0   2  21  586.94   20.80
  -1  -2 -21  164.98    8.80
   1  -2  21  149.09    9.20
   1   2  21  171.78    9.20
   2  -2  21  146.69    9.00
   2   2  21  139.39    8.60
   3  -2  21  233.18   11.90
   3   2  21  252.77   12.00
   4  -2  21   19.90    4.90
   4   2  21   21.90    4.70
   5  -2  21   42.70    6.00
   5   2  21   39.40    5.90
   6  -2  21    3.20    3.90
   6   2  21   -5.00    3.50
   7  -2  21  677.43   25.60
   7   2  21  686.13   25.80
   8  -2  21   -2.00    3.40
   8   2  21    1.70    4.10
   9  -2  21  562.14   23.10
   9   2  21  582.24   24.00
  10  -2  21   -3.00    4.60
  10   2  21    1.80    5.10
  11  -2  21    6.50    4.80
 -11  -2 -21   -0.70    4.80
  11   2  21   -0.40    4.80
 -12  -2 -21   71.79   10.20
  12  -2  21   76.69    9.40
  12   2  21   73.19    9.70
 -12  -3  21   27.00    6.30
 -11  -3  21   38.60    7.20
 -10  -3  21   26.60    5.60
 -10   3  21   38.10    5.30
  -9  -3  21   60.39    7.30
  -9   3  21   55.29    6.00
  -8  -3  21  132.79    9.40
  -8   3  21  132.29    8.20
  -7  -3  21  115.49    8.70
  -7   3  21  113.19    7.30
  -6  -3  21  100.29    8.10
   6  -3 -21   93.69    6.20
  -6   3  21  113.19    7.00
  -5  -3  21  417.16   17.40
   5  -3 -21  412.66   15.10
  -5   3  21  446.26   16.00
  -4  -3  21    5.00    4.10
   4  -3 -21    4.10    2.70
  -4   3  21    3.50    2.90
   3  -3 -21  120.09    6.70
  -3  -3  21  104.89    7.90
  -3   3  21  107.19    7.00
   2  -3 -21    0.40    2.50
  -2  -3  21    2.40    3.40
  -2   3  21   -3.80    2.60
   1  -3 -21  159.48    8.30
  -1  -3  21  140.49    9.10
  -1   3  21  150.68    8.50
   0  -3  21    4.00    3.80
   0  -3 -21   -0.40    2.70
   0   3  21   -2.70    2.60
  -1  -3 -21  144.69    8.20
   1  -3  21  144.49    9.00
   1   3  21  145.99    8.50
   2  -3  21    1.30    3.40
   2   3  21    0.70    3.00
   3  -3  21  118.49    8.30
   3   3  21  119.49    8.20
   4  -3  21    2.80    3.70
   4   3  21    5.00    3.80
   5  -3  21  435.26   18.10
   5   3  21  450.15   18.40
   6  -3  21  112.79    9.50
   6   3  21  105.99    8.80
   7  -3  21  119.69    9.00
   7   3  21  121.39    9.50
   8  -3  21  145.19   10.40
   8   3  21  120.49   10.00
   9  -3  21   54.79    7.30
   9   3  21   60.99    8.30
  10  -3  21   32.10    6.80
 -10  -3 -21   36.40    7.80
  10   3  21   27.60    6.70
 -11  -3 -21   41.10    7.80
  11  -3  21   35.20    7.00
  11   3  21   45.00    8.00
 -12  -3 -21   44.40    8.70
  12  -3  21   28.10    6.50
  12   3  21   22.00    7.10
 -12  -4  21    2.80    5.30
 -11  -4  21   15.70    5.50
 -10  -4  21   16.80    5.70
  -9  -4  21  133.19   10.50
  -9   4  21  122.09    7.60
  -8  -4  21    7.10    4.40
  -8   4  21    3.90    2.80
  -7  -4  21  258.67   13.50
  -7   4  21  269.77   11.40
  -6  -4  21    7.60    4.20
   6  -4 -21    4.20    2.40
  -6   4  21    3.90    2.70
  -5  -4  21   28.10    5.70
   5  -4 -21   24.80    3.50
  -5   4  21   26.10    4.10
   4  -4 -21   -2.70    2.00
  -4  -4  21   -0.10    3.50
  -4   4  21   -1.70    2.50
  -3  -4  21    1.20    3.60
   3  -4 -21    2.20    2.50
  -3   4  21    1.40    2.60
   2  -4 -21  103.89    6.40
  -2  -4  21   96.39    7.80
  -2   4  21  107.79    6.80
   1  -4 -21  325.87   12.90
  -1  -4  21  331.07   14.60
  -1   4  21  324.67   13.30
   0  -4 -21  153.48    8.30
   0  -4  21  152.78    9.40
   0   4  21  141.59    8.20
   1  -4  21  329.47   14.30
  -1  -4 -21  293.87   12.80
   1   4  21  318.57   13.30
  -2  -4 -21  100.49    7.40
   2  -4  21   89.89    7.50
   2   4  21   83.19    6.90
   3  -4  21    4.70    4.10
   3   4  21    5.10    3.70
   4  -4  21   -2.60    3.30
   4   4  21   -5.00    3.10
   5  -4  21   27.10    5.20
   5   4  21   26.90    5.30
   6  -4  21   -4.00    3.40
   6   4  21    5.40    4.00
   7  -4  21  241.58   12.90
   7   4  21  266.57   13.80
   8  -4  21    4.40    3.90
   8   4  21   -1.30    4.00
  -9  -4 -21  112.89   10.90
   9  -4  21  111.39    9.20
   9   4  21  135.89   10.70
  10  -4  21   17.40    5.70
 -10  -4 -21   22.10    7.20
  10   4  21   26.50    6.50
 -11  -4 -21   15.50    6.50
  11  -4  21    9.60    5.60
  11   4  21    9.60    5.70
  12  -4  21   -0.10    5.00
 -12  -4 -21    2.70    5.60
  12   4  21    2.00    5.50
 -12  -5  21   40.10    7.70
 -11  -5  21   13.40    5.60
 -10  -5  21    2.70    4.90
  -9  -5  21   35.70    6.50
  -8  -5  21  204.38   12.20
  -8   5  21  182.98    9.10
  -7  -5  21   35.60    6.80
  -7   5  21   40.90    4.60
  -6  -5  21    2.80    4.20
  -6   5  21    6.70    3.00
   5  -5 -21   15.10    2.60
  -5  -5  21    8.50    4.30
  -5   5  21   16.60    3.50
   4  -5 -21   51.49    4.30
  -4  -5  21   41.80    6.20
  -4   5  21   40.60    4.60
   3  -5 -21 1184.58   36.00
  -3  -5  21 1187.68   39.10
  -3   5  21 1215.18   36.90
  -2  -5  21    3.30    3.70
   2  -5 -21    2.30    2.40
  -2   5  21    7.10    3.10
  -1  -5  21   48.90    6.20
   1  -5 -21   53.09    5.20
  -1   5  21   52.39    5.50
   0  -5  21   -0.30    3.40
   0  -5 -21   -1.00    2.70
   0   5  21   -3.60    2.80
   1  -5  21   45.80    6.00
  -1  -5 -21   51.79    5.70
   1   5  21   40.10    5.50
  -2  -5 -21    5.50    3.20
   2  -5  21    0.30    3.60
   2   5  21    1.30    3.20
   3  -5  21 1245.98   40.00
   3   5  21 1211.18   39.40
   4  -5  21   54.09    6.50
   4   5  21   49.10    6.30
   5  -5  21    7.10    4.10
   5   5  21   10.10    4.40
   6  -5  21    4.20    3.80
   6   5  21   -3.60    3.50
  -7  -5 -21   37.40    6.50
   7  -5  21   36.00    6.00
   7   5  21   31.30    6.30
  -8  -5 -21  181.78   12.20
   8  -5  21  191.78   11.40
   8   5  21  182.38   12.20
  -9  -5 -21   26.10    6.70
   9  -5  21   26.50    5.60
   9   5  21   26.20    6.30
  10  -5  21    5.80    4.40
 -10  -5 -21    5.50    5.20
  10   5  21    1.50    5.00
  11  -5  21   21.90    6.30
 -11  -5 -21   19.20    6.60
  11   5  21   14.90    6.40
 -12  -5 -21   50.39    9.50
  12  -5  21   44.90    7.70
 -11  -6  21   23.70    6.40
 -10  -6  21   19.10    6.10
  -9  -6  21   20.80    6.50
  -8  -6  21   16.50    5.50
  -8   6  21   26.70    3.80
  -7  -6  21   42.00    6.80
  -7   6  21   42.50    4.50
  -6  -6  21   -3.60    3.60
  -6   6  21    3.40    2.50
  -5  -6  21   43.30    6.50
   5  -6 -21   47.00    3.20
  -5   6  21   47.40    4.80
   4  -6 -21   48.60    3.60
  -4  -6  21   64.69    7.40
  -4   6  21   64.09    5.10
   3  -6 -21   55.79    4.40
  -3  -6  21   55.49    6.90
  -3   6  21   63.29    5.30
  -2  -6  21   56.19    6.90
   2  -6 -21   73.59    5.20
  -2   6  21   69.19    5.60
  -1  -6  21  321.37   14.80
   1  -6 -21  315.67   12.60
  -1   6  21  333.37   13.30
   0  -6  21  111.99    8.40
   0  -6 -21  101.29    6.80
   0   6  21   94.09    7.00
  -1  -6 -21  328.57   13.60
   1  -6  21  322.17   14.70
   1   6  21  316.47   13.70
   2  -6  21   66.99    7.10
  -2  -6 -21   76.99    7.00
   2   6  21   66.29    6.60
   3  -6  21   64.49    7.20
   3   6  21   40.10    5.60
   4  -6  21   58.39    6.80
   4   6  21   52.49    6.50
   5  -6  21   66.29    7.50
  -5  -6 -21   46.30    6.60
   5   6  21   40.50    6.20
  -6  -6 -21    4.30    4.20
   6  -6  21    2.00    3.60
   6   6  21    0.40    4.30
  -7  -6 -21   33.40    6.40
   7  -6  21   29.30    5.60
   7   6  21   48.90    7.10
  -8  -6 -21   21.20    6.50
   8  -6  21   16.50    4.70
   8   6  21   16.10    5.70
  -9  -6 -21   17.50    6.00
   9  -6  21   16.30    5.20
   9   6  21   18.60    5.90
 -10  -6 -21   20.30    6.60
  10  -6  21   20.10    5.70
  10   6  21   29.10    7.00
 -11  -6 -21   33.70    8.40
  11  -6  21   23.90    6.00
 -11  -7  21    7.10    6.10
 -10  -7  21    5.30    6.30
  -9  -7  21    6.80    5.20
  -8  -7  21  153.18   11.50
  -7  -7  21   44.70    7.20
  -7   7  21   42.50    4.40
  -6  -7  21   32.70    6.30
  -6   7  21   39.30    4.10
  -5  -7  21  129.89    9.80
  -5   7  21  117.79    6.80
  -4  -7  21  109.09    9.10
   4  -7 -21  103.09    4.60
   4  -7 -21  113.99    4.70
  -4   7  21  108.69    6.50
   3  -7 -21  167.38    7.10
  -3  -7  21  186.08   11.50
   3  -7 -21  169.48    7.20
  -3   7  21  162.58    8.40
   2  -7 -21   32.30    3.70
  -2  -7  21   32.80    5.90
  -2   7  21   33.10    4.30
  -1  -7  21   26.00    5.30
   1  -7 -21   28.10    3.90
  -1   7  21   20.80    3.90
   0  -7  21   -8.10    3.00
   0  -7 -21   -2.60    2.40
   0   7  21    1.00    3.10
  -1  -7 -21   30.00    4.60
   1  -7  21   41.40    6.50
   1   7  21   29.60    4.90
  -2  -7 -21   31.20    5.10
  -2  -7 -21   26.20    4.60
   2  -7  21   30.60    5.50
   2   7  21   23.20    4.90
   3  -7  21  164.38   10.60
  -3  -7 -21  169.98    9.80
   3   7  21  165.88    9.80
  -4  -7 -21  112.19    8.80
   4  -7  21  100.69    8.30
   4   7  21  110.69    8.50
   5  -7  21  120.79    9.30
  -5  -7 -21  118.49    9.40
   5   7  21  108.89    9.70
  -6  -7 -21   38.60    6.40
   6  -7  21   34.60    5.90
   6   7  21   27.80    6.00
   7  -7  21   49.10    6.90
  -7  -7 -21   33.80    6.40
   7   7  21   47.50    7.50
   8  -7  21  147.39   10.40
  -8  -7 -21  154.18   11.40
   8   7  21  152.38   11.50
  -9  -7 -21    5.10    5.60
   9  -7  21    1.60    4.30
   9   7  21    4.50    4.90
  10  -7  21    1.70    4.60
 -10  -7 -21    7.70    6.20
  10   7  21   12.00    5.80
  11  -7  21    4.50    4.80
 -11  -7 -21   -0.70    6.20
 -11  -8  21    5.40    6.30
 -10  -8  21   26.20    7.40
  -9  -8  21  205.18   13.80
  -8  -8  21   12.30    6.40
  -7  -8  21  104.39   10.40
  -6  -8  21   27.30    6.60
  -6   8  21   23.90    3.30
  -5  -8  21    6.40    4.60
  -5   8  21    5.70    2.50
  -4  -8  21   17.40    5.30
  -4   8  21   20.90    3.40
   3  -8 -21  431.36   13.50
   3  -8 -21  410.56   13.40
  -3  -8  21  417.36   18.70
  -3   8  21  423.56   15.40
   2  -8 -21   24.10    3.30
   2  -8 -21   23.00    3.20
  -2  -8  21   29.70    5.90
  -2   8  21   29.70    4.10
  -1  -8  21  110.39    8.80
   1  -8 -21  105.89    6.40
   1  -8 -21  106.19    6.30
  -1   8  21  102.49    6.90
   0  -8  21   15.30    5.20
   0  -8 -21    6.10    2.90
   0  -8 -21    8.40    3.30
   0   8  21    4.20    3.20
  -1  -8 -21  107.79    7.30
  -1  -8 -21  103.29    7.20
   1  -8  21   95.59    9.00
   1   8  21  100.59    7.60
  -2  -8 -21   21.80    4.60
  -2  -8 -21   30.10    5.20
   2  -8  21   24.30    5.20
   2   8  21   22.70    4.50
  -3  -8 -21  426.56   17.40
   3  -8  21  432.46   17.90
   3   8  21  393.36   17.30
   4  -8  21   24.40    5.50
  -4  -8 -21   25.10    5.20
   4   8  21   29.80    5.90
  -5  -8 -21    4.80    4.00
   5  -8  21    6.10    4.10
   5   8  21    2.10    3.90
   6  -8  21   13.70    4.90
  -6  -8 -21   19.40    5.60
   6   8  21   20.30    6.00
   7  -8  21  104.19    9.30
  -7  -8 -21   88.29    9.60
   7   8  21  102.59    9.90
   8  -8  21    1.30    3.80
  -8  -8 -21    5.30    4.90
   8   8  21   -1.20    4.60
  -9  -8 -21  228.08   14.60
   9  -8  21  190.08   12.00
   9   8  21  205.88   13.90
 -10  -8 -21   18.20    6.80
  10  -8  21   23.00    5.80
 -11  -8 -21    1.10    6.20
  11  -8  21    4.60    4.70
 -10  -9  21   50.99    9.10
  -9  -9  21   16.80    6.80
  -8  -9  21   86.59   10.20
  -7  -9  21   25.10    6.50
  -6  -9  21    8.40    5.60
  -5  -9  21   -9.60    3.70
  -4  -9  21   48.20    7.20
  -4   9  21   45.70    4.50
  -3  -9  21  127.69    9.90
  -3   9  21  126.29    7.30
   2  -9 -21  376.86   13.00
  -2  -9  21  367.76   17.30
  -2   9  21  408.66   15.00
   1  -9 -21   43.30    4.30
  -1  -9  21   35.80    6.30
  -1   9  21   42.90    5.20
   0  -9  21    3.60    4.10
   0  -9 -21   -6.10    2.20
   0   9  21    3.70    3.00
  -1  -9 -21   50.79    5.60
   1  -9  21   41.40    6.30
   1   9  21   46.40    5.70
  -2  -9 -21  389.86   16.10
   2  -9  21  402.06   17.50
   2   9  21  407.86   16.90
   3  -9  21  133.09    9.40
  -3  -9 -21  133.79    9.10
   3   9  21  129.49    9.00
   4  -9  21   52.69    7.00
  -4  -9 -21   47.80    6.70
   4   9  21   46.30    7.10
   5  -9  21    2.40    4.00
  -5  -9 -21    4.30    4.30
   5   9  21   -5.60    3.80
   6  -9  21   16.00    4.60
  -6  -9 -21   18.90    5.60
   6   9  21   21.70    5.50
  -7  -9 -21   27.60    6.60
   7  -9  21   18.10    5.20
   7   9  21   17.30    6.10
   8  -9  21   66.09    7.70
  -8  -9 -21   68.39    9.00
   8   9  21   87.69   10.00
   9  -9  21   18.00    5.30
  -9  -9 -21   18.70    6.50
  10  -9  21   42.90    6.70
 -10  -9 -21   37.50    8.30
  -9 -10  21   48.90    8.60
  -8 -10  21    6.60    6.20
  -7 -10  21    4.50    5.40
  -6 -10  21   -0.50    4.70
  -5 -10  21   21.00    6.00
  -4 -10  21   10.70    5.00
  -3 -10  21    6.70    4.90
  -3  10  21    8.00    3.00
   2 -10 -21   82.19    4.10
  -2 -10  21   78.89    8.70
  -2  10  21   84.59    6.30
   1 -10 -21    6.90    2.50
  -1 -10  21   -0.60    3.70
  -1  10  21    1.30    2.70
   0 -10 -21    5.30    2.90
   0 -10  21    1.90    4.60
   0  10  21    3.10    3.30
  -1 -10 -21   -1.30    2.90
   1 -10  21   -0.40    3.60
   1  10  21    0.30    3.30
   2 -10  21   85.49    8.50
  -2 -10 -21   70.69    7.00
   2  10  21   87.19    7.90
  -3 -10 -21    8.70    4.20
   3 -10  21   10.60    4.30
   3  10  21   12.30    4.30
   4 -10  21    9.80    4.60
  -4 -10 -21   12.90    4.40
   4  10  21   13.80    5.00
   5 -10  21   20.90    5.10
  -5 -10 -21   18.80    5.30
   5  10  21   28.10    6.00
  -6 -10 -21   -1.00    3.80
   6 -10  21   -4.50    3.70
   6  10  21   -2.50    3.80
  -7 -10 -21   -1.80    4.90
   7 -10  21    6.10    4.40
   7  10  21    0.30    5.00
  -8 -10 -21    7.00    5.90
   8 -10  21   -0.70    3.60
   9 -10  21   34.40    6.20
  -9 -10 -21   41.40    7.80
  -8 -11  21    5.00    5.70
  -7 -11  21   18.10    6.60
  -6 -11  21   68.89    9.20
  -5 -11  21   17.30    6.20
  -4 -11  21   17.80    5.70
  -3 -11  21  215.28   13.20
  -2 -11  21   39.40    6.80
  -2  11  21   38.70    4.70
   1 -11 -21   40.00    3.80
  -1 -11  21   44.50    7.30
  -1  11  21   47.40    5.50
   0 -11  21    5.60    4.20
   0 -11 -21   -0.50    2.50
   0  11  21   -0.10    2.90
  -1 -11 -21   38.30    5.10
   1 -11  21   39.90    6.70
   1  11  21   52.69    6.30
  -2 -11 -21   41.90    5.60
   2 -11  21   41.80    6.80
   2  11  21   38.00    5.90
   3 -11  21  231.28   12.60
  -3 -11 -21  221.88   11.90
   3  11  21  217.38   12.60
   4 -11  21   16.40    5.20
  -4 -11 -21   16.40    5.00
   4  11  21   14.10    5.10
  -5 -11 -21   19.30    5.40
   5 -11  21   14.90    4.90
   5  11  21   25.00    6.30
   6 -11  21   56.89    7.30
  -6 -11 -21   53.09    7.60
  -7 -11 -21   13.30    5.70
   7 -11  21   15.40    4.90
   8 -11  21   18.70    5.20
  -8 -11 -21   16.80    5.90
  -7 -12  21    9.10    6.30
  -6 -12  21    6.60    5.50
  -5 -12  21   10.80    5.50
  -4 -12  21   72.29    9.20
  -3 -12  21   67.19    8.60
  -2 -12  21   34.10    7.00
  -1 -12  21    3.30    4.40
   1 -12 -21   11.00    2.20
  -1  12  21    7.80    4.00
   0 -12 -21    5.30    2.70
   0 -12  21    2.80    4.20
   0  12  21    6.30    3.70
   1 -12  21   12.60    5.20
  -1 -12 -21    9.10    3.40
   1  12  21    8.60    4.00
  -2 -12 -21   38.70    5.40
   2 -12  21   35.80    6.60
   2  12  21   46.80    6.50
  -3 -12 -21   67.79    7.40
   3 -12  21   66.89    7.80
   3  12  21   65.19    7.80
  -4 -12 -21   50.69    7.00
   4 -12  21   41.10    6.60
   5 -12  21    2.60    4.50
  -5 -12 -21   -0.50    4.30
   6 -12  21   -1.40    3.80
  -6 -12 -21    8.50    4.90
  -7 -12 -21    7.50    5.50
   7 -12  21    3.10    4.40
  -6 -13  21   19.00    6.60
  -5 -13  21   -4.40    4.50
  -4 -13  21   13.20    5.80
  -3 -13  21    3.30    4.90
  -2 -13  21    2.40    4.60
  -1 -13  21   22.80    6.30
   0 -13  21   -3.00    4.50
   0 -13 -21   -3.50    2.10
  -1 -13 -21   17.70    3.80
   1 -13  21   16.40    5.80
  -2 -13 -21    1.10    3.30
   2 -13  21   -6.30    4.20
  -3 -13 -21    7.60    4.50
   3 -13  21    3.80    4.40
   4 -13  21    6.40    4.80
  -4 -13 -21    2.80    4.10
   5 -13  21    0.50    4.20
  -5 -13 -21    0.10    4.10
   6 -13  21   27.50    5.80
  -6 -13 -21   17.70    5.90
  -4 -14  21    1.00    5.80
  -3 -14  21   23.20    6.40
  -2 -14  21   29.20    7.30
  -1 -14  21   59.89    8.90
   0 -14  21    3.30    4.80
  -1 -14 -21   52.29    5.30
   1 -14  21   59.79    8.30
  -2 -14 -21   38.60    5.40
   2 -14  21   34.20    6.90
  -3 -14 -21   27.60    5.30
   3 -14  21   17.80    5.60
   4 -14  21    2.00    4.30
  -4 -14 -21    1.00    4.00
  -1 -15  21   25.60    7.10
   0 -15  21   -2.80    4.40
   1 -15  21   31.20    6.70
 -12   0  22    4.70    4.40
 -11   0  22  357.26   16.30
 -10   0  22   16.30    4.70
  -9   0  22   14.80    4.60
  -8   0  22  157.78    9.80
  -7   0  22  170.98   10.00
  -6   0  22    6.70    3.80
   6   0 -22   -0.20    2.90
  -5   0  22 1246.38   38.60
   5   0 -22 1173.58   38.10
   4   0 -22    5.50    3.10
  -4   0  22    6.80    3.40
   3   0 -22  956.40   31.30
  -3   0  22  979.60   31.70
   2   0 -22  186.38    9.60
  -2   0  22  199.08   10.10
  -1   0  22    7.60    3.60
   0   0  22  883.71   29.50
   1   0  22    3.30    3.50
   2   0  22  220.88   11.30
   3   0  22  992.10   33.10
   4   0  22   11.30    4.30
   5   0  22 1263.57   41.30
   6   0  22    4.60    4.20
   7   0  22  181.28   11.50
   8   0  22  138.59   10.20
   9   0  22   13.80    5.70
  10   0  22    8.70    5.80
  11   0  22  362.46   18.30
  12   0  22   -3.30    5.40
 -12  -1  22   11.60    5.30
 -11  -1  22    9.00    4.80
 -11   1  22   14.30    4.70
 -10  -1  22   10.80    4.70
 -10   1  22   10.80    4.30
  -9  -1  22   85.89    8.20
  -9   1  22   92.29    8.20
  -8  -1  22   40.90    6.00
  -8   1  22   36.60    5.50
  -7  -1  22  255.67   12.40
  -7   1  22  247.28   12.00
   6  -1 -22   41.50    5.20
  -6  -1  22   47.80    6.20
  -6   1  22   46.40    5.60
   5  -1 -22   39.40    5.00
  -5  -1  22   43.10    5.60
  -5   1  22   35.70    5.10
  -4  -1  22   12.10    4.00
   4  -1 -22   10.10    3.30
  -4   1  22    7.90    3.30
   3  -1 -22  261.07   11.80
  -3  -1  22  278.37   12.60
  -3   1  22  279.47   12.40
  -2  -1  22    7.10    3.80
   2  -1 -22   11.80    3.60
  -2   1  22    7.80    3.60
  -1  -1  22  926.61   30.00
   1  -1 -22  841.12   29.10
  -1   1  22  923.41   29.70
   0  -1  22   -0.80    3.30
   0  -1 -22    0.80    3.10
   0   1  22    0.90    3.00
   1  -1  22  934.21   30.60
   1   1  22  886.51   30.10
   2  -1  22    7.50    3.70
   2   1  22    6.50    3.60
   3  -1  22  282.77   13.70
   3   1  22  321.57   14.10
   4  -1  22   12.20    4.30
   4   1  22    7.40    4.00
   5  -1  22   39.60    6.10
   5   1  22   38.90    6.00
   6  -1  22   53.69    6.90
   6   1  22   43.90    6.50
   7  -1  22  275.77   14.00
   7   1  22  252.27   13.70
   8  -1  22   39.20    6.60
   8   1  22   44.90    6.80
   9  -1  22   64.99    8.10
   9   1  22   78.39    9.00
  10  -1  22   13.30    5.80
  10   1  22   13.10    5.80
  11  -1  22    7.10    5.60
  11   1  22    9.30    5.60
  12  -1  22    8.40    5.70
 -12  -1 -22    9.90    6.50
  12   1  22    8.50    5.60
 -12  -2  22    3.00    4.50
 -11  -2  22    7.40    5.00
 -11   2  22    6.00    4.50
 -10  -2  22    6.60    4.60
 -10   2  22   -0.60    3.20
  -9  -2  22   -3.10    4.00
  -9   2  22    1.60    3.50
  -8  -2  22   -4.50    3.20
  -8   2  22    4.90    3.30
  -7  -2  22   39.50    5.80
  -7   2  22   28.20    4.70
   6  -2 -22   13.20    3.50
  -6  -2  22   21.80    5.10
  -6   2  22   15.70    3.90
  -5  -2  22   89.49    8.00
   5  -2 -22   99.49    6.60
  -5   2  22   90.19    6.90
  -4  -2  22  156.88    9.40
   4  -2 -22  164.18    8.70
  -4   2  22  147.89    8.50
  -3  -2  22  329.97   14.60
   3  -2 -22  323.57   13.20
  -3   2  22  323.27   13.30
  -2  -2  22    0.30    3.30
   2  -2 -22   -0.10    2.50
  -2   2  22    3.60    3.00
  -1  -2  22  298.67   13.70
   1  -2 -22  294.87   12.60
  -1   2  22  287.37   12.50
   0  -2 -22   15.70    3.80
   0  -2  22   13.40    4.30
   0   2  22   15.70    3.90
   1  -2  22  290.77   13.30
   1   2  22  288.37   12.90
   2  -2  22    1.20    3.50
   2   2  22   -4.40    2.90
   3  -2  22  328.67   14.60
   3   2  22  310.27   14.40
   4  -2  22  189.38   10.80
   4   2  22  172.38   10.40
   5  -2  22   89.29    8.40
   5   2  22   94.39    8.90
   6  -2  22   18.10    5.10
   6   2  22   19.00    5.20
   7  -2  22   43.80    6.40
   7   2  22   30.60    6.10
   8  -2  22   -4.30    3.40
   8   2  22   -1.90    4.50
   9  -2  22   14.60    5.00
   9   2  22    5.30    5.00
  10  -2  22   -1.20    4.00
  10   2  22    0.10    4.50
  11  -2  22    8.10    5.60
 -11  -2 -22   -2.70    4.60
  11   2  22    5.10    4.90
 -12  -2 -22    3.90    5.60
  12  -2  22    9.30    5.90
  12   2  22   17.30    6.70
 -12  -3  22   15.10    5.60
 -11  -3  22  282.77   15.50
 -10  -3  22    6.90    4.40
 -10   3  22    6.40    3.60
  -9  -3  22   34.40    6.00
  -9   3  22   42.50    5.50
  -8  -3  22  104.99    8.60
  -8   3  22  103.89    7.50
  -7  -3  22   10.70    4.40
  -7   3  22   12.40    3.50
   6  -3 -22   60.59    5.40
  -6  -3  22   50.99    6.50
  -6   3  22   41.90    5.10
  -5  -3  22  170.98   10.40
   5  -3 -22  176.18    8.70
  -5   3  22  184.08    9.30
  -4  -3  22  191.08   10.70
   4  -3 -22  181.38    8.90
  -4   3  22  193.88    9.50
   3  -3 -22   10.90    3.10
  -3  -3  22   14.30    4.30
  -3   3  22    9.50    3.40
   2  -3 -22   69.19    6.00
  -2  -3  22   65.89    6.90
  -2   3  22   52.89    5.50
   1  -3 -22 1212.68   37.50
  -1  -3  22 1218.18   38.90
  -1   3  22 1166.48   37.60
   0  -3 -22    0.50    2.90
   0  -3  22   -0.70    3.30
   0   3  22    3.80    3.10
  -1  -3 -22 1084.99   35.70
   1  -3  22 1151.48   37.00
   1   3  22 1145.29   36.20
   2  -3  22   52.79    6.30
   2   3  22   53.39    6.20
   3  -3  22   10.10    4.10
   3   3  22    6.10    4.10
   4  -3  22  188.88   11.00
   4   3  22  201.18   11.10
   5  -3  22  197.78   11.40
   5   3  22  204.08   11.90
   6  -3  22   42.90    6.50
   6   3  22   54.69    7.20
   7  -3  22   15.10    4.70
   7   3  22   19.50    5.40
   8  -3  22  100.29    9.80
   8   3  22  129.29   10.00
   9  -3  22   42.20    6.80
   9   3  22   31.10    6.80
 -10  -3 -22   13.70    5.90
  10  -3  22    0.00    4.30
  10   3  22    6.30    5.80
 -11  -3 -22  283.37   16.50
  11  -3  22  253.27   15.30
  11   3  22  255.07   15.70
 -12  -3 -22   22.20    7.50
  12  -3  22   19.00    6.20
  12   3  22   13.70    6.80
 -12  -4  22   54.29    8.60
 -11  -4  22  150.98   11.30
 -10  -4  22   77.39    9.10
  -9  -4  22   14.50    5.60
  -9   4  22   15.20    3.80
  -8  -4  22   97.19    9.30
  -8   4  22   84.49    6.70
  -7  -4  22   14.30    4.90
  -7   4  22   15.90    3.80
  -6  -4  22    6.80    4.20
  -6   4  22    2.70    2.80
   5  -4 -22  775.62   25.10
  -5  -4  22  782.22   28.20
  -5   4  22  824.82   26.20
   4  -4 -22   12.50    3.00
  -4  -4  22   14.20    4.70
  -4   4  22   16.40    3.60
  -3  -4  22   26.80    5.30
   3  -4 -22   36.90    4.30
  -3   4  22   30.00    4.40
  -2  -4  22    8.50    4.10
   2  -4 -22   13.90    3.30
  -2   4  22   14.10    3.50
  -1  -4  22  222.08   11.10
   1  -4 -22  183.38    9.20
  -1   4  22  160.88    9.00
   0  -4 -22   21.40    4.20
   0  -4  22   29.30    5.30
   0   4  22   23.10    4.20
  -1  -4 -22  154.18    8.60
   1  -4  22  179.98   10.40
   1   4  22  136.89    9.00
   2  -4  22   12.00    4.30
   2   4  22   18.00    4.70
   3  -4  22   18.60    4.90
   3   4  22   34.10    5.40
   4  -4  22   12.80    4.50
   4   4  22    7.10    4.10
   5  -4  22  783.02   28.10
   5   4  22  790.92   28.30
   6  -4  22    0.70    4.20
   6   4  22    1.30    3.90
   7  -4  22   16.60    4.90
   7   4  22   30.90    6.10
   8  -4  22   83.09    8.50
   8   4  22   75.39    8.90
   9  -4  22   13.80    5.20
  -9  -4 -22   18.60    6.00
   9   4  22   11.80    5.30
  10  -4  22   65.59    8.20
 -10  -4 -22   65.59    9.10
  10   4  22   69.89    9.50
  11  -4  22  140.39   11.00
 -11  -4 -22  125.69   12.60
  11   4  22  170.88   13.80
  12  -4  22   40.90    7.30
 -12  -4 -22   50.19    9.10
  12   4  22   39.20    8.80
 -11  -5  22   -3.00    4.50
 -10  -5  22   13.00    5.40
  -9  -5  22   -0.90    4.00
  -8  -5  22   68.19    8.20
  -8   5  22   62.69    5.90
  -7  -5  22   64.29    8.00
  -7   5  22   80.19    6.10
  -6  -5  22   35.50    6.40
  -6   5  22   36.30    4.50
   5  -5 -22    4.80    2.10
  -5  -5  22    4.90    4.30
  -5   5  22    4.30    2.70
  -4  -5  22   10.50    4.40
   4  -5 -22   11.80    2.80
  -4   5  22   13.90    3.50
   3  -5 -22    2.90    2.30
  -3  -5  22    2.00    3.80
  -3   5  22    2.20    2.90
   2  -5 -22   54.69    5.10
  -2  -5  22   46.20    6.30
  -2   5  22   57.49    5.60
   1  -5 -22   57.29    5.40
  -1  -5  22   48.60    6.40
  -1   5  22   42.70    5.20
   0  -5  22    2.20    3.60
   0  -5 -22   -3.60    2.60
   0   5  22   -1.60    2.70
  -1  -5 -22   59.09    5.90
   1  -5  22   44.20    6.40
   1   5  22   54.99    6.10
   2  -5  22   60.39    6.90
   2   5  22   52.79    6.20
   3  -5  22    5.00    3.90
   3   5  22    3.50    3.60
   4  -5  22   11.90    4.40
   4   5  22    4.40    3.90
   5  -5  22    2.40    3.90
   5   5  22    9.60    4.40
   6  -5  22   39.10    6.10
   6   5  22   25.80    5.90
   7  -5  22   63.89    7.70
   7   5  22   93.59    9.40
  -8  -5 -22   55.59    8.10
   8  -5  22   57.69    7.60
   8   5  22   49.99    7.70
   9  -5  22   -1.50    4.20
  -9  -5 -22    1.40    4.60
   9   5  22    4.80    4.90
  10  -5  22   -0.80    4.60
 -10  -5 -22   13.00    6.60
  10   5  22    7.30    6.30
  11  -5  22    3.70    4.60
 -11  -5 -22   -2.80    5.00
  11   5  22    8.90    6.00
 -11  -6  22   77.09    9.70
 -10  -6  22  105.79   10.90
  -9  -6  22   42.20    7.30
  -8  -6  22   10.10    5.10
  -7  -6  22  135.79   10.60
  -7   6  22  146.79    7.70
   6  -6 -22    3.40    1.00
  -6  -6  22    7.20    4.50
  -6   6  22    4.70    2.70
  -5  -6  22  562.04   22.50
   5  -6 -22  545.75   17.30
  -5   6  22  578.24   19.40
   4  -6 -22    0.20    1.90
  -4  -6  22    3.40    4.10
  -4   6  22    4.60    2.70
   3  -6 -22    0.60    2.00
  -3  -6  22   -4.20    3.50
  -3   6  22    0.50    2.70
   2  -6 -22    3.10    2.60
  -2  -6  22   -0.20    4.00
  -2   6  22    3.00    2.80
  -1  -6  22   69.69    7.60
   1  -6 -22   76.09    6.00
  -1   6  22   77.19    6.00
   0  -6 -22  240.18   10.80
   0  -6  22  225.28   12.20
   0   6  22  233.38   11.20
   1  -6  22   72.89    7.60
  -1  -6 -22   81.39    6.80
   1   6  22   74.99    6.90
  -2  -6 -22    6.30    3.50
   2  -6  22    5.00    4.00
   2   6  22    6.50    3.50
   3  -6  22    6.60    4.40
   3   6  22   -1.70    3.20
   4  -6  22    1.30    4.30
   4   6  22    6.10    4.40
   5  -6  22  620.44   23.40
   5   6  22  576.24   23.10
   6  -6  22   14.10    5.00
  -6  -6 -22    9.50    4.50
   6   6  22   10.20    4.80
   7  -6  22  154.08   10.60
  -7  -6 -22  148.49   10.80
   7   6  22  139.49   10.80
  -8  -6 -22    4.20    5.10
   8  -6  22    5.10    4.10
   8   6  22    5.40    4.80
  -9  -6 -22   52.79    8.70
   9  -6  22   40.10    6.80
   9   6  22   44.20    7.60
 -10  -6 -22  113.89   11.70
  10  -6  22   96.19    9.90
  10   6  22  103.59   11.30
  11  -6  22   83.49    9.30
 -11  -6 -22   81.29   10.70
  11   6  22   87.39   10.80
 -11  -7  22   13.50    6.20
 -10  -7  22   50.69    8.30
  -9  -7  22    5.00    5.10
  -8  -7  22   -0.90    4.70
  -7  -7  22   14.20    5.50
  -6  -7  22  146.49   11.10
  -6   7  22  178.38    8.30
  -5  -7  22   91.89    9.30
  -5   7  22  106.59    6.50
   4  -7 -22   34.40    2.90
  -4  -7  22   34.30    6.10
   4  -7 -22   37.60    3.10
  -4   7  22   33.10    4.30
   3  -7 -22   32.70    3.50
  -3  -7  22   33.70    6.20
  -3   7  22   39.60    4.60
   2  -7 -22  143.39    7.30
  -2  -7  22  145.59   10.10
  -2   7  22  156.08    8.40
   1  -7 -22  575.54   19.90
  -1  -7  22  598.04   23.20
  -1   7  22  600.04   20.90
   0  -7 -22    1.00    3.00
   0  -7  22    1.60    3.90
   0   7  22    2.90    3.30
  -1  -7 -22  606.24   21.80
   1  -7  22  609.94   23.40
   1   7  22  622.64   22.20
   2  -7  22  140.39    9.70
  -2  -7 -22  139.69    9.00
  -2  -7 -22  155.48    9.10
   2   7  22  163.08    9.30
   3  -7  22   39.00    6.60
  -3  -7 -22   40.10    5.90
   3   7  22   38.70    5.70
  -4  -7 -22   30.70    5.60
   4  -7  22   37.10    6.40
   4   7  22   41.50    6.20
  -5  -7 -22   94.49    8.80
   5  -7  22   98.79    9.00
   5   7  22   91.59    8.90
   6  -7  22  158.88   10.80
  -6  -7 -22  163.38   11.50
   6   7  22  166.78   11.70
   7  -7  22   13.50    5.20
  -7  -7 -22   21.90    5.90
   7   7  22   21.10    5.80
  -8  -7 -22    5.60    5.30
   8  -7  22    5.40    4.40
   8   7  22    3.90    4.90
  -9  -7 -22    1.90    4.80
   9  -7  22    7.30    4.90
   9   7  22   12.00    5.80
 -10  -7 -22   34.20    7.80
  10  -7  22   44.20    7.00
  10   7  22   36.40    7.80
 -11  -7 -22   17.20    6.90
  11  -7  22   14.00    5.60
 -10  -8  22    6.90    5.60
  -9  -8  22   64.59    9.10
  -8  -8  22    2.10    5.00
  -7  -8  22   53.49    8.10
  -6  -8  22   11.30    5.30
  -5  -8  22   41.20    6.90
  -5   8  22   47.50    4.50
  -4  -8  22   21.80    5.70
  -4   8  22   18.70    3.60
  -3  -8  22  131.59   10.80
   3  -8 -22  140.99    6.10
  -3   8  22  148.19    7.90
   2  -8 -22    2.00    2.20
  -2  -8  22    5.20    4.10
  -2   8  22    1.50    2.80
   1  -8 -22  140.19    7.60
  -1  -8  22  125.29    9.60
  -1   8  22  140.89    8.20
   0  -8 -22   73.19    5.90
   0  -8  22   56.09    7.30
   0   8  22   65.89    6.50
   1  -8  22  147.79    9.90
  -1  -8 -22  125.79    8.20
   1   8  22  133.99    8.80
   2  -8  22    1.20    4.10
  -2  -8 -22   -0.60    3.30
   2   8  22    4.50    3.40
   3  -8  22  157.78   10.20
  -3  -8 -22  155.78   10.00
   3   8  22  141.89    9.90
  -4  -8 -22   21.00    5.30
   4  -8  22   19.40    5.00
   4   8  22   19.90    5.00
   5  -8  22   38.30    6.10
  -5  -8 -22   54.19    7.40
   5   8  22   46.90    6.80
  -6  -8 -22    7.70    4.60
   6  -8  22   22.10    5.60
   6   8  22   24.00    5.70
  -7  -8 -22   61.69    8.20
   7  -8  22   62.69    7.70
   7   8  22   64.79    8.40
  -8  -8 -22   -3.20    4.30
   8  -8  22   -1.80    4.00
   8   8  22   -5.00    4.80
   9  -8  22   60.59    7.70
  -9  -8 -22   68.79    9.30
   9   8  22   68.59    9.40
  10  -8  22    7.40    4.70
 -10  -8 -22    0.80    4.80
 -10  -9  22   -5.70    4.90
  -9  -9  22    8.90    6.00
  -8  -9  22    0.80    5.20
  -7  -9  22  137.09   11.40
  -6  -9  22   -3.50    4.20
  -5  -9  22    1.60    4.50
  -4  -9  22   90.99    9.50
  -4   9  22   75.09    5.60
  -3  -9  22  101.79    9.80
   3  -9 -22   91.69    3.60
  -3   9  22  102.89    6.70
  -2  -9  22    2.20    4.10
   2  -9 -22   -2.00    1.80
  -2   9  22    1.90    2.90
   1  -9 -22  423.56   15.10
  -1  -9  22  403.96   18.30
  -1   9  22  420.56   16.30
   0  -9  22   -0.30    3.80
   0  -9 -22    1.10    2.70
   0   9  22   -0.80    2.80
  -1  -9 -22  437.76   17.00
   1  -9  22  442.46   18.90
   1   9  22  430.26   17.50
  -2  -9 -22   -1.60    3.10
   2  -9  22    3.40    3.90
   2   9  22    1.80    3.80
  -3  -9 -22   99.79    8.20
   3  -9  22   82.19    8.50
   3   9  22   94.09    8.50
   4  -9  22   87.29    8.60
  -4  -9 -22   92.99    8.70
   4   9  22   86.59    8.70
  -5  -9 -22   -2.30    3.60
   5  -9  22    6.90    4.40
   5   9  22    6.10    4.40
  -6  -9 -22   -0.30    4.00
   6  -9  22   -6.60    3.70
   6   9  22   -2.80    4.20
  -7  -9 -22  146.39   10.90
   7  -9  22  120.09    9.70
   7   9  22  131.19   10.80
   8  -9  22    1.80    4.00
  -8  -9 -22   -2.30    5.00
   8   9  22    1.70    5.00
  -9  -9 -22   10.80    5.80
   9  -9  22   16.40    5.40
 -10  -9 -22    0.10    5.40
  10  -9  22    0.70    4.30
  -9 -10  22   62.39    9.60
  -8 -10  22   -4.20    5.50
  -7 -10  22  173.78   13.80
  -6 -10  22   28.60    6.90
  -5 -10  22   99.49   10.60
  -4 -10  22   20.90    6.00
  -3 -10  22   28.70    6.10
  -3  10  22   30.60    4.20
   2 -10 -22  110.19    5.10
  -2 -10  22  113.49   10.30
  -2  10  22  104.29    7.10
   1 -10 -22   36.00    4.00
  -1 -10  22   34.30    6.40
  -1  10  22   30.90    4.80
   0 -10  22   41.70    7.00
   0 -10 -22   42.40    4.70
   0  10  22   44.30    5.50
  -1 -10 -22   25.60    4.60
   1 -10  22   33.80    6.40
   1  10  22   31.70    5.30
   2 -10  22  126.49   10.10
  -2 -10 -22  116.89    8.30
   2  10  22  120.89    8.60
  -3 -10 -22   32.10    5.50
   3 -10  22   41.00    6.40
   3  10  22   34.00    6.10
   4 -10  22   29.80    6.00
  -4 -10 -22   29.00    5.50
   4  10  22   18.70    5.80
  -5 -10 -22   93.79    9.40
   5 -10  22   92.99    8.90
   5  10  22   92.99    9.40
  -6 -10 -22   38.80    7.10
   6 -10  22   45.60    7.00
   6  10  22   36.90    6.90
   7 -10  22  160.08   11.00
  -7 -10 -22  165.38   12.00
   7  10  22  181.78   12.60
   8 -10  22    0.40    4.20
  -8 -10 -22    8.60    5.40
  -9 -10 -22   59.69    9.50
   9 -10  22   63.99    7.70
  -8 -11  22   20.70    6.80
  -7 -11  22    4.80    5.70
  -6 -11  22   17.40    6.30
  -5 -11  22    9.80    5.70
  -4 -11  22   -1.70    4.20
  -3 -11  22   15.20    5.40
  -2 -11  22    1.50    4.70
  -2  11  22    1.50    2.90
  -1 -11  22    1.40    4.20
   1 -11 -22    6.40    2.40
  -1  11  22    6.60    3.50
   0 -11  22   -1.20    4.10
   0 -11 -22   -2.20    2.50
   0  11  22    7.20    3.40
   1 -11  22    4.60    4.50
  -1 -11 -22    3.30    3.10
   1  11  22    2.70    3.60
   2 -11  22    1.50    4.00
  -2 -11 -22    0.50    3.60
   2  11  22    1.40    3.70
   3 -11  22   15.20    5.00
  -3 -11 -22   23.40    4.90
   3  11  22   12.40    4.90
  -4 -11 -22    5.20    4.40
   4 -11  22    6.10    4.30
   4  11  22    3.20    4.40
   5 -11  22   12.90    4.80
  -5 -11 -22    7.90    4.50
   5  11  22    6.20    5.40
  -6 -11 -22   12.90    5.60
   6 -11  22   -2.60    4.10
   6  11  22   16.30    5.90
  -7 -11 -22    4.70    5.40
   7 -11  22   -0.50    4.10
  -8 -11 -22   23.90    6.60
   8 -11  22   14.80    5.10
  -7 -12  22    6.00    6.00
  -6 -12  22   12.60    6.40
  -5 -12  22   10.30    5.60
  -4 -12  22    1.90    5.20
  -3 -12  22  158.18   11.80
  -2 -12  22   32.00    6.60
  -1 -12  22   52.09    7.70
   0 -12  22    7.00    4.50
   0 -12 -22    1.00    2.50
   0  12  22    0.80    3.20
  -1 -12 -22   62.79    6.10
   1 -12  22   54.69    7.70
   1  12  22   54.59    6.60
   2 -12  22   37.30    7.00
  -2 -12 -22   30.70    5.20
   2  12  22   25.50    5.30
  -3 -12 -22  150.28   10.00
   3 -12  22  164.08   11.30
   3  12  22  142.99   10.10
  -4 -12 -22   -1.60    3.80
   4 -12  22    5.50    4.60
   4  12  22    0.30    4.40
   5 -12  22    8.50    4.80
  -5 -12 -22   13.20    5.40
   6 -12  22    6.90    4.50
  -6 -12 -22   -2.70    4.50
   7 -12  22   17.60    5.40
  -7 -12 -22   24.30    6.60
  -6 -13  22   11.40    6.10
  -5 -13  22    9.40    5.90
  -4 -13  22   26.20    7.40
  -3 -13  22   17.70    6.30
  -2 -13  22   10.50    5.80
  -1 -13  22   29.90    7.00
   0 -13  22   -4.10    4.40
   0 -13 -22   -3.00    2.20
  -1 -13 -22   27.80    4.40
   1 -13  22   29.90    6.80
   2 -13  22    7.90    4.70
  -2 -13 -22    7.00    3.80
  -3 -13 -22   27.40    5.40
   3 -13  22   25.60    6.10
  -4 -13 -22   27.50    5.90
   4 -13  22   25.00    6.00
   5 -13  22   -3.50    3.90
  -5 -13 -22   -7.70    3.60
  -6 -13 -22   13.90    5.50
   6 -13  22   16.30    5.40
  -4 -14  22    9.90    5.80
  -3 -14  22    7.30    5.80
  -2 -14  22   -2.70    5.10
  -1 -14  22   12.10    6.00
   0 -14  22    8.20    5.60
   1 -14  22   16.70    5.90
  -1 -14 -22   16.60    4.00
  -2 -14 -22   -3.40    3.00
   2 -14  22    4.50    5.10
  -3 -14 -22    4.40    3.90
   3 -14  22    0.90    4.60
   4 -14  22    1.50    4.60
  -4 -14 -22    3.80    4.40
 -12   0  23    0.90    4.50
 -11   0  23   -0.10    4.10
 -10   0  23    3.50    3.90
  -9   0  23   -1.60    3.50
  -8   0  23   -0.50    3.00
  -7   0  23   -0.90    3.00
   6   0 -23    2.70    3.40
  -6   0  23   -2.70    2.80
   5   0 -23   -1.90    2.80
  -5   0  23   -4.20    3.20
  -4   0  23   -0.80    3.40
   4   0 -23    0.20    2.80
   3   0 -23    1.40    2.80
  -3   0  23    0.10    3.10
  -2   0  23    2.00    3.60
  -1   0  23    1.70    3.30
   0   0  23    9.80    3.90
   1   0  23   -0.70    3.10
   2   0  23   -1.70    3.30
   3   0  23    3.50    3.80
   4   0  23   -3.10    3.40
   5   0  23    0.30    4.00
   6   0  23   -2.40    3.80
   7   0  23    4.20    4.30
   8   0  23   -2.90    4.00
   9   0  23    1.90    4.50
  10   0  23   -5.30    4.10
  11   0  23    7.20    5.70
  12   0  23    3.80    4.90
 -12  -1  23   24.90    6.30
 -11  -1  23   -1.30    4.30
 -11   1  23    0.30    4.00
 -10  -1  23  148.09   10.50
 -10   1  23  134.79    9.50
  -9  -1  23    3.40    3.70
  -9   1  23    3.90    3.80
  -8  -1  23    6.00    4.20
  -8   1  23   -1.50    3.20
  -7  -1  23   -1.10    3.40
  -7   1  23   -0.50    3.30
  -6  -1  23  290.77   13.00
   6  -1 -23  247.28   11.80
  -6   1  23  260.67   12.20
   5  -1 -23  115.59    7.60
  -5  -1  23  120.99    8.20
  -5   1  23   92.49    7.10
  -4  -1  23    8.90    4.10
   4  -1 -23   10.00    3.60
  -4   1  23   12.90    4.00
   3  -1 -23  378.16   14.60
  -3  -1  23  339.97   14.90
  -3   1  23  353.96   14.60
  -2  -1  23  264.67   12.40
   2  -1 -23  245.48   11.40
  -2   1  23  257.27   11.90
  -1  -1  23   30.90    5.10
   1  -1 -23   40.80    5.10
  -1   1  23   43.70    5.30
   0  -1  23    3.60    3.50
   0   1  23   -1.20    3.10
   1  -1  23   42.60    5.80
   1   1  23   31.10    4.90
   2  -1  23  241.38   12.20
   2   1  23  248.68   12.20
   3  -1  23  379.66   16.60
   3   1  23  375.86   16.20
   4  -1  23   10.80    4.80
   4   1  23    8.40    4.30
   5  -1  23   91.29    8.70
   5   1  23  107.89    8.60
   6  -1  23  255.77   13.50
   6   1  23  258.67   13.70
   7  -1  23   -1.90    3.70
   7   1  23    0.10    3.90
   8  -1  23    4.60    4.60
   8   1  23    0.20    4.10
   9  -1  23    4.60    4.50
   9   1  23    4.30    4.50
  10  -1  23  130.99   10.90
  10   1  23  159.58   11.70
  11  -1  23    5.30    5.00
  11   1  23    7.60    5.20
 -12  -1 -23   13.00    6.40
  12  -1  23   19.00    6.80
  12   1  23   23.00    6.60
 -12  -2  23  102.49   10.30
 -11  -2  23   -3.10    3.60
 -10  -2  23   37.90    6.90
 -10   2  23   38.60    5.70
  -9  -2  23   79.19    8.30
  -9   2  23   75.29    7.20
  -8  -2  23   30.00    5.70
  -8   2  23   36.70    5.20
  -7  -2  23   54.89    7.00
  -7   2  23   61.99    6.30
  -6  -2  23    8.60    4.60
  -6   2  23   12.30    3.60
   5  -2 -23    2.00    2.80
  -5  -2  23   -0.40    3.20
  -5   2  23    1.50    3.20
  -4  -2  23  288.97   13.50
   4  -2 -23  296.17   12.40
  -4   2  23  287.87   12.80
  -3  -2  23   47.70    6.00
   3  -2 -23   49.50    5.30
  -3   2  23   41.00    5.40
  -2  -2  23  147.89    9.50
   2  -2 -23  124.09    7.90
  -2   2  23  127.09    7.90
   1  -2 -23    3.80    2.80
  -1  -2  23    0.00    3.40
  -1   2  23    3.60    3.20
   0  -2 -23  162.88    9.10
   0  -2  23  135.89    9.20
   0   2  23  158.58    9.00
   1  -2  23    5.30    3.90
   1   2  23    2.20    3.40
   2  -2  23  136.89    9.20
   2   2  23  141.69    9.00
   3  -2  23   32.10    5.60
   3   2  23   33.40    5.60
   4  -2  23  278.17   14.10
   4   2  23  321.17   14.50
   5  -2  23   -3.40    3.60
   5   2  23    3.70    3.80
   6  -2  23   12.30    4.80
   6   2  23    2.30    4.10
   7  -2  23   55.49    7.20
   7   2  23   64.29    7.90
   8  -2  23   32.30    6.10
   8   2  23   41.00    7.00
   9  -2  23   67.59    8.20
   9   2  23   82.39    9.50
  10  -2  23   47.80    7.80
  10   2  23   48.00    8.20
  11  -2  23   -5.50    4.00
 -11  -2 -23    1.20    5.60
  11   2  23   -1.20    4.60
 -12  -2 -23  122.29   12.60
  12  -2  23  112.19   11.50
  12   2  23  104.79   11.70
 -12  -3  23    2.50    4.70
 -11  -3  23    6.50    5.00
 -10  -3  23    0.60    4.20
 -10   3  23   -0.70    3.10
  -9  -3  23   26.30    5.90
  -9   3  23   26.40    4.70
  -8  -3  23  256.37   13.80
  -8   3  23  248.78   11.70
  -7  -3  23   65.39    7.30
  -7   3  23   59.89    6.10
  -6  -3  23   37.70    5.90
  -6   3  23   18.60    4.20
  -5  -3  23   27.70    5.40
   5  -3 -23   42.30    4.60
  -5   3  23   24.80    4.30
   4  -3 -23   28.50    4.20
  -4  -3  23   27.20    5.30
  -4   3  23   24.60    4.30
  -3  -3  23  144.19    9.20
   3  -3 -23  132.49    7.70
  -3   3  23  117.39    7.50
  -2  -3  23  157.98    9.80
   2  -3 -23  156.98    8.60
  -2   3  23  152.68    8.80
  -1  -3  23    6.00    3.80
   1  -3 -23    8.50    3.10
  -1   3  23    4.00    3.40
   0  -3  23   -2.50    3.20
   0  -3 -23   -0.10    2.70
   0   3  23   -0.70    3.20
   1  -3  23    5.70    3.90
   1   3  23    2.20    3.10
   2  -3  23  156.68    9.90
   2   3  23  156.78    9.50
   3  -3  23  131.69    9.80
   3   3  23  129.79    8.90
   4  -3  23   24.20    5.40
   4   3  23   22.40    5.10
   5  -3  23   25.90    5.50
   5   3  23   45.00    6.40
   6  -3  23   23.40    5.40
   6   3  23   26.30    5.80
   7  -3  23   53.89    7.20
   7   3  23   56.39    7.90
   8  -3  23  255.67   14.00
   8   3  23  274.07   14.70
   9  -3  23   29.80    6.50
   9   3  23   19.20    6.50
 -10  -3 -23    8.80    5.60
  10  -3  23    7.20    5.40
  10   3  23    0.30    4.60
  11  -3  23   -6.30    4.00
 -11  -3 -23   -4.90    5.00
  11   3  23    0.60    5.60
  12  -3  23    5.30    5.90
 -12  -3 -23   -3.20    5.40
  12   3  23   -0.30    5.40
 -11  -4  23   13.70    5.60
 -10  -4  23   22.70    5.80
  -9  -4  23   -0.20    4.10
  -9   4  23    7.40    3.70
  -8  -4  23   25.50    5.80
  -8   4  23   24.60    4.40
  -7  -4  23    2.90    4.10
  -7   4  23   -0.40    2.60
  -6  -4  23    6.20    4.70
  -6   4  23    9.40    3.50
  -5  -4  23    7.20    4.30
   5  -4 -23    9.70    2.90
  -5   4  23    9.50    3.40
  -4  -4  23  159.88   10.10
   4  -4 -23  146.09    7.60
  -4   4  23  137.49    8.10
   3  -4 -23   22.50    3.80
  -3  -4  23   23.10    5.10
  -3   4  23   29.70    4.40
  -2  -4  23   81.99    8.00
   2  -4 -23  105.09    6.80
  -2   4  23  103.59    7.30
  -1  -4  23  147.09    9.60
   1  -4 -23  147.69    8.30
  -1   4  23  136.39    8.20
   0  -4  23   52.79    6.70
   0  -4 -23   68.19    6.20
   0   4  23   76.89    6.30
  -1  -4 -23  122.39    7.90
   1  -4  23  155.68    9.60
   1   4  23  124.89    8.30
   2  -4  23   82.19    8.00
   2   4  23   84.59    7.60
   3  -4  23   20.20    5.00
   3   4  23   24.60    5.10
   4  -4  23  128.69    9.40
   4   4  23  142.69    9.60
   5  -4  23   13.00    4.60
   5   4  23   10.50    4.60
   6  -4  23    1.40    3.90
   6   4  23    1.80    3.90
   7  -4  23   -4.20    3.60
   7   4  23   -1.40    4.10
   8  -4  23   35.20    6.30
   8   4  23   21.10    5.80
   9  -4  23    6.80    4.60
  -9  -4 -23    8.80    5.60
   9   4  23    3.20    4.80
  10  -4  23   32.90    6.90
 -10  -4 -23   21.50    6.70
  10   4  23   17.30    6.30
  11  -4  23   19.70    6.50
 -11  -4 -23   17.10    7.40
  11   4  23   11.00    6.10
 -11  -5  23    7.60    5.60
 -10  -5  23   49.90    7.80
  -9  -5  23    3.00    4.40
  -8  -5  23  801.12   29.60
  -8   5  23  751.22   25.70
  -7  -5  23   27.00    6.10
  -7   5  23   31.40    4.60
  -6  -5  23   67.39    7.90
  -6   5  23   63.69    5.80
  -5  -5  23    0.80    3.80
  -5   5  23    4.70    2.80
   4  -5 -23  381.76   13.90
  -4  -5  23  399.46   17.20
  -4   5  23  369.66   14.70
   3  -5 -23   -0.30    2.40
  -3  -5  23    2.40    4.00
  -3   5  23    1.80    2.90
   2  -5 -23  114.29    7.00
  -2  -5  23  132.59    9.40
  -2   5  23  127.99    7.80
  -1  -5  23   -5.10    3.40
   1  -5 -23    2.50    2.90
  -1   5  23    3.90    2.90
   0  -5  23    0.70    3.70
   0  -5 -23   -1.90    3.00
   0   5  23   -0.40    3.30
  -1  -5 -23    1.80    3.20
   1  -5  23   10.40    4.30
   1   5  23    3.40    3.30
   2  -5  23  125.09    9.10
   2   5  23  134.09    8.60
   3  -5  23   -2.80    3.60
   3   5  23    2.90    3.60
   4  -5  23  407.36   17.40
   4   5  23  375.66   16.80
   5  -5  23   -1.80    3.50
   5   5  23    6.30    4.40
   6  -5  23   47.60    6.70
   6   5  23   61.89    7.70
   7  -5  23   24.20    5.80
   7   5  23   28.10    6.20
   8  -5  23  758.62   28.10
  -8  -5 -23  703.33   28.40
   8   5  23  736.43   28.70
   9  -5  23   -1.00    4.50
  -9  -5 -23    5.40    5.70
   9   5  23   15.00    5.90
 -10  -5 -23   50.49    8.50
  10  -5  23   36.20    6.70
  10   5  23   38.10    7.80
  11  -5  23    1.80    5.30
 -11  -5 -23    7.30    6.10
  11   5  23    3.40    5.50
 -11  -6  23   -5.00    4.40
 -10  -6  23   -0.70    4.50
  -9  -6  23    2.50    4.60
  -8  -6  23   17.70    5.60
  -7  -6  23    2.60    4.50
  -7   6  23   -0.10    2.70
  -6  -6  23   38.70    6.60
  -6   6  23   37.60    4.60
  -5  -6  23   12.20    5.10
  -5   6  23    5.80    2.90
  -4  -6  23    5.00    4.20
  -4   6  23    3.50    2.90
  -3  -6  23   15.70    5.00
   3  -6 -23   20.90    3.40
  -3   6  23   22.10    3.90
  -2  -6  23   85.09    8.50
   2  -6 -23   76.89    5.60
  -2   6  23   84.49    6.50
  -1  -6  23   62.39    7.40
   1  -6 -23   68.69    5.70
  -1   6  23   74.59    6.80
   0  -6  23  378.56   16.70
   0  -6 -23  375.66   14.80
   0   6  23  353.16   15.00
  -1  -6 -23   70.89    6.50
   1  -6  23   53.59    7.00
   1   6  23   61.69    6.50
   2  -6  23   73.39    7.80
   2   6  23   86.39    7.90
   3  -6  23   20.70    5.10
   3   6  23   23.70    5.30
   4  -6  23    5.30    4.10
   4   6  23    6.70    4.10
   5  -6  23   11.20    4.80
   5   6  23   11.60    5.20
  -6  -6 -23   41.00    7.00
   6  -6  23   34.20    6.10
   6   6  23   49.10    7.00
  -7  -6 -23    1.10    4.20
   7  -6  23    0.60    4.30
   7   6  23    6.50    5.20
  -8  -6 -23    4.70    4.90
   8  -6  23   13.20    5.00
   8   6  23   16.50    5.70
  -9  -6 -23   -4.40    4.60
   9  -6  23    1.60    4.10
   9   6  23   -3.90    4.20
 -10  -6 -23    4.80    5.50
  10  -6  23    2.00    4.50
  10   6  23    1.50    5.20
  11  -6  23    4.70    5.10
 -11  -6 -23    3.10    5.60
  11   6  23    1.50    6.40
 -10  -7  23    3.10    5.80
  -9  -7  23    4.70    5.10
  -8  -7  23  495.65   22.20
  -7  -7  23    5.20    4.90
  -6  -7  23   13.60    5.40
  -6   7  23    4.80    2.90
  -5  -7  23   62.29    7.90
  -5   7  23   64.29    5.60
  -4  -7  23  107.99    9.70
   4  -7 -23   92.79    4.90
  -4   7  23   82.09    6.20
  -3  -7  23   49.10    7.10
  -3   7  23   36.00    4.60
  -2  -7  23   17.30    5.50
  -2   7  23   33.00    4.60
   1  -7 -23   11.70    3.50
  -1  -7  23   15.40    5.10
  -1   7  23   19.40    4.00
   0  -7  23    1.10    3.90
   0  -7 -23   -1.00    2.80
   0   7  23   -0.40    3.10
  -1  -7 -23   15.90    4.00
   1  -7  23   13.40    4.70
   1   7  23   12.10    3.90
   2  -7  23   27.60    5.60
   2   7  23   23.90    5.30
  -3  -7 -23   44.20    6.10
   3  -7  23   31.20    6.20
   3   7  23   34.20    5.70
   4  -7  23  105.69    8.60
  -4  -7 -23   97.49    9.10
   4   7  23   95.69    9.10
  -5  -7 -23   67.49    7.90
   5  -7  23   61.19    7.90
   5   7  23   58.09    7.20
  -6  -7 -23   12.50    5.10
   6  -7  23    5.40    4.60
   6   7  23    8.10    4.60
  -7  -7 -23   -4.60    4.60
   7  -7  23   -0.40    3.60
   7   7  23   -4.80    4.00
   8  -7  23  499.05   20.90
  -8  -7 -23  437.76   21.30
   8   7  23  523.25   22.80
   9  -7  23    8.40    4.80
  -9  -7 -23   -1.20    4.80
   9   7  23   -0.30    5.50
 -10  -7 -23    2.70    5.50
  10  -7  23   -4.50    4.40
  10   7  23   -0.30    5.20
 -10  -8  23   19.90    6.50
  -9  -8  23   20.40    6.40
  -8  -8  23   79.19    9.80
  -7  -8  23   34.30    7.10
  -6  -8  23   66.09    8.60
  -5  -8  23    6.10    4.90
  -5   8  23    1.10    2.50
  -4  -8  23  192.38   12.50
  -4   8  23  209.98    9.60
   3  -8 -23   38.40    3.40
  -3  -8  23   35.50    7.00
  -3   8  23   26.80    4.30
  -2  -8  23  315.67   15.70
   2  -8 -23  279.57   11.20
  -2   8  23  287.47   12.30
   1  -8 -23   58.69    5.40
  -1  -8  23   43.40    6.80
  -1   8  23   53.49    5.80
   0  -8  23  231.28   12.90
   0  -8 -23  221.48   10.80
   0   8  23  228.28   11.20
  -1  -8 -23   55.69    6.10
   1  -8  23   51.69    7.00
   1   8  23   56.49    6.20
   2  -8  23  301.27   14.80
  -2  -8 -23  292.67   13.80
   2   8  23  307.47   14.30
   3  -8  23   35.60    6.00
  -3  -8 -23   33.10    5.70
   3   8  23   31.40    5.40
  -4  -8 -23  239.08   12.70
   4  -8  23  192.48   12.30
   4   8  23  210.68   12.00
   5  -8  23   -0.20    4.10
  -5  -8 -23   -0.70    3.90
   5   8  23   -5.40    3.40
   6  -8  23   75.39    8.40
  -6  -8 -23   89.49    9.30
   6   8  23   68.59    8.20
  -7  -8 -23   51.89    8.00
   7  -8  23   58.09    7.40
   7   8  23   33.30    6.70
  -8  -8 -23   74.79    9.50
   8  -8  23   80.69    8.50
   8   8  23   80.69    9.90
   9  -8  23   15.50    5.40
  -9  -8 -23   13.10    5.90
   9   8  23   22.70    7.30
  10  -8  23   14.10    5.30
 -10  -8 -23   15.40    6.90
  10   8  23    2.20    5.90
  -9  -9  23   -7.10    4.80
  -8  -9  23    7.60    5.40
  -7  -9  23   24.40    6.50
  -6  -9  23  108.39   10.90
  -5  -9  23    6.10    5.40
  -4  -9  23   53.89    8.00
  -4   9  23   68.29    5.60
   3  -9 -23  220.18    7.60
  -3  -9  23  238.78   13.70
  -3   9  23  220.08   10.30
  -2  -9  23  139.49   11.00
   2  -9 -23  138.09    6.80
  -2   9  23  148.19    8.40
  -1  -9  23   26.40    5.90
   1  -9 -23   35.80    4.20
  -1   9  23   22.20    4.30
   0  -9  23    0.40    4.40
   0  -9 -23    0.60    2.80
   0   9  23    3.50    3.40
   1  -9  23   38.50    6.80
  -1  -9 -23   33.00    5.00
   1   9  23   30.70    5.30
  -2  -9 -23  126.09    8.70
   2  -9  23  140.29   10.00
   2   9  23  123.79    9.10
   3  -9  23  242.98   13.10
  -3  -9 -23  231.68   12.20
   3   9  23  236.08   12.90
   4  -9  23   69.49    8.10
  -4  -9 -23   65.29    7.50
   4   9  23   69.99    7.80
  -5  -9 -23   -7.70    3.60
   5  -9  23    5.20    4.40
   5   9  23    1.30    4.60
   6  -9  23  130.09   10.10
  -6  -9 -23  105.59   10.20
   6   9  23  124.59   10.30
   7  -9  23   18.40    5.70
  -7  -9 -23   21.10    6.40
   7   9  23   23.40    6.30
  -8  -9 -23    3.50    4.80
   8  -9  23    2.70    4.60
   8   9  23    1.20    5.00
   9  -9  23    1.40    4.50
  -9  -9 -23   -1.30    4.90
   9   9  23    0.00    5.80
  -9 -10  23   23.20    7.70
  -8 -10  23   -0.90    5.00
  -7 -10  23    3.00    6.00
  -6 -10  23   52.29    8.40
  -5 -10  23   -9.70    4.70
  -4 -10  23    1.10    5.30
  -3 -10  23   21.20    5.90
  -3  10  23   20.00    4.00
   2 -10 -23   88.59    4.70
  -2 -10  23   83.49    9.10
  -2  10  23   90.89    6.80
  -1 -10  23    5.10    5.00
   1 -10 -23    7.80    2.80
  -1  10  23    7.50    3.50
   0 -10 -23    7.90    3.10
   0 -10  23   11.80    5.30
   0  10  23    4.60    3.40
   1 -10  23    5.10    5.00
  -1 -10 -23    6.60    3.50
   1  10  23   -0.50    3.40
   2 -10  23   74.49    8.30
  -2 -10 -23   87.99    7.30
   2  10  23   77.99    7.80
   3 -10  23   21.00    5.50
  -3 -10 -23   19.20    4.90
   3  10  23   14.90    4.60
   4 -10  23    8.90    4.90
  -4 -10 -23    6.90    4.20
   4  10  23   14.70    5.20
  -5 -10 -23    2.40    4.00
   5 -10  23    1.40    4.10
   5  10  23   -2.40    4.30
  -6 -10 -23   47.20    7.30
   6 -10  23   71.89    8.40
   6  10  23   67.19    8.50
  -7 -10 -23    8.90    5.50
   7 -10  23    2.90    4.90
   7  10  23    5.50    5.10
  -8 -10 -23    1.00    4.80
   8 -10  23    4.20    4.60
   8  10  23    2.10    5.20
   9 -10  23   26.60    6.00
  -8 -11  23   65.29    9.80
  -7 -11  23   21.20    7.20
  -6 -11  23   95.79   11.00
  -5 -11  23   19.40    6.00
  -4 -11  23    3.30    4.90
  -3 -11  23   19.10    6.30
  -2 -11  23  191.58   12.70
   1 -11 -23    0.30    2.10
  -1 -11  23   -0.60    4.30
  -1  11  23    4.90    3.20
   0 -11  23   -0.70    3.90
   0 -11 -23    1.30    2.70
   0  11  23    1.20    3.30
   1 -11  23   -4.20    3.70
  -1 -11 -23   -5.20    2.70
   1  11  23    8.40    4.10
   2 -11  23  161.98   11.20
  -2 -11 -23  185.68   10.40
   2  11  23  172.98   10.90
  -3 -11 -23   17.20    4.90
   3 -11  23   15.30    5.00
   3  11  23   17.60    5.40
   4 -11  23   -7.40    3.90
  -4 -11 -23   -5.00    3.40
   4  11  23    8.20    4.60
   5 -11  23    3.00    4.70
  -5 -11 -23    4.10    4.50
   5  11  23    7.90    5.10
  -6 -11 -23   84.59    9.40
   6 -11  23  101.89    9.90
   6  11  23   85.39    9.90
   7 -11  23   19.20    5.60
  -7 -11 -23   29.50    6.70
   8 -11  23   70.69    8.30
  -8 -11 -23   55.39    9.10
  -6 -12  23   18.20    7.00
  -5 -12  23   -4.00    5.80
  -4 -12  23   29.10    7.00
  -3 -12  23   27.40    6.70
  -2 -12  23  227.68   14.00
  -1 -12  23    9.00    5.10
   0 -12  23   26.10    6.10
   0 -12 -23   31.00    4.10
   0  12  23   25.40    4.90
   1 -12  23    5.60    5.00
  -1 -12 -23    4.30    3.40
   1  12  23    8.80    4.30
  -2 -12 -23  179.38   10.50
   2 -12  23  199.18   12.30
   2  12  23  202.18   11.80
  -3 -12 -23   28.00    5.60
   3 -12  23   17.90    5.80
   3  12  23   32.50    6.10
  -4 -12 -23   17.40    5.40
   4 -12  23   34.00    6.60
   4  12  23   31.90    6.90
  -5 -12 -23    0.00    4.30
   5 -12  23    0.00    4.40
   5  12  23   -3.80    3.80
  -6 -12 -23    5.40    5.10
   6 -12  23   17.10    5.50
  -5 -13  23  -10.20    5.10
  -4 -13  23   77.09    9.80
  -3 -13  23   50.89    8.20
  -2 -13  23   -3.30    4.60
  -1 -13  23    0.90    4.50
   0 -13  23   -3.00    4.60
   1 -13  23    2.00    4.30
  -1 -13 -23    4.30    3.10
   2 -13  23   -2.10    4.50
  -2 -13 -23   -0.40    3.30
   2  13  23    5.00    4.20
  -3 -13 -23   58.19    7.10
   3 -13  23   59.69    8.10
  -4 -13 -23   84.09    8.80
   4 -13  23   84.79    9.40
  -5 -13 -23   -0.90    4.50
   5 -13  23   -0.50    4.20
  -3 -14  23   -2.80    4.90
  -2 -14  23   28.40    7.10
  -1 -14  23    0.10    4.70
   0 -14  23    2.50    5.40
   1 -14  23   -3.10    4.70
   2 -14  23   40.50    7.20
  -2 -14 -23   41.70    5.60
  -3 -14 -23   -0.80    3.60
   3 -14  23   -1.60    4.60
 -11   0  24    2.90    4.50
 -10   0  24   39.60    6.40
  -9   0  24    4.90    4.10
  -8   0  24    2.20    3.80
  -7   0  24   82.59    7.70
  -6   0  24   59.29    6.70
   5   0 -24   11.70    3.90
  -5   0  24    9.40    4.00
  -4   0  24   19.80    4.40
  -3   0  24  346.27   14.90
  -2   0  24  109.49    7.90
  -1   0  24    5.10    3.50
   0   0  24 2501.95   74.59
   1   0  24    4.50    3.70
   2   0  24  123.49    8.80
   3   0  24  341.27   15.40
   4   0  24   11.80    4.50
   5   0  24    4.80    4.90
   6   0  24   54.99    7.30
   7   0  24   73.69    8.40
   8   0  24    7.30    4.70
   9   0  24   -0.20    4.30
  10   0  24   36.70    7.90
  11   0  24    2.90    5.00
  12   0  24   93.09   10.90
 -12  -1  24   41.30    7.10
 -11  -1  24   12.70    5.00
 -11   1  24   12.10    4.80
 -10  -1  24   12.20    4.90
 -10   1  24    7.90    4.40
  -9  -1  24    2.60    4.00
  -9   1  24    0.20    3.60
  -8  -1  24    3.00    3.70
  -8   1  24    1.60    3.60
  -7  -1  24   10.90    4.20
  -7   1  24    6.10    3.80
  -6  -1  24  109.39    8.80
  -6   1  24  137.09    8.80
   5  -1 -24  188.68   10.00
  -5  -1  24  195.78   10.80
  -5   1  24  198.08   10.50
   4  -1 -24   86.79    7.40
  -4  -1  24   82.89    7.70
  -4   1  24   93.79    7.50
  -3  -1  24   68.39    6.90
   3  -1 -24   71.49    6.40
  -3   1  24   70.49    6.60
  -2  -1  24   16.10    4.40
   2  -1 -24   22.00    4.20
  -2   1  24   16.00    4.00
  -1  -1  24  101.89    8.10
  -1   1  24  130.59    8.70
   0  -1  24    3.40    3.70
   0   1  24    0.70    3.30
   1  -1  24   84.79    8.00
   1   1  24  114.29    8.10
   2  -1  24   22.70    4.90
   2   1  24   18.70    4.80
   3  -1  24   78.69    7.80
   3   1  24   83.49    8.00
   4  -1  24   80.19    8.20
   4   1  24   96.39    8.70
   5  -1  24  216.08   12.20
   5   1  24  204.68   12.00
   6  -1  24  116.09    9.40
   6   1  24  128.79    9.80
   7  -1  24    8.40    4.70
   7   1  24   12.40    5.20
   8  -1  24    1.20    4.80
   8   1  24   -3.00    4.00
   9  -1  24   -1.10    4.00
   9   1  24   -7.20    3.60
  10  -1  24   21.50    6.00
  10   1  24   15.60    5.70
  11  -1  24    9.80    6.10
  11   1  24   16.90    6.20
  12  -1  24   35.00    7.50
 -12  -1 -24   31.50    8.30
  12   1  24   36.20    7.50
 -12  -2  24    4.10    4.80
 -11  -2  24   11.50    4.90
 -10  -2  24   10.00    5.30
 -10   2  24   10.10    4.20
  -9  -2  24    0.70    3.90
  -9   2  24    8.30    4.00
  -8  -2  24    2.60    3.90
  -8   2  24    3.70    3.20
  -7  -2  24    2.00    3.90
  -7   2  24    1.40    3.40
  -6  -2  24   10.90    4.50
  -6   2  24    1.00    2.90
  -5  -2  24   27.90    5.20
   5  -2 -24   20.30    4.00
  -5   2  24   21.10    4.40
   4  -2 -24  274.77   12.00
  -4  -2  24  268.77   12.90
  -4   2  24  248.38   12.00
  -3  -2  24  306.47   14.00
   3  -2 -24  294.17   12.90
  -3   2  24  305.37   13.20
  -2  -2  24   -3.20    3.40
   2  -2 -24    1.80    3.10
  -2   2  24    2.30    3.00
   1  -2 -24  110.49    7.50
  -1  -2  24  106.79    8.20
  -1   2  24   94.09    7.20
   0  -2  24  164.78   10.00
   0   2  24  161.38    9.40
   1  -2  24  104.69    8.20
   1   2  24  112.79    8.10
   2  -2  24    2.50    3.80
   2   2  24   -0.80    3.40
   3  -2  24  308.67   14.60
   3   2  24  295.97   14.10
   4  -2  24  252.47   13.30
   4   2  24  262.17   13.60
   5  -2  24   18.60    5.10
   5   2  24   22.20    5.50
   6  -2  24    0.10    3.90
   6   2  24    6.90    4.60
   7  -2  24    2.50    4.20
   7   2  24    1.90    4.60
   8  -2  24   -1.00    4.20
   8   2  24   -2.10    4.30
   9  -2  24   -0.90    4.10
   9   2  24    4.30    4.90
  10  -2  24   13.30    5.40
  10   2  24    9.20    5.30
  11  -2  24   12.60    6.40
 -11  -2 -24    9.90    6.30
  11   2  24    8.50    5.80
 -12  -2 -24    4.50    6.10
  12  -2  24    3.70    6.00
  12   2  24   -8.70    5.40
 -11  -3  24   14.40    5.90
 -10  -3  24    4.00    4.60
  -9  -3  24   28.30    5.80
  -9   3  24   25.70    4.90
  -8  -3  24   14.50    4.80
  -8   3  24   20.90    4.30
  -7  -3  24   -8.60    3.20
  -7   3  24    1.80    3.10
  -6  -3  24  487.85   19.80
  -6   3  24  470.55   18.10
  -5  -3  24   -0.90    4.10
  -5   3  24    1.00    3.00
   4  -3 -24  103.99    7.30
  -4  -3  24  129.69    9.10
  -4   3  24  133.99    8.10
  -3  -3  24   58.59    7.00
   3  -3 -24   70.29    6.20
  -3   3  24   73.79    6.60
   2  -3 -24   76.19    6.70
  -2  -3  24   68.79    7.50
  -2   3  24   69.99    6.60
  -1  -3  24   43.80    6.10
   1  -3 -24   37.50    5.20
  -1   3  24   36.20    5.10
   0  -3 -24   -0.50    2.70
   0  -3  24    1.30    3.70
   0   3  24   -0.80    2.90
   1  -3  24   33.90    5.70
   1   3  24   41.80    5.70
   2  -3  24   60.49    7.30
   2   3  24   67.79    7.00
   3  -3  24   61.39    7.10
   3   3  24   52.59    6.60
   4  -3  24  139.69    9.80
   4   3  24  120.79    9.20
   5  -3  24    5.00    4.30
   5   3  24    0.50    4.50
   6  -3  24  513.95   21.00
   6   3  24  489.15   20.90
   7  -3  24    0.50    4.00
   7   3  24    1.00    4.10
   8  -3  24   19.10    5.80
   8   3  24   25.80    6.30
   9  -3  24   26.30    6.50
   9   3  24   26.10    6.60
  10  -3  24    4.90    5.00
  10   3  24    0.30    4.90
  11  -3  24   16.10    6.30
 -11  -3 -24    9.90    6.50
  11   3  24   23.30    6.70
 -11  -4  24   12.20    6.10
 -10  -4  24   48.50    7.70
  -9  -4  24   23.50    5.90
  -8  -4  24    3.60    4.60
  -8   4  24    3.40    3.30
  -7  -4  24   79.29    8.40
  -7   4  24   66.59    6.30
  -6  -4  24   65.19    7.60
  -6   4  24   63.79    6.10
  -5  -4  24   86.89    8.90
  -5   4  24   82.39    6.50
   4  -4 -24   22.00    3.80
  -4  -4  24   19.70    5.10
  -4   4  24   15.10    4.00
   3  -4 -24   46.30    5.20
  -3  -4  24   51.09    6.80
  -3   4  24   42.20    5.30
  -2  -4  24  480.15   19.50
   2  -4 -24  476.65   17.60
  -2   4  24  478.55   18.10
   1  -4 -24   88.59    7.00
  -1  -4  24  103.69    8.40
  -1   4  24   96.99    7.40
   0  -4  24    4.10    4.00
   0  -4 -24    3.30    3.30
   0   4  24    7.30    3.80
   1  -4  24   74.59    7.80
   1   4  24   73.79    7.10
   2  -4  24  450.95   18.70
   2   4  24  449.16   18.30
   3  -4  24   34.40    5.90
   3   4  24   43.80    6.50
   4  -4  24   15.00    4.90
   4   4  24   24.90    5.20
   5  -4  24   80.89    8.30
   5   4  24   87.89    8.90
   6  -4  24   54.79    7.20
   6   4  24   57.79    7.50
   7  -4  24   56.29    7.80
   7   4  24   87.59    9.40
   8  -4  24   -1.40    3.90
   8   4  24    4.50    5.00
  -9  -4 -24   15.70    6.00
   9  -4  24    6.50    4.50
   9   4  24   20.80    6.30
 -10  -4 -24   34.50    7.60
  10  -4  24   34.20    6.80
  10   4  24   34.70    7.80
 -11  -4 -24   11.40    7.00
  11  -4  24   22.70    6.10
  11   4  24   27.50    8.30
 -11  -5  24    0.50    4.90
 -10  -5  24   -6.80    4.80
  -9  -5  24    2.70    5.10
  -8  -5  24    5.80    4.80
  -8   5  24   12.70    3.70
  -7  -5  24    7.50    4.50
  -7   5  24    7.30    3.20
  -6  -5  24   90.29    9.30
  -6   5  24   91.69    6.90
  -5  -5  24    2.90    4.10
  -5   5  24   -3.70    2.50
  -4  -5  24    4.20    4.20
  -4   5  24    1.70    3.10
   3  -5 -24   -4.80    2.10
  -3  -5  24   -3.40    3.70
  -3   5  24    2.70    2.90
   2  -5 -24  267.77   11.50
  -2  -5  24  285.17   13.90
  -2   5  24  250.07   11.80
  -1  -5  24   24.30    5.40
   1  -5 -24   13.60    3.90
  -1   5  24   29.80    4.70
   0  -5  24   -0.50    4.10
   0  -5 -24   -1.50    2.60
   0   5  24   -3.00    3.20
  -1  -5 -24   16.60    4.40
   1  -5  24   15.80    4.90
   1   5  24   19.70    4.80
   2  -5  24  252.47   13.30
   2   5  24  261.97   12.90
   3  -5  24   -4.70    3.30
   3   5  24   10.50    4.20
   4  -5  24    3.20    4.10
   4   5  24   11.40    4.50
   5  -5  24    8.50    4.30
   5   5  24   -3.50    3.60
   6  -5  24  102.69    9.40
   6   5  24  100.69    9.70
   7  -5  24   -1.10    3.80
   7   5  24    5.60    4.70
  -8  -5 -24    7.90    5.20
   8  -5  24    8.90    4.70
   8   5  24   14.90    5.60
  -9  -5 -24   -2.00    5.20
   9  -5  24    2.20    4.80
   9   5  24   -3.50    4.70
 -10  -5 -24   -5.40    4.90
  10  -5  24   -4.90    4.70
  10   5  24    3.80    6.00
 -11  -5 -24    4.10    5.80
  11  -5  24    1.90    4.50
  11   5  24   -0.40    4.90
 -11  -6  24   17.90    6.40
 -10  -6  24   94.39   10.80
  -9  -6  24   -9.50    3.70
  -8  -6  24   58.19    8.40
  -7  -6  24   16.00    5.50
  -7   6  24   16.20    3.80
  -6  -6  24   73.19    8.50
  -6   6  24   72.79    6.10
  -5  -6  24  161.88   11.20
  -5   6  24  173.78    9.00
  -4  -6  24    5.30    4.50
  -4   6  24    5.40    3.30
  -3  -6  24   54.79    7.50
  -3   6  24   63.49    6.00
   2  -6 -24  261.97   12.10
  -2  -6  24  290.77   14.30
  -2   6  24  274.97   12.20
   1  -6 -24  282.67   12.20
  -1  -6  24  284.07   14.40
  -1   6  24  298.17   13.00
   0  -6  24  947.11   32.20
   0  -6 -24  877.41   29.70
   0   6  24  905.51   30.30
   1  -6  24  298.17   14.60
  -1  -6 -24  274.47   12.90
   1   6  24  303.97   13.70
   2  -6  24  307.17   14.90
   2   6  24  304.87   14.00
   3  -6  24   58.09    7.30
   3   6  24   60.69    7.20
   4  -6  24    7.40    4.60
   4   6  24    1.10    3.80
   5  -6  24  161.98   10.70
   5   6  24  163.28   10.90
   6  -6  24   78.79    8.70
  -6  -6 -24   81.29    9.20
   6   6  24   78.39    9.00
  -7  -6 -24   18.30    6.10
   7  -6  24   27.60    5.90
   7   6  24   11.60    5.30
  -8  -6 -24   44.50    7.50
   8  -6  24   46.50    7.00
   8   6  24   52.59    8.20
  -9  -6 -24    0.00    4.90
   9  -6  24   -6.60    3.40
   9   6  24    3.10    5.20
  10  -6  24   74.89    9.20
 -10  -6 -24   82.59   11.00
  10   6  24   78.39   10.40
  11  -6  24   16.30    6.10
  11   6  24   18.00    6.80
 -10  -7  24   60.29    9.00
  -9  -7  24   11.30    5.70
  -8  -7  24   40.40    7.40
  -7  -7  24    1.30    4.50
  -6  -7  24  164.08   11.60
  -6   7  24  146.99    8.10
  -5  -7  24    6.10    4.80
   5  -7 -24    6.60    1.50
  -5   7  24    5.60    3.00
  -4  -7  24  118.19    9.90
  -4   7  24  118.79    7.20
  -3  -7  24   28.80    6.00
  -3   7  24   32.60    4.80
  -2  -7  24   40.10    6.40
  -2   7  24   42.50    5.20
  -1  -7  24   57.79    7.60
  -1   7  24   46.90    5.70
   0  -7  24    2.00    4.20
   0   7  24    6.90    3.70
   1  -7  24   52.69    7.10
   1   7  24   59.09    6.40
   2  -7  24   43.20    6.90
   2   7  24   40.10    6.00
   3  -7  24   40.90    6.70
   3   7  24   32.00    5.90
  -4  -7 -24  133.79    9.80
   4  -7  24  141.59   10.50
   4   7  24  114.79    9.10
  -5  -7 -24    8.60    5.00
   5  -7  24   10.40    4.70
   5   7  24    6.30    4.30
   6  -7  24  153.18   11.00
  -6  -7 -24  135.39   10.60
   6   7  24  158.88   11.70
   7  -7  24    7.80    4.80
  -7  -7 -24   -3.30    4.80
   7   7  24    2.20    4.50
  -8  -7 -24   49.20    8.00
   8  -7  24   32.20    6.20
   8   7  24   38.40    7.50
  -9  -7 -24    8.00    5.60
   9  -7  24   12.20    4.90
   9   7  24    5.80    5.70
  10  -7  24   62.49    8.30
 -10  -7 -24   42.70    8.30
  10   7  24   46.90    8.70
 -10  -8  24   -3.80    5.70
  -9  -8  24   34.30    7.70
  -8  -8  24   12.80    5.90
  -7  -8  24   30.40    6.90
  -6  -8  24   28.00    7.00
  -5  -8  24    6.90    4.80
  -5   8  24   -0.50    2.60
  -4  -8  24  176.28   11.80
   4  -8 -24  157.98    5.70
  -4   8  24  154.98    8.50
  -3  -8  24   10.20    5.00
   3  -8 -24    5.10    2.20
  -3   8  24    1.90    2.90
   2  -8 -24   85.39    5.80
  -2  -8  24   75.09    8.50
  -2   8  24   83.19    6.80
   1  -8 -24    7.30    3.20
  -1  -8  24   13.90    4.80
  -1   8  24   10.90    3.70
   0  -8  24    9.20    4.70
   0  -8 -24   19.40    4.20
   0   8  24   16.40    4.00
   1  -8  24   16.70    5.20
  -1  -8 -24   12.50    4.20
   1   8  24    7.90    4.10
  -2  -8 -24   81.99    7.80
   2  -8  24   99.19    9.50
   2   8  24   85.69    8.00
  -3  -8 -24    6.50    4.30
   3  -8  24    1.80    4.20
   3   8  24    5.00    4.50
  -4  -8 -24  175.48   11.20
   4  -8  24  146.09   10.50
   4   8  24  170.28   10.80
  -5  -8 -24    2.60    4.60
   5  -8  24    0.50    4.40
   5   8  24    4.80    4.30
   6  -8  24   31.20    6.20
  -6  -8 -24   29.50    6.50
   6   8  24   30.20    6.30
   7  -8  24   42.30    7.20
  -7  -8 -24   33.50    6.70
   7   8  24   35.20    7.40
   8  -8  24   11.20    5.00
  -8  -8 -24    7.90    5.90
   8   8  24   15.10    5.70
   9  -8  24   37.80    7.20
  -9  -8 -24   28.20    7.20
   9   8  24   32.50    7.50
  10  -8  24   -3.60    4.00
  10   8  24   -3.30    5.00
  -9  -9  24    1.00    5.60
  -8  -9  24   28.30    7.70
  -7  -9  24   -0.50    5.50
  -6  -9  24  124.49   11.50
  -5  -9  24   24.80    6.90
  -4  -9  24  391.96   18.80
   3  -9 -24   32.20    2.70
  -3  -9  24   36.70    7.30
  -3   9  24   41.80    5.10
  -2  -9  24    0.80    4.50
   2  -9 -24    1.60    2.30
  -2   9  24    3.20    3.00
   1  -9 -24   85.89    6.00
  -1  -9  24   79.49    9.10
  -1   9  24   70.49    6.80
   0  -9  24    0.30    4.50
   0  -9 -24   -0.30    2.90
   0   9  24    2.60    3.40
   1  -9  24   57.89    7.70
  -1  -9 -24   73.99    6.80
   1   9  24   91.69    8.10
  -2  -9 -24   13.10    4.30
   2  -9  24    5.80    5.00
   2   9  24    0.90    3.90
   3  -9  24   38.60    6.60
  -3  -9 -24   33.90    5.80
   3   9  24   32.70    5.70
  -4  -9 -24  406.26   18.50
   4  -9  24  443.46   19.40
   4   9  24  422.56   18.90
  -5  -9 -24   31.60    6.10
   5  -9  24   21.50    5.40
   5   9  24   26.30    6.00
   6  -9  24  123.29   10.20
  -6  -9 -24  105.69   10.20
   6   9  24  113.69   10.80
   7  -9  24    2.40    4.40
  -7  -9 -24   13.20    5.60
   7   9  24   -1.20    5.20
   8  -9  24   25.40    6.10
  -8  -9 -24   28.50    6.70
   8   9  24   19.50    6.40
  -9  -9 -24   -2.80    4.70
   9  -9  24   -1.80    4.50
   9   9  24   -8.00    4.80
  -8 -10  24   21.50    6.90
  -7 -10  24   47.10    8.60
  -6 -10  24   29.00    7.20
  -5 -10  24   12.10    5.60
  -4 -10  24   25.00    6.40
  -3 -10  24   18.60    6.00
   2 -10 -24   41.90    3.70
  -2 -10  24   43.00    7.60
  -2  10  24   48.20    5.50
  -1 -10  24  132.29   10.60
   1 -10 -24  148.59    7.60
  -1  10  24  155.68    9.20
   0 -10  24  111.39   10.40
   0 -10 -24  103.39    7.20
   0  10  24  102.29    7.90
   1 -10  24  170.68   11.30
  -1 -10 -24  150.58    8.90
   1  10  24  146.49    9.60
  -2 -10 -24   36.10    5.40
   2 -10  24   28.60    6.20
   2  10  24   33.90    6.00
  -3 -10 -24   17.40    5.00
   3 -10  24   22.20    5.50
   3  10  24   20.00    5.30
   4 -10  24   12.20    4.70
  -4 -10 -24   18.20    5.30
   4  10  24   15.60    5.20
  -5 -10 -24    6.20    5.10
   5 -10  24   16.60    5.70
   5  10  24    8.90    4.90
  -6 -10 -24   32.00    6.90
   6 -10  24   33.50    6.50
   6  10  24   34.20    6.60
   7 -10  24   49.70    7.40
  -7 -10 -24   49.99    8.30
   7  10  24   48.00    8.40
   8 -10  24   20.20    5.70
  -8 -10 -24    8.20    6.20
   8  10  24   17.50    6.90
  -7 -11  24    1.00    5.40
  -6 -11  24    0.20    5.90
  -5 -11  24    2.40    5.00
  -4 -11  24   14.70    6.40
  -3 -11  24   27.90    6.60
  -2 -11  24   -6.70    4.40
  -1 -11  24    3.40    5.10
   1 -11 -24    4.60    2.40
  -1  11  24   10.10    3.70
   0 -11 -24    0.80    2.80
   0 -11  24    7.00    4.70
   0  11  24    1.40    3.50
   1 -11  24    8.10    5.50
  -1 -11 -24    1.80    3.20
   1  11  24   -0.30    3.50
   2 -11  24   -1.30    4.70
  -2 -11 -24   -2.70    3.40
   2  11  24    0.60    4.10
   3 -11  24   28.10    6.10
  -3 -11 -24   31.10    5.60
   3  11  24   12.70    5.10
  -4 -11 -24   22.00    5.50
   4 -11  24    5.60    5.00
   4  11  24   25.10    5.70
  -5 -11 -24    1.40    3.90
   5 -11  24   -0.50    4.20
   5  11  24   -2.50    3.90
   6 -11  24   -5.30    4.40
  -6 -11 -24    8.50    5.20
   6  11  24    1.70    5.30
  -7 -11 -24   -6.30    4.90
   7 -11  24    4.10    4.90
   7  11  24    7.20    5.40
  -6 -12  24   25.20    7.20
  -5 -12  24    6.80    5.60
  -4 -12  24   12.00    5.90
  -3 -12  24   54.89    8.70
  -2 -12  24   -3.30    4.90
  -1 -12  24   -2.00    5.00
   0 -12  24  235.38   13.90
   0 -12 -24  212.78    9.80
  -1 -12 -24    6.20    3.50
   1 -12  24    8.90    5.50
   1  12  24    3.10    3.80
  -2 -12 -24   -3.70    3.40
   2 -12  24   -2.50    4.60
   2  12  24   -1.00    4.00
  -3 -12 -24   53.69    6.90
   3 -12  24   70.79    8.60
   3  12  24   63.39    8.00
   4 -12  24   24.00    5.70
  -4 -12 -24   17.60    5.30
   4  12  24   34.20    7.00
   5 -12  24   -2.30    4.60
  -5 -12 -24    0.80    4.60
   5  12  24   -0.50    4.90
  -6 -12 -24   27.00    6.70
   6 -12  24   28.50    6.40
  -4 -13  24   80.09   10.30
  -3 -13  24   -4.60    4.40
  -2 -13  24    5.30    5.20
  -1 -13  24   25.60    6.80
   0 -13  24    1.20    5.30
   1 -13  24   27.70    6.90
  -1 -13 -24   27.40    4.50
  -2 -13 -24    9.60    4.00
   2 -13  24    6.00    5.30
   3 -13  24    1.70    4.50
  -3 -13 -24    6.50    4.30
   3  13  24    3.60    4.80
   4 -13  24   74.49    8.90
  -4 -13 -24   65.29    8.00
  -1 -14  24   10.00    5.70
   0 -14  24   -0.40    4.80
   1 -14  24    6.00    5.70
 -11   0  25    6.70    4.60
 -10   0  25   -4.00    3.90
  -9   0  25   -1.40    3.70
  -8   0  25    3.30    3.80
  -7   0  25    2.90    3.30
  -6   0  25    1.50    3.80
  -5   0  25    1.10    3.30
  -4   0  25   -2.30    3.10
  -3   0  25    0.50    3.30
  -2   0  25    0.10    3.30
  -1   0  25    0.00    3.30
   0   0  25   22.40    4.70
   1   0  25    0.50    3.40
   2   0  25    0.60    3.60
   3   0  25    2.40    4.00
   4   0  25   -0.10    3.80
   5   0  25    0.00    4.00
   6   0  25    4.40    4.30
   7   0  25   -0.70    4.20
   8   0  25   -9.20    3.50
   9   0  25   -1.60    4.30
  10   0  25   -2.60    5.20
  11   0  25    2.10    5.10
 -11  -1  25   -0.60    4.00
 -10  -1  25   17.90    5.00
 -10   1  25   16.40    5.00
  -9  -1  25   -0.10    4.10
  -9   1  25   -0.60    3.50
  -8  -1  25   17.40    4.70
  -8   1  25    3.50    3.80
  -7  -1  25   37.60    5.80
  -7   1  25   36.50    5.70
  -6  -1  25   71.59    7.70
  -6   1  25   82.09    7.60
   5  -1 -25    0.90    3.10
  -5  -1  25    8.90    4.50
  -5   1  25    6.10    3.70
   4  -1 -25  145.99    9.00
  -4  -1  25  164.88    9.80
  -4   1  25  158.18    9.60
  -3  -1  25  388.96   16.20
   3  -1 -25  365.56   15.40
  -3   1  25  374.16   15.60
  -2  -1  25   90.19    8.10
  -2   1  25   84.59    7.70
  -1  -1  25  223.48   11.80
  -1   1  25  230.88   11.60
   0  -1  25    2.20    3.80
   0   1  25    4.40    4.20
   1  -1  25  234.38   12.10
   1   1  25  216.08   11.70
   2  -1  25   98.19    8.10
   2   1  25  103.99    8.30
   3  -1  25  398.46   17.20
   3   1  25  380.06   16.90
   4  -1  25  141.19   10.30
   4   1  25  157.98   10.80
   5  -1  25    3.50    4.20
   5   1  25    7.50    4.40
   6  -1  25   69.59    8.50
   6   1  25   65.59    7.90
   7  -1  25   41.20    6.80
   7   1  25   42.70    7.10
   8  -1  25    0.40    4.80
   8   1  25   11.40    5.10
   9  -1  25    3.20    4.60
   9   1  25    9.40    5.30
  10  -1  25   16.30    6.20
  10   1  25    7.60    6.00
  11  -1  25    4.60    5.70
  11   1  25   -0.20    5.40
 -11  -2  25    6.20    4.70
 -10  -2  25   12.90    5.50
 -10   2  25    7.90    4.20
  -9  -2  25  150.48   10.50
  -9   2  25  143.49    9.70
  -8  -2  25    4.80    4.10
  -8   2  25    9.40    3.80
  -7  -2  25  306.17   14.80
  -7   2  25  303.97   13.80
  -6  -2  25   33.40    5.80
  -6   2  25   26.60    4.80
  -5  -2  25   71.49    7.70
  -5   2  25   86.59    7.20
   4  -2 -25  179.78    9.60
  -4  -2  25  174.28   11.00
  -4   2  25  180.98   10.10
  -3  -2  25   14.70    4.60
   3  -2 -25   14.40    3.90
  -3   2  25   16.60    4.40
   2  -2 -25   39.10    5.30
  -2  -2  25   37.40    5.90
  -2   2  25   29.30    4.80
  -1  -2  25   82.89    7.90
  -1   2  25   68.29    6.80
   0  -2  25    2.50    3.80
   0   2  25   -0.70    3.20
   1  -2  25   68.69    7.40
   1   2  25   75.99    7.30
   2  -2  25   39.50    6.20
   2   2  25   36.40    5.80
   3  -2  25   14.00    4.90
   3   2  25   16.00    4.70
   4  -2  25  186.68   11.20
   4   2  25  164.68   10.70
   5  -2  25   82.49    8.50
   5   2  25   77.79    8.30
   6  -2  25   31.40    6.20
   6   2  25   40.30    6.60
   7  -2  25  306.77   15.80
   7   2  25  332.87   16.40
   8  -2  25    1.10    4.60
   8   2  25    8.30    5.20
   9  -2  25  154.68   11.50
   9   2  25  157.08   11.90
  10  -2  25   -3.40    4.40
  10   2  25   16.40    6.50
  11  -2  25   11.90    5.70
  11   2  25   11.20    6.30
 -11  -3  25   69.89    9.10
 -10  -3  25   77.49    8.90
  -9  -3  25    6.30    4.50
  -9   3  25    2.40    3.50
  -8  -3  25    6.50    4.50
  -8   3  25    2.20    3.40
  -7  -3  25   31.60    6.10
  -7   3  25   24.20    4.70
  -6  -3  25  260.57   13.80
  -6   3  25  248.28   11.90
  -5  -3  25   16.10    4.80
  -5   3  25   13.80    3.80
   4  -3 -25   67.79    6.30
  -4  -3  25   54.89    6.90
  -4   3  25   60.69    6.10
   3  -3 -25   -3.20    2.70
  -3  -3  25    0.10    4.00
  -3   3  25    2.60    3.40
   2  -3 -25   35.90    5.10
  -2  -3  25   48.50    6.50
  -2   3  25   37.50    5.10
   1  -3 -25    1.90    3.10
  -1  -3  25    7.20    4.10
  -1   3  25    9.50    3.70
   0  -3  25    1.00    4.10
   0   3  25    2.10    3.30
   1  -3  25    2.20    4.00
   1   3  25    7.20    4.20
   2  -3  25   34.80    5.90
   2   3  25   35.10    5.70
   3  -3  25    3.30    4.20
   3   3  25   -0.60    3.60
   4  -3  25   57.09    7.60
   4   3  25   53.39    6.90
   5  -3  25   14.00    4.90
   5   3  25   17.70    5.30
   6  -3  25  229.08   13.20
   6   3  25  247.78   13.70
   7  -3  25   21.00    6.10
   7   3  25   13.50    5.30
   8  -3  25   -0.80    4.70
   8   3  25   14.90    5.50
   9  -3  25    5.20    5.40
   9   3  25    5.60    5.10
  10  -3  25   86.99    9.80
  10   3  25   71.29    9.90
  11  -3  25   43.80    8.50
 -11  -3 -25   53.89    9.50
  11   3  25   75.29   10.10
 -11  -4  25    1.80    5.40
 -10  -4  25   -3.20    4.10
  -9  -4  25   94.39    9.90
  -8  -4  25   12.20    5.10
  -8   4  25    8.30    3.70
  -7  -4  25   97.89    9.50
  -7   4  25  121.09    8.10
  -6  -4  25    9.80    4.40
  -6   4  25    1.00    2.90
  -5  -4  25   13.70    5.00
  -5   4  25   13.70    3.90
  -4  -4  25  130.29    9.70
  -4   4  25  142.79    8.20
  -3  -4  25   58.49    7.20
   3  -4 -25   53.39    5.60
  -3   4  25   55.69    6.10
  -2  -4  25   -3.70    3.60
   2  -4 -25    0.30    2.90
  -2   4  25    4.50    3.20
  -1  -4  25   21.00    5.50
   1  -4 -25   22.40    4.30
  -1   4  25   22.20    4.60
   0  -4 -25   35.20    5.20
   0  -4  25   37.50    6.10
   0   4  25   35.80    5.40
   1  -4  25   21.80    5.20
   1   4  25   18.40    4.60
   2  -4  25   -6.00    3.30
   2   4  25   -3.40    3.20
   3  -4  25   56.29    7.40
   3   4  25   54.49    6.80
   4  -4  25  144.29   10.00
   4   4  25  134.99    9.70
   5  -4  25    3.70    4.10
   5   4  25    7.00    4.30
   6  -4  25    0.30    4.40
   6   4  25    5.00    4.40
   7  -4  25  113.79    9.60
   7   4  25  126.79   10.40
   8  -4  25    5.80    4.60
   8   4  25    6.70    5.30
   9  -4  25   99.89   10.00
   9   4  25   91.79   10.50
  10  -4  25   -4.70    4.20
 -10  -4 -25  -10.00    5.50
  10   4  25   10.40    5.80
 -11  -4 -25    4.30    6.20
  11  -4  25    4.10    5.60
  11   4  25    2.20    5.50
 -11  -5  25   83.39   10.10
 -10  -5  25   14.20    5.90
  -9  -5  25    5.40    5.00
  -8  -5  25   -3.10    4.20
  -7  -5  25  120.79   10.20
  -7   5  25  132.79    8.30
  -6  -5  25   10.90    5.30
  -6   5  25   13.70    3.90
  -5  -5  25  274.77   14.70
  -5   5  25  265.37   12.00
  -4  -5  25    2.80    4.40
  -4   5  25    5.90    3.10
  -3  -5  25  149.79   10.30
  -3   5  25  120.39    8.00
   2  -5 -25   98.29    7.30
  -2  -5  25  109.59    9.00
  -2   5  25  111.79    7.70
   1  -5 -25  141.79    8.60
  -1  -5  25  149.09   10.30
  -1   5  25  161.78    9.30
   0  -5 -25   -2.00    3.00
   0  -5  25   -2.50    3.80
   0   5  25   -2.40    3.30
   1  -5  25  144.69   10.10
   1   5  25  158.98    9.80
   2  -5  25  100.19    9.20
   2   5  25  104.19    8.10
   3  -5  25  139.69    9.90
   3   5  25  133.89    9.30
   4  -5  25   -2.20    3.60
   4   5  25    7.10    4.30
   5  -5  25  270.47   14.20
   5   5  25  262.17   14.10
   6  -5  25   11.90    4.90
   6   5  25   17.50    5.60
   7  -5  25  134.29   11.50
   7   5  25  130.09   11.80
   8  -5  25    6.70    4.60
  -8  -5 -25    7.60    5.40
   8   5  25    8.10    6.00
  -9  -5 -25   11.00    5.80
   9  -5  25    8.80    5.30
   9   5  25    1.00    5.90
  10  -5  25   16.60    6.10
 -10  -5 -25    1.40    6.40
  10   5  25   19.50    6.80
  11  -5  25   94.19   10.70
 -11  -5 -25  109.09   12.00
  11   5  25  104.69   11.90
 -10  -6  25   -0.50    5.10
  -9  -6  25   -3.10    4.40
  -8  -6  25   13.40    6.10
  -7  -6  25   44.10    7.40
  -6  -6  25    5.50    4.60
  -6   6  25    7.20    3.30
  -5  -6  25   32.90    6.70
  -5   6  25   27.50    4.60
  -4  -6  25   19.60    5.80
  -4   6  25   15.90    4.00
  -3  -6  25  147.49   10.50
  -3   6  25  146.99    8.50
  -2  -6  25   -2.60    4.10
  -2   6  25    0.70    2.80
  -1  -6  25   16.90    5.10
  -1   6  25   14.40    4.10
   0  -6  25  232.88   13.20
   0   6  25  209.98   11.00
   1  -6  25   17.40    5.20
  -1  -6 -25   18.50    4.70
   1   6  25   18.00    4.50
   2  -6  25    4.00    4.10
   2   6  25    6.20    3.90
   3  -6  25  146.99   10.40
   3   6  25  166.58   10.60
   4  -6  25   13.20    4.90
   4   6  25   14.10    4.80
   5  -6  25   31.90    6.20
   5   6  25   32.70    6.20
   6  -6  25   14.50    5.10
   6   6  25    5.40    4.60
  -7  -6 -25   31.60    6.90
   7  -6  25   35.70    7.00
   7   6  25   36.70    7.10
   8  -6  25   14.40    5.70
  -8  -6 -25   16.30    5.80
   8   6  25   22.80    6.80
   9  -6  25    3.40    4.60
  -9  -6 -25    1.20    5.30
   9   6  25    1.80    5.20
 -10  -6 -25   -2.60    5.70
  10  -6  25    2.40    5.20
  10   6  25    1.60    5.90
 -10  -7  25   33.30    7.50
  -9  -7  25   12.80    5.90
  -8  -7  25    2.60    5.50
  -7  -7  25   31.00    6.90
  -6  -7  25   25.40    6.70
  -5  -7  25   27.70    6.30
   5  -7 -25   24.80    2.40
  -5   7  25   31.50    4.50
  -4  -7  25   32.50    6.40
  -4   7  25   30.10    4.60
  -3  -7  25   28.50    6.40
  -3   7  25   21.70    4.10
  -2  -7  25  247.48   13.80
  -2   7  25  252.17   11.70
  -1  -7  25   31.30    6.30
  -1   7  25   40.20    5.30
   0  -7  25    5.20    4.40
   0   7  25   -2.50    3.20
   1  -7  25   23.60    5.70
   1   7  25   27.00    5.00
   2  -7  25  242.08   13.30
   2   7  25  233.28   12.60
   3  -7  25   22.20    5.90
   3   7  25   22.40    5.30
   4  -7  25   27.00    5.80
  -4  -7 -25   39.30    6.20
   4   7  25   37.50    6.20
   5  -7  25   21.90    5.50
  -5  -7 -25   31.70    6.50
   5   7  25   26.40    5.80
   6  -7  25   28.00    6.10
  -6  -7 -25   31.90    6.50
   6   7  25   27.30    6.20
   7  -7  25   14.30    5.60
  -7  -7 -25   39.10    6.90
   7   7  25   31.20    6.90
   8  -7  25   -5.00    4.10
  -8  -7 -25    1.00    4.90
   8   7  25   -9.70    4.00
   9  -7  25    2.00    4.50
  -9  -7 -25    3.30    5.30
   9   7  25    8.90    5.50
 -10  -7 -25   31.00    7.40
  10  -7  25   45.40    7.40
  10   7  25   32.80    8.00
  -9  -8  25   54.49    9.40
  -8  -8  25    0.30    5.10
  -7  -8  25   16.10    6.00
  -6  -8  25    8.80    5.40
  -5  -8  25   69.49    8.80
   4  -8 -25   53.39    3.40
  -4  -8  25   58.49    8.10
  -4   8  25   64.49    6.00
   3  -8 -25  293.27   11.10
  -3  -8  25  309.27   15.80
  -3   8  25  298.87   12.90
  -2  -8  25  234.78   13.40
   2  -8 -25  220.78    9.80
  -2   8  25  217.08   10.80
  -1  -8  25  136.39   10.50
   1  -8 -25  131.09    7.80
  -1   8  25  129.39    8.40
   0  -8  25   50.09    7.20
   0  -8 -25   63.69    6.30
   0   8  25   54.89    6.30
   1  -8  25  142.99   10.30
  -1  -8 -25  135.99    8.80
   1   8  25  132.69    9.30
  -2  -8 -25  211.08   11.70
   2  -8  25  226.48   12.90
   2   8  25  216.98   11.80
  -3  -8 -25  298.57   14.70
   3  -8  25  337.07   16.20
   3   8  25  329.57   15.70
  -4  -8 -25   79.79    8.20
   4  -8  25   50.89    7.40
   4   8  25   63.99    7.90
   5  -8  25   68.49    8.20
  -5  -8 -25   65.29    8.20
   5   8  25   68.99    8.50
  -6  -8 -25   -2.60    4.00
   6  -8  25    2.60    4.20
   6   8  25   -1.80    4.70
  -7  -8 -25   11.50    5.50
   7  -8  25    8.70    5.20
   7   8  25   19.00    5.70
  -8  -8 -25    8.20    5.70
   8  -8  25   -1.60    4.50
   8   8  25    2.80    5.00
  -9  -8 -25   52.29    8.50
   9  -8  25   52.19    8.00
   9   8  25   50.09    8.50
  -8  -9  25   79.19   10.30
  -7  -9  25   -5.30    5.10
  -6  -9  25    8.90    5.70
  -5  -9  25    1.20    5.30
  -4  -9  25    1.00    5.40
   3  -9 -25   71.39    4.20
  -3  -9  25   74.99    8.80
  -3   9  25   67.69    6.40
   2  -9 -25   61.69    4.90
  -2  -9  25   69.79    8.50
  -2   9  25   54.49    6.10
  -1  -9  25   47.80    7.30
   1  -9 -25   53.59    5.40
  -1   9  25   48.70    5.90
   0  -9  25    4.30    4.50
   0  -9 -25    3.20    3.00
   0   9  25    5.20    3.60
   1  -9  25   47.00    7.10
  -1  -9 -25   48.30    5.90
   1   9  25   32.40    5.40
  -2  -9 -25   77.69    7.70
   2  -9  25   67.59    8.30
   2   9  25   70.39    7.50
   3  -9  25   73.89    8.80
  -3  -9 -25   62.59    7.30
   3   9  25   67.39    8.10
   4  -9  25    6.60    4.60
  -4  -9 -25    1.60    3.70
   4   9  25   12.50    4.60
  -5  -9 -25    0.40    4.40
   5  -9  25   -5.00    3.70
   5   9  25    1.40    4.50
  -6  -9 -25   11.70    5.50
   6  -9  25    9.90    5.60
   6   9  25   11.90    5.40
   7  -9  25    5.80    5.00
  -7  -9 -25    6.20    4.90
   7   9  25   -2.40    4.50
  -8  -9 -25   69.59    9.40
   8  -9  25   87.49    9.40
   8   9  25   90.49   10.90
  -8 -10  25    7.70    6.10
  -7 -10  25   68.39    9.60
  -6 -10  25   14.80    6.20
  -5 -10  25    2.10    5.10
  -4 -10  25    0.50    4.70
  -3 -10  25    3.70    4.50
   2 -10 -25    2.80    2.10
  -2 -10  25    1.90    4.50
  -2  10  25    4.40    3.30
  -1 -10  25   -4.20    4.10
   1 -10 -25    1.50    2.60
  -1  10  25    0.80    3.20
   0 -10  25   44.50    7.10
   0 -10 -25   47.30    5.30
   0  10  25   46.70    6.10
  -1 -10 -25   -1.70    2.70
   1 -10  25   -0.80    4.30
   1  10  25    2.20    3.20
  -2 -10 -25    1.00    3.60
   2 -10  25   -1.10    4.10
   2  10  25    0.30    3.30
  -3 -10 -25    6.20    4.20
   3 -10  25   12.80    5.00
   3  10  25    2.20    4.30
   4 -10  25    3.70    4.40
  -4 -10 -25   -0.50    4.00
   4  10  25   -5.00    4.30
   5 -10  25   -0.50    4.10
  -5 -10 -25    1.20    4.00
   5  10  25   -0.80    4.50
  -6 -10 -25   11.70    5.70
   6 -10  25   14.60    5.60
   6  10  25   14.90    5.60
   7 -10  25   76.29    9.00
  -7 -10 -25   70.79    9.00
   7  10  25   61.89    9.10
   8 -10  25   23.40    6.40
  -8 -10 -25   29.20    7.50
   8  10  25   31.80    7.50
  -7 -11  25   23.80    7.10
  -6 -11  25   -5.50    5.50
  -5 -11  25   -3.40    5.60
  -4 -11  25    4.90    5.40
  -3 -11  25  259.17   15.40
  -2 -11  25   -5.00    4.10
   1 -11 -25   28.70    3.70
  -1 -11  25   30.70    7.20
   0 -11  25   -4.60    4.20
   0 -11 -25   -1.40    2.70
   0  11  25   -1.70    3.20
  -1 -11 -25   32.90    5.10
   1 -11  25   37.10    7.30
   1  11  25   32.60    5.80
   2 -11  25   -2.10    3.80
  -2 -11 -25   -0.80    3.40
   2  11  25   -4.80    3.10
  -3 -11 -25  294.37   14.50
   3 -11  25  324.37   16.60
   3  11  25  296.87   15.20
  -4 -11 -25   16.60    5.20
   4 -11  25    9.60    5.00
   4  11  25   12.70    5.20
  -5 -11 -25   -1.40    4.40
   5 -11  25   -0.50    4.50
   5  11  25    4.30    4.90
   6 -11  25    3.00    4.80
  -6 -11 -25    2.30    4.80
   6  11  25    2.20    4.80
  -7 -11 -25   29.00    7.30
   7 -11  25   21.70    6.10
   7  11  25   26.80    6.90
  -5 -12  25   17.70    6.70
  -4 -12  25    8.20    5.90
  -3 -12  25   41.00    7.90
  -2 -12  25   -3.90    4.30
  -1 -12  25    1.10    5.40
   0 -12  25    5.00    4.90
   0 -12 -25    0.20    2.70
   1 -12  25   -1.70    4.30
  -1 -12 -25   -0.80    3.00
   1  12  25    2.20    4.00
   2 -12  25    1.80    5.10
  -2 -12 -25   -2.80    3.40
   2  12  25   -1.60    3.80
   3 -12  25   34.20    6.80
  -3 -12 -25   46.70    6.50
   3  12  25   43.80    7.10
   4 -12  25    3.50    5.00
  -4 -12 -25    5.10    4.60
   4  12  25    2.50    4.20
  -5 -12 -25   15.10    5.60
   5 -12  25   22.60    6.30
   5  12  25    5.00    5.50
  -3 -13  25   21.00    7.30
  -2 -13  25   -2.40    5.40
  -1 -13  25   -5.40    4.20
   0 -13  25   -5.90    5.00
   1 -13  25    2.70    5.30
  -1 -13 -25    2.60    3.10
   2 -13  25    9.20    5.00
  -2 -13 -25   -0.20    3.50
  -3 -13 -25   25.80    5.50
   3 -13  25   20.80    6.30
   3  13  25   26.20    6.10
 -11   0  26   94.69    9.50
 -10   0  26   46.00    6.80
  -9   0  26   20.30    5.20
  -8   0  26   85.39    8.60
  -7   0  26  186.38   10.80
  -6   0  26   41.80    5.90
  -5   0  26  744.73   26.70
  -4   0  26    8.80    3.80
  -3   0  26    6.30    4.00
  -2   0  26   49.60    6.20
  -1   0  26    1.80    3.60
   0   0  26   10.20    4.10
   1   0  26    2.70    3.90
   2   0  26   34.70    5.90
   3   0  26    5.00    4.00
   4   0  26   15.80    5.10
   5   0  26  720.23   27.20
   6   0  26   43.80    6.90
   7   0  26  161.18   11.40
   8   0  26   78.59    9.20
   9   0  26   29.50    6.80
  10   0  26   30.40    6.90
  11   0  26   96.29   11.40
 -11  -1  26   77.89    8.90
 -10  -1  26    5.20    4.30
 -10   1  26    4.00    4.00
  -9  -1  26    2.00    4.50
  -9   1  26    3.80    3.70
  -8  -1  26   38.30    6.00
  -8   1  26   30.40    5.50
  -7  -1  26   54.39    6.90
  -7   1  26   65.49    7.20
  -6  -1  26   18.30    4.80
  -6   1  26   21.90    4.90
  -5  -1  26   52.99    6.60
  -5   1  26   48.80    6.30
   4  -1 -26   17.20    4.20
  -4  -1  26   30.20    5.60
  -4   1  26   15.70    4.50
  -3  -1  26   97.79    8.20
  -3   1  26  110.79    8.40
  -2  -1  26   60.29    6.90
  -2   1  26   50.99    6.50
  -1  -1  26  118.19    8.70
  -1   1  26  108.09    8.20
   0  -1  26   -0.60    3.60
   0   1  26   -4.40    3.10
   1  -1  26  117.09    9.00
   1   1  26  119.89    9.20
   2  -1  26   61.59    7.40
   2   1  26   62.29    7.10
   3  -1  26  110.99    9.00
   3   1  26  116.79    9.00
   4  -1  26   21.60    5.40
   4   1  26   21.60    5.40
   5  -1  26   65.09    8.10
   5   1  26   50.79    7.20
   6  -1  26   15.60    5.40
   6   1  26   18.80    5.40
   7  -1  26   59.89    8.20
   7   1  26   60.89    8.20
   8  -1  26   29.50    6.40
   8   1  26   34.20    6.90
   9  -1  26    4.20    4.60
   9   1  26    3.10    5.00
  10  -1  26   -4.20    5.30
  10   1  26   -2.40    5.40
  11  -1  26   76.09    9.90
  11   1  26   92.39   11.30
 -11  -2  26   35.10    7.20
 -10  -2  26   -0.70    4.60
  -9  -2  26   25.80    5.90
  -9   2  26   34.10    5.50
  -8  -2  26    6.60    4.30
  -8   2  26   -1.70    3.10
  -7  -2  26    7.30    4.40
  -7   2  26   10.40    4.20
  -6  -2  26   32.70    5.90
  -6   2  26   38.20    5.40
  -5  -2  26   33.50    5.70
  -5   2  26   46.20    5.90
  -4  -2  26   61.19    7.00
  -4   2  26   43.40    5.60
  -3  -2  26   66.99    7.30
   3  -2 -26   69.19    6.60
  -3   2  26   75.19    7.10
  -2  -2  26   58.49    6.90
  -2   2  26   53.09    6.30
  -1  -2  26   28.50    5.40
  -1   2  26   19.30    4.50
   0  -2  26   85.59    8.10
   0   2  26   81.79    7.70
   1  -2  26   21.50    5.20
   1   2  26   26.80    5.10
   2  -2  26   49.70    6.80
   2   2  26   63.79    7.20
   3  -2  26   46.10    6.20
   3   2  26   66.99    7.50
   4  -2  26   39.60    6.60
   4   2  26   55.39    7.20
   5  -2  26   41.50    6.70
   5   2  26   27.80    6.00
   6  -2  26   43.10    7.50
   6   2  26   31.10    6.40
   7  -2  26    8.20    4.70
   7   2  26   -2.50    4.20
   8  -2  26    7.50    4.60
   8   2  26    8.20    5.40
   9  -2  26   24.80    6.40
   9   2  26   22.00    6.50
  10  -2  26    1.60    4.90
  10   2  26    5.30    5.30
  11  -2  26   40.30    7.60
  11   2  26   17.20    7.20
 -11  -3  26   30.10    6.70
 -10  -3  26   21.00    6.10
  -9  -3  26   52.69    7.80
  -9   3  26   65.39    7.00
  -8  -3  26   -2.30    3.90
  -8   3  26    0.60    3.40
  -7  -3  26  188.18   12.00
  -7   3  26  158.58    9.70
  -6  -3  26   17.60    5.10
  -6   3  26   19.80    4.50
  -5  -3  26    9.30    4.90
  -5   3  26    2.10    3.30
  -4  -3  26  101.79    9.10
  -4   3  26   93.59    7.50
   3  -3 -26    2.90    3.30
  -3  -3  26    5.00    4.10
  -3   3  26    6.60    3.60
  -2  -3  26  146.09   10.00
   2  -3 -26  134.99    8.50
  -2   3  26  126.99    8.70
  -1  -3  26  655.23   24.20
   1  -3 -26  615.14   22.60
  -1   3  26  627.94   23.00
   0  -3  26   -2.70    3.50
   0   3  26   -6.80    3.40
   1  -3  26  601.34   23.50
   1   3  26  618.84   22.80
   2  -3  26   84.59    8.20
   3  -3  26   11.80    4.70
   3   3  26    7.60    4.20
   4  -3  26  103.29    9.60
   4   3  26   96.89    9.10
   5  -3  26    4.00    4.40
   5   3  26    3.10    4.40
   6  -3  26   10.00    4.90
   6   3  26   15.10    5.50
   7  -3  26  157.68   11.30
   7   3  26  155.78   11.40
   8  -3  26   -6.30    3.80
   8   3  26    4.20    5.00
   9  -3  26   58.79    8.60
   9   3  26   54.39    8.40
  10  -3  26   38.10    7.50
  10   3  26   35.90    7.70
 -11  -3 -26   40.10    8.90
  11  -3  26   53.39    8.60
  11   3  26   37.20    8.10
 -10  -4  26   15.90    6.20
  -9  -4  26   26.90    6.80
  -8  -4  26    5.00    5.10
  -8   4  26   12.70    4.20
  -7  -4  26   36.00    6.50
  -7   4  26   34.10    5.30
  -6  -4  26   11.50    4.70
  -6   4  26    9.20    3.60
  -5  -4  26  206.98   12.10
  -5   4  26  193.88   10.30
  -4  -4  26    0.20    4.00
  -4   4  26   -3.90    2.80
  -3  -4  26  179.78   11.20
  -3   4  26  172.98    9.50
  -2  -4  26   68.19    7.80
   2  -4 -26   61.99    6.40
  -2   4  26   58.99    6.20
   1  -4 -26   34.20    5.00
  -1  -4  26   41.70    6.40
  -1   4  26   39.60    5.60
   0  -4  26   14.90    5.00
   0   4  26   12.40    4.30
   1  -4  26   23.20    5.50
   1   4  26   32.60    5.30
   2  -4  26   55.79    7.30
   2   4  26   66.19    7.30
   3  -4  26  172.18   11.20
   3   4  26  184.48   11.40
   4  -4  26    5.40    4.20
   4   4  26    6.40    4.30
   5  -4  26  214.48   12.60
   5   4  26  210.18   12.60
   6  -4  26    2.70    4.20
   6   4  26    3.40    4.60
   7  -4  26   37.90    7.20
   7   4  26   35.00    6.90
   8  -4  26   13.30    5.90
   8   4  26   11.70    5.60
   9  -4  26   22.60    6.50
   9   4  26   28.10    7.20
  10  -4  26   15.00    5.60
 -10  -4 -26    4.00    5.60
  10   4  26   17.50    6.60
 -10  -5  26    0.50    4.50
  -9  -5  26    5.40    5.00
  -8  -5  26   38.90    7.10
  -7  -5  26   36.90    6.80
  -7   5  26   33.90    5.10
  -6  -5  26    6.60    4.50
  -6   5  26    1.70    3.00
  -5  -5  26   -1.50    4.00
  -5   5  26   -2.40    2.70
  -4  -5  26   26.60    6.00
  -4   5  26   30.00    4.80
  -3  -5  26   24.60    5.60
  -3   5  26   17.50    4.30
  -2  -5  26   20.50    5.30
  -2   5  26   15.00    4.10
  -1  -5  26   -2.10    3.70
  -1   5  26   -2.20    2.80
   0  -5 -26    2.30    3.40
   0  -5  26   -2.50    3.70
   0   5  26    1.60    3.20
   1  -5  26    3.00    4.00
   1   5  26    7.40    3.80
   2  -5  26   18.90    5.20
   2   5  26   17.80    5.00
   3  -5  26   20.80    5.90
   3   5  26   20.30    5.40
   4  -5  26   32.30    6.10
   4   5  26   18.40    5.20
   5  -5  26    1.00    4.50
   5   5  26   -6.10    3.70
   6  -5  26    1.10    4.20
   6   5  26   -0.80    4.20
   7  -5  26   22.30    5.80
   7   5  26   32.20    7.10
   8  -5  26   41.50    7.40
  -8  -5 -26   38.70    7.40
   8   5  26   39.90    8.10
  -9  -5 -26    9.70    6.30
   9  -5  26   19.10    6.40
   9   5  26    0.80    5.30
  10  -5  26    8.30    5.70
 -10  -5 -26    2.60    5.30
  10   5  26   -4.20    5.10
 -10  -6  26    2.00    5.60
  -9  -6  26   22.30    6.40
  -8  -6  26   19.70    6.10
  -7  -6  26   78.39    9.20
  -6  -6  26    8.80    5.10
  -6   6  26    0.70    3.00
  -5  -6  26  326.67   16.50
  -5   6  26  326.67   13.80
  -4  -6  26    2.90    4.60
  -4   6  26   -1.90    3.00
  -3  -6  26   72.89    8.40
  -3   6  26   65.29    6.40
  -2  -6  26   98.99    9.60
  -2   6  26  126.89    8.10
  -1  -6  26   80.59    8.70
  -1   6  26   80.59    7.40
   0  -6  26   16.90    5.20
   0   6  26   14.90    4.50
   1  -6  26   57.39    7.60
   1   6  26   73.89    7.40
   2  -6  26  107.19    9.90
   2   6  26  114.79    9.00
   3  -6  26   62.89    7.70
   3   6  26   66.09    7.50
   4  -6  26   -5.40    3.60
   4   6  26   -0.50    3.90
   5  -6  26  325.17   16.20
   5   6  26  333.07   16.20
   6  -6  26    1.00    4.10
   6   6  26   -1.00    4.20
   7  -6  26   98.89    9.90
  -7  -6 -26   81.99    9.60
   7   6  26   72.19    9.10
   8  -6  26    4.30    4.80
  -8  -6 -26    5.10    5.10
   8   6  26   12.30    5.50
  -9  -6 -26    9.20    5.80
   9  -6  26    8.90    5.70
   9   6  26   16.10    6.10
 -10  -6 -26   10.30    6.40
  10  -6  26   17.00    6.00
  10   6  26   15.80    6.80
  -9  -7  26    9.70    5.70
  -8  -7  26   88.59   10.10
  -7  -7  26    6.20    5.30
  -6  -7  26    2.30    4.60
  -5  -7  26   27.00    6.40
   5  -7 -26   28.90    2.80
  -5   7  26   24.10    4.40
  -4  -7  26    4.70    4.80
  -4   7  26   -0.70    3.00
  -3  -7  26  128.39   10.30
  -3   7  26  122.49    8.00
  -2  -7  26   13.30    5.30
  -2   7  26   21.90    4.50
  -1  -7  26  297.07   15.40
  -1   7  26  294.07   13.40
   0  -7  26    1.10    4.10
   0   7  26   -2.50    3.10
   1  -7  26  309.77   15.70
   1   7  26  285.97   14.00
   2  -7  26   23.20    5.80
   2   7  26   22.10    5.40
   3  -7  26  143.49   11.00
   3   7  26  126.89   10.00
  -4  -7 -26    2.90    3.90
   4  -7  26    1.10    4.10
   4   7  26    5.50    4.30
   5  -7  26   37.00    6.80
  -5  -7 -26   35.10    6.70
   5   7  26   32.00    6.40
  -6  -7 -26   -3.40    3.80
   6  -7  26    1.20    4.40
   6   7  26    2.40    4.50
  -7  -7 -26    3.10    5.00
   7  -7  26    7.30    5.00
   7   7  26    8.50    5.30
   8  -7  26   91.99    9.90
  -8  -7 -26   98.29   10.60
   8   7  26   91.49   11.00
   9  -7  26   11.30    5.80
  -9  -7 -26    2.60    5.50
   9   7  26    5.10    5.50
  -9  -8  26   -8.70    4.50
  -8  -8  26   -0.60    5.30
  -7  -8  26    7.20    5.10
  -6  -8  26   15.20    6.00
  -5  -8  26    1.70    4.80
   4  -8 -26    6.40    2.00
  -4  -8  26    7.10    5.10
  -4   8  26    6.20    3.40
  -3  -8  26   38.70    7.10
   3  -8 -26   43.10    4.20
  -3   8  26   48.40    5.70
  -2  -8  26  149.59   11.20
   2  -8 -26  150.38    7.90
  -2   8  26  149.88    9.00
  -1  -8  26  172.58   12.50
   1  -8 -26  179.48    9.30
  -1   8  26  176.48   10.00
   0  -8  26   51.09    7.30
   0  -8 -26   47.70    5.80
   0   8  26   58.69    6.70
   1  -8  26  175.98   12.30
  -1  -8 -26  188.78   10.80
   1   8  26  189.78   11.10
  -2  -8 -26  138.49    9.60
   2  -8  26  137.09   10.40
   2   8  26  136.39    9.50
   3  -8  26   46.20    7.10
  -3  -8 -26   54.19    7.30
   3   8  26   57.39    7.20
   4  -8  26    7.50    4.60
  -4  -8 -26   14.30    4.70
   4   8  26    7.30    4.50
  -5  -8 -26    2.20    4.70
   5  -8  26    8.00    5.20
   5   8  26    1.70    4.30
  -6  -8 -26   12.90    5.30
   6  -8  26    9.90    4.90
   6   8  26   14.50    5.40
  -7  -8 -26    6.00    5.00
   7  -8  26   -4.40    3.90
   7   8  26   -0.20    4.70
   8  -8  26    0.60    4.10
  -8  -8 -26    4.50    5.60
   8   8  26    4.10    5.10
   9  -8  26    3.80    5.00
  -9  -8 -26   -3.50    4.70
   9   8  26   -0.30    5.80
  -8  -9  26    2.90    5.90
  -7  -9  26    0.90    5.30
  -6  -9  26    5.80    5.50
  -5  -9  26   -4.10    5.30
  -4  -9  26    0.00    4.90
  -3  -9  26    0.90    4.60
   3  -9 -26    3.20    1.90
  -3   9  26   -0.20    3.10
   2  -9 -26   39.50    4.30
  -2  -9  26   34.30    6.80
  -2   9  26   40.60    5.50
   1  -9 -26  119.69    7.40
  -1  -9  26  102.39   10.30
  -1   9  26  129.89    8.50
   0  -9 -26    2.80    3.10
   0  -9  26    5.40    4.50
   0   9  26    3.80    3.70
  -1  -9 -26  116.39    8.40
   1  -9  26  113.59   10.50
   1   9  26  102.59    8.10
   2  -9  26   51.09    7.90
  -2  -9 -26   54.69    6.70
   2   9  26   36.10    6.20
  -3  -9 -26    4.00    4.10
   3  -9  26    2.50    4.90
   3   9  26    6.30    4.10
   4  -9  26    7.00    4.60
  -4  -9 -26    1.80    4.40
   4   9  26   -1.60    4.20
  -5  -9 -26    2.20    4.60
   5  -9  26    1.40    4.80
   5   9  26    2.30    4.20
  -6  -9 -26    8.10    5.40
   6  -9  26   16.80    5.80
   6   9  26    5.70    5.80
   7  -9  26    5.10    5.20
  -7  -9 -26   -0.80    4.40
   7   9  26   -2.30    4.50
  -8  -9 -26    7.00    5.20
   8  -9  26   -1.80    4.80
   8   9  26    8.00    5.60
  -7 -10  26  116.99   12.10
  -6 -10  26   22.80    6.80
  -5 -10  26   71.79    9.40
  -4 -10  26    0.60    5.00
  -3 -10  26   10.70    5.50
   2 -10 -26    1.60    2.20
  -2 -10  26    3.10    5.30
   1 -10 -26    6.00    2.90
  -1 -10  26    3.40    4.60
  -1  10  26   -0.20    3.30
   0 -10 -26   37.50    4.90
   0 -10  26   28.10    6.50
   0  10  26   35.10    5.70
  -1 -10 -26    4.80    3.60
   1 -10  26   -9.30    3.30
   1  10  26    5.40    4.00
  -2 -10 -26    0.40    3.80
   2 -10  26   -2.40    4.00
   2  10  26   -0.30    4.00
   3 -10  26   11.70    5.00
  -3 -10 -26    6.00    4.20
   3  10  26    6.90    4.60
  -4 -10 -26   -4.90    3.70
   4 -10  26   -1.60    4.40
   4  10  26   -0.40    4.20
   5 -10  26   79.19    9.20
  -5 -10 -26   68.49    8.70
   5  10  26   76.89    9.20
  -6 -10 -26   12.70    6.00
   6 -10  26   15.40    6.00
   6  10  26   24.80    6.40
  -7 -10 -26   87.49   10.20
   7 -10  26  110.79   10.60
   7  10  26   99.09   10.90
  -6 -11  26   37.20    8.10
  -5 -11  26    8.20    5.70
  -4 -11  26   13.70    5.90
  -3 -11  26   -3.90    4.60
  -2 -11  26   42.40    7.60
   1 -11 -26   29.70    4.00
  -1 -11  26   36.60    7.10
   0 -11  26    3.80    4.90
   0 -11 -26   -0.70    2.90
   0  11  26   -4.20    3.20
   1 -11  26   32.00    6.70
  -1 -11 -26   28.60    5.10
   1  11  26   32.70    5.90
  -2 -11 -26   52.99    6.40
   2 -11  26   56.89    8.40
   2  11  26   36.60    6.50
   3 -11  26   11.80    5.80
  -3 -11 -26    1.50    3.90
   3  11  26    7.80    4.90
   4 -11  26   11.40    5.70
  -4 -11 -26   12.10    4.90
   4  11  26    3.70    4.30
   5 -11  26    1.30    5.00
  -5 -11 -26    9.30    4.70
   5  11  26   -1.20    4.40
   6 -11  26   36.10    7.00
  -6 -11 -26   43.80    7.30
   6  11  26   30.20    7.50
  -5 -12  26   35.50    8.40
  -4 -12  26    6.40    5.20
  -3 -12  26    4.40    5.90
  -2 -12  26   19.30    6.50
  -1 -12  26    5.70    5.00
   0 -12  26   15.70    5.70
   0 -12 -26   17.50    3.80
   1 -12  26   -5.40    4.10
  -1 -12 -26   -1.00    3.00
   2 -12  26   15.60    5.70
  -2 -12 -26   10.90    4.30
   2  12  26   11.80    5.20
   3 -12  26    8.30    5.20
  -3 -12 -26    5.60    4.30
   3  12  26    2.60    4.30
   4 -12  26   16.30    6.10
  -4 -12 -26   15.40    5.20
   4  12  26    8.60    5.80
  -5 -12 -26   37.00    7.10
   5 -12  26   35.90    7.20
   5  12  26   39.10    7.50
  -2 -13  26    4.80    5.30
  -1 -13  26   51.89    8.30
   0 -13  26   -4.80    4.70
  -1 -13 -26   64.69    6.30
   1 -13  26   59.59    8.70
  -2 -13 -26    4.50    3.80
   2 -13  26    1.50    4.90
 -11   0  27    6.10    4.50
 -10   0  27    4.40    4.00
  -9   0  27   -0.20    4.20
  -8   0  27   -4.10    3.70
  -7   0  27    1.40    4.10
  -6   0  27   -9.10    3.10
  -5   0  27    1.30    3.80
  -4   0  27    3.20    3.60
  -3   0  27   -3.40    3.20
  -2   0  27   -5.70    3.00
  -1   0  27   -3.90    3.30
   0   0  27    2.70    3.80
   1   0  27    2.90    3.80
   2   0  27    0.90    4.50
   3   0  27    4.00    4.30
   4   0  27    6.30    4.30
   5   0  27    0.70    4.20
   6   0  27   -6.00    4.00
   7   0  27   -3.70    4.00
   8   0  27   -4.20    4.90
   9   0  27   -2.70    4.70
  10   0  27    6.00    5.80
  11   0  27    0.20    6.00
 -11  -1  27   13.50    5.50
 -10  -1  27   31.00    6.60
 -10   1  27   28.10    5.90
  -9  -1  27    6.60    4.80
  -9   1  27   22.50    5.10
  -8  -1  27  181.68   11.70
  -8   1  27  187.18   11.20
  -7  -1  27  175.68   11.30
  -7   1  27  167.18   10.50
  -6  -1  27   83.59    8.40
  -6   1  27   83.49    8.10
  -5  -1  27   20.70    5.00
  -5   1  27   20.80    4.70
  -4  -1  27   89.99    8.70
  -4   1  27   97.39    8.60
  -3  -1  27   42.10    6.40
  -3   1  27   28.80    5.30
  -2  -1  27    3.30    3.80
  -2   1  27   -2.70    3.30
  -1  -1  27   16.30    4.80
  -1   1  27   17.10    4.60
   0  -1  27    0.30    3.50
   0   1  27   -1.20    3.40
   1  -1  27   20.30    5.20
   1   1  27   17.30    5.20
   2  -1  27    0.10    3.80
   2   1  27    3.50    4.10
   3  -1  27   33.40    6.20
   3   1  27   40.00    6.30
   4  -1  27   75.99    8.50
   4   1  27   85.69    8.80
   5  -1  27   10.50    5.40
   5   1  27   25.60    5.90
   6  -1  27   67.69    8.40
   6   1  27   83.69    9.10
   7  -1  27  165.38   11.80
   7   1  27  173.68   12.00
   8  -1  27  178.88   12.40
   8   1  27  173.18   12.50
   9  -1  27   25.90    6.50
   9   1  27   23.10    6.50
  10  -1  27   29.40    7.40
  10   1  27   22.90    7.50
  11  -1  27   20.00    6.60
  11   1  27   11.80    7.00
 -10  -2  27   35.20    7.00
  -9  -2  27   35.80    6.80
  -9   2  27   10.00    4.50
  -8  -2  27    5.90    4.30
  -8   2  27   10.30    4.20
  -7  -2  27   17.70    5.60
  -7   2  27   10.40    3.90
  -6  -2  27    0.70    3.80
  -6   2  27   -2.60    3.20
  -5  -2  27   -1.80    3.50
  -5   2  27    2.50    3.20
  -4  -2  27  148.69   10.00
  -4   2  27  152.48    9.30
  -3  -2  27   92.09    9.00
  -3   2  27   98.69    8.00
  -2  -2  27   84.99    8.40
  -2   2  27  116.09    8.10
  -1  -2  27  343.17   15.70
  -1   2  27  326.27   14.90
   0  -2  27  158.18   10.50
   0   2  27  170.88   10.50
   1  -2  27  360.26   16.30
   1   2  27  335.97   15.90
   2  -2  27   96.09    9.10
   2   2  27   90.69    8.60
   3  -2  27   93.29    9.10
   3   2  27   89.79    8.80
   4  -2  27  144.19   10.50
   4   2  27  140.09   10.10
   5  -2  27   -1.80    4.00
   5   2  27   -8.00    3.50
   6  -2  27    1.60    4.40
   6   2  27   -1.30    4.10
   7  -2  27    6.50    4.70
   7   2  27    0.20    4.60
   8  -2  27    7.60    4.90
   8   2  27    5.40    5.20
   9  -2  27   17.20    6.00
   9   2  27   14.30    6.00
  10  -2  27   37.50    7.60
  10   2  27   38.30    8.10
 -10  -3  27   11.50    5.60
  -9  -3  27   29.30    6.80
  -8  -3  27    0.70    4.60
  -8   3  27   -1.10    3.30
  -7  -3  27   61.19    7.90
  -7   3  27   69.49    7.20
  -6  -3  27   53.39    7.20
  -6   3  27   49.90    6.30
  -5  -3  27   17.10    5.00
  -5   3  27   15.10    4.20
  -4  -3  27   20.70    5.20
  -4   3  27   14.30    4.10
  -3  -3  27  106.29    8.90
  -3   3  27  107.79    8.20
  -2  -3  27   43.90    6.50
   2  -3 -27   38.90    5.70
  -2   3  27   42.10    5.80
  -1  -3  27    8.10    4.50
  -1   3  27   13.60    4.40
   0  -3  27   -2.50    3.60
   0   3  27   -3.50    2.80
   1  -3  27    8.60    4.50
   1   3  27    7.40    4.00
   2  -3  27   49.90    6.90
   2   3  27   42.50    6.30
   3  -3  27  110.39   10.20
   3   3  27  130.59    9.50
   4  -3  27   18.20    5.60
   4   3  27   27.70    5.70
   5  -3  27   11.90    5.10
   5   3  27   14.60    5.30
   6  -3  27   47.30    7.30
   6   3  27   36.80    6.90
   7  -3  27   72.79    9.00
   7   3  27   70.39    9.00
   8  -3  27   -7.30    4.50
   8   3  27   -0.40    4.80
   9  -3  27   37.50    7.20
   9   3  27   24.00    7.20
  10  -3  27   13.40    5.80
  10   3  27    6.30    6.00
 -10  -4  27    9.80    5.40
  -9  -4  27   38.10    7.10
  -8  -4  27   -5.80    3.90
  -8   4  27   -0.30    3.30
  -7  -4  27    8.50    5.40
  -7   4  27   12.80    4.00
  -6  -4  27   17.80    5.10
  -6   4  27   12.60    4.10
  -5  -4  27   24.30    5.80
  -5   4  27   35.00    5.30
  -4  -4  27   52.29    7.20
  -4   4  27   65.79    6.80
  -3  -4  27   53.79    7.20
  -3   4  27   48.70    6.10
  -2  -4  27  231.08   13.20
  -2   4  27  253.77   12.30
  -1  -4  27    2.20    4.20
  -1   4  27    1.20    3.20
   0  -4  27  190.48   11.70
   0   4  27  186.88   10.50
   1  -4  27    6.50    4.40
   1   4  27    2.00    4.10
   2  -4  27  238.18   13.40
   2   4  27  241.98   12.70
   3  -4  27   35.60    6.30
   3   4  27   41.70    6.30
   4  -4  27   60.79    7.70
   4   4  27   62.79    7.60
   5  -4  27   18.50    5.50
   5   4  27   27.10    5.90
   6  -4  27    9.30    4.80
   6   4  27   25.70    6.20
   7  -4  27   21.30    5.80
   7   4  27   13.80    6.10
   8  -4  27    0.70    4.20
   8   4  27   -4.90    4.50
   9  -4  27   46.30    8.00
   9   4  27   49.40    8.50
  10  -4  27    8.30    5.40
 -10  -4 -27    8.40    6.20
  10   4  27    9.40    6.30
 -10  -5  27   83.39   10.00
  -9  -5  27   20.20    6.50
  -8  -5  27   73.49    9.20
  -7  -5  27   -4.20    4.10
  -7   5  27    2.40    3.50
  -6  -5  27  232.68   13.50
  -6   5  27  207.18   10.90
  -5  -5  27   -0.30    4.30
  -5   5  27   -1.00    3.00
  -4  -5  27   56.09    8.00
  -4   5  27   62.59    6.40
  -3  -5  27  169.98   11.30
  -3   5  27  162.88    9.30
  -2  -5  27  225.98   13.10
  -2   5  27  233.48   11.80
  -1  -5  27   15.90    5.40
  -1   5  27   18.00    4.50
   0  -5  27    0.50    4.20
   0   5  27    0.60    3.30
   1  -5  27   20.90    5.50
   1   5  27   23.20    5.00
   2  -5  27  233.78   13.10
   2   5  27  213.08   11.90
   3  -5  27  160.58   11.50
   3   5  27  174.08   10.90
   4  -5  27   46.00    7.20
   4   5  27   69.99    8.00
   5  -5  27    2.00    4.20
   5   5  27   -0.10    4.20
   6  -5  27  219.38   13.20
   6   5  27  215.58   13.30
   7  -5  27   15.00    5.40
   7   5  27    5.50    5.70
   8  -5  27   60.69    8.40
   8   5  27   94.39   10.70
   9  -5  27   22.90    6.00
  -9  -5 -27   16.40    6.50
   9   5  27   18.40    6.70
 -10  -5 -27  109.89   12.20
  10  -5  27   76.49    9.90
  10   5  27   61.89    9.80
  -9  -6  27    1.70    5.00
  -8  -6  27   11.00    5.70
  -7  -6  27   22.60    6.50
  -6  -6  27   -2.70    4.30
  -6   6  27   -2.00    2.90
  -5  -6  27   -2.90    4.30
  -5   6  27    0.80    3.00
  -4  -6  27   13.40    5.30
  -4   6  27    7.10    3.50
  -3  -6  27    1.60    4.60
  -3   6  27   10.70    3.80
  -2  -6  27   19.70    5.70
  -2   6  27   18.40    4.30
  -1  -6  27    2.60    4.50
  -1   6  27   -3.20    2.70
   0  -6  27   18.00    5.50
   0   6  27    8.40    4.20
   1  -6  27   -3.30    3.80
   1   6  27    3.70    3.80
   2  -6  27   22.60    6.20
   2   6  27   18.00    4.90
   3  -6  27    8.20    4.60
   3   6  27    7.70    4.30
   4  -6  27   11.90    5.50
   4   6  27    9.90    4.60
   5  -6  27    6.40    4.50
   5   6  27    1.60    4.20
   6  -6  27   -2.30    4.00
   6   6  27   -3.30    4.20
   7  -6  27   14.50    5.40
  -7  -6 -27   21.60    6.30
   7   6  27   20.90    6.40
   8  -6  27   12.70    5.90
  -8  -6 -27    6.20    5.30
   8   6  27   10.80    5.80
  -9  -6 -27   -0.70    5.90
   9  -6  27   12.90    6.10
   9   6  27    1.10    5.40
  -9  -7  27   -1.20    5.70
  -8  -7  27   22.70    6.80
  -7  -7  27   21.70    6.50
  -6  -7  27   59.59    8.50
  -5  -7  27   14.30    5.80
  -5   7  27   23.10    4.20
  -4  -7  27   12.10    5.50
  -4   7  27   23.00    4.30
  -3  -7  27  123.89   10.30
  -3   7  27  109.29    7.80
  -2  -7  27   40.80    7.50
  -2   7  27   60.89    6.60
  -1  -7  27   24.00    6.00
  -1   7  27   21.60    4.80
   0  -7  27   -1.90    4.30
   0   7  27   -1.60    2.80
   1  -7  27   24.40    5.80
   1   7  27   15.50    4.40
   2  -7  27   49.80    7.20
   2   7  27   49.60    6.70
   3  -7  27   99.69    9.80
   3   7  27   95.79    9.20
   4  -7  27   12.60    5.20
   4   7  27   19.20    5.30
  -5  -7 -27    9.50    5.30
   5  -7  27   14.30    5.30
   5   7  27   25.00    5.90
  -6  -7 -27   52.99    7.80
   6  -7  27   45.40    7.80
   6   7  27   46.50    7.50
  -7  -7 -27   19.10    6.50
   7  -7  27   15.40    5.40
   7   7  27   18.00    6.00
  -8  -7 -27   17.60    6.20
   8  -7  27   19.40    6.30
   8   7  27   17.30    6.80
   9  -7  27    2.90    5.40
  -9  -7 -27   10.00    5.80
   9   7  27   12.40    6.60
  -8  -8  27   43.50    8.00
  -7  -8  27   33.90    7.50
  -6  -8  27    4.40    5.00
  -5  -8  27    9.30    5.40
  -4  -8  27   41.40    7.40
   4  -8 -27   44.30    3.60
  -4   8  27   48.60    5.80
  -3  -8  27   15.60    5.50
   3  -8 -27   12.30    3.00
  -3   8  27   11.20    3.80
  -2  -8  27  127.49   10.50
   2  -8 -27  111.39    7.10
  -2   8  27  104.69    8.00
  -1  -8  27   62.09    8.20
   1  -8 -27   57.69    5.90
  -1   8  27   56.09    6.60
   0  -8  27   14.20    5.50
   0  -8 -27   20.10    4.40
   0   8  27   25.90    5.20
   1  -8  27   49.99    7.50
  -1  -8 -27   57.49    6.70
   1   8  27   55.89    6.90
  -2  -8 -27  107.19    8.70
   2  -8  27  127.09   10.10
   2   8  27  106.49    8.60
   3  -8  27    8.70    5.30
  -3  -8 -27   13.10    4.80
   3   8  27   15.40    4.80
  -4  -8 -27   54.19    7.30
   4  -8  27   35.80    7.10
   4   8  27   31.30    6.10
  -5  -8 -27    8.20    5.20
   5  -8  27    6.10    4.80
   5   8  27    7.30    4.80
  -6  -8 -27    1.40    4.40
   6  -8  27    1.20    4.90
   6   8  27    0.50    4.60
  -7  -8 -27   38.10    7.40
   7  -8  27   32.50    6.70
   7   8  27   40.40    7.70
   8  -8  27   37.00    7.40
  -8  -8 -27   40.30    8.10
   8   8  27   29.70    7.50
  -7  -9  27    3.40    5.40
  -6  -9  27    5.70    5.20
  -5  -9  27   65.19    9.10
  -4  -9  27   42.70    7.80
  -3  -9  27    8.10    5.10
   3  -9 -27    0.60    2.00
  -2  -9  27    7.10    4.90
   2  -9 -27   11.20    3.10
  -2   9  27   18.40    4.40
   1  -9 -27   38.50    4.80
  -1  -9  27   29.90    6.80
  -1   9  27   29.40    5.10
   0  -9  27   -2.20    4.10
   0  -9 -27   -0.90    2.90
   0   9  27    2.60    3.80
  -1  -9 -27   29.20    5.20
   1  -9  27   19.80    6.30
   1   9  27   29.80    5.40
   2  -9  27   17.00    5.60
  -2  -9 -27   11.10    4.50
   2   9  27   15.80    5.30
   3  -9  27   -2.80    4.00
  -3  -9 -27    2.90    4.30
   3   9  27   -0.40    3.70
   4  -9  27   62.09    8.30
  -4  -9 -27   44.10    7.00
   4   9  27   51.19    7.90
   5  -9  27   62.89    8.20
  -5  -9 -27   80.49    9.30
   5   9  27   52.29    7.90
   6  -9  27    2.40    4.90
  -6  -9 -27   -1.40    4.80
   6   9  27   -6.90    4.40
  -7  -9 -27    3.70    5.00
   7  -9  27   25.20    6.60
   7   9  27   15.30    6.40
  -7 -10  27   -2.70    6.20
  -6 -10  27    4.10    5.50
  -5 -10  27    3.50    5.70
  -4 -10  27    6.80    5.40
  -3 -10  27   34.60    7.30
  -2 -10  27   -6.00    4.40
   2 -10 -27   -1.20    2.10
   1 -10 -27   25.20    3.90
  -1 -10  27   21.90    6.60
  -1  10  27   15.80    4.60
   0 -10 -27    6.50    3.40
   0 -10  27    7.90    5.10
   0  10  27    3.50    3.80
   1 -10  27   25.40    6.80
  -1 -10 -27   17.60    4.50
   1  10  27   24.10    5.60
   2 -10  27    1.20    4.50
  -2 -10 -27    1.10    3.60
   2  10  27    5.40    4.40
   3 -10  27   36.40    7.40
  -3 -10 -27   34.60    6.20
   3  10  27   33.20    6.40
  -4 -10 -27    4.00    4.40
   4 -10  27    2.70    5.10
   4  10  27   -6.00    3.70
  -5 -10 -27    9.80    5.20
   5 -10  27    5.20    4.80
   5  10  27    8.90    5.20
   6 -10  27    3.70    5.10
  -6 -10 -27   -2.10    4.60
   6  10  27    3.30    4.90
  -7 -10 -27    2.20    4.90
   7 -10  27   -4.30    4.50
   7  10  27    1.30    4.90
  -5 -11  27    4.70    5.80
  -4 -11  27   92.89   11.40
  -3 -11  27   -2.40    4.50
  -2 -11  27    5.90    6.00
  -1 -11  27   44.30    7.70
   1 -11 -27   39.10    4.40
   0 -11  27    3.20    4.70
   0 -11 -27   -2.60    2.80
   0  11  27   -0.80    3.70
  -1 -11 -27   51.59    6.00
   1 -11  27   30.20    6.90
   1  11  27   37.70    6.30
   2 -11  27    8.40    5.40
  -2 -11 -27    8.70    4.40
   2  11  27   22.90    5.50
   3 -11  27   -0.50    5.20
  -3 -11 -27    8.20    4.40
   3  11  27    3.80    4.70
   4 -11  27   95.79   10.40
  -4 -11 -27   83.99    9.00
   4  11  27   97.89   10.40
   5 -11  27   11.50    5.30
  -5 -11 -27    6.10    4.90
   5  11  27   -0.50    4.30
  -4 -12  27   20.70    6.80
  -3 -12  27   -3.50    4.80
  -2 -12  27   55.19    9.10
  -1 -12  27    4.20    5.40
   0 -12 -27   69.69    6.10
   0 -12  27   81.69    9.90
   1 -12  27    4.60    5.70
  -1 -12 -27    8.20    3.80
  -2 -12 -27   46.80    6.30
   2 -12  27   42.60    8.00
   2  12  27   52.19    7.40
   3 -12  27   -5.60    4.90
  -3 -12 -27    1.10    4.20
   3  12  27    1.90    4.70
   4 -12  27   16.80    6.10
  -4 -12 -27   21.40    5.70
   4  12  27   18.90    6.20
 -10   0  28  124.69   10.90
  -9   0  28   -0.50    4.10
  -8   0  28   -1.20    3.60
  -7   0  28   27.60    5.40
  -6   0  28  140.39    9.70
  -5   0  28    3.30    3.70
  -4   0  28   75.29    7.70
  -3   0  28  165.78   10.20
  -2   0  28  196.68   11.30
  -1   0  28  305.07   14.60
   0   0  28  385.66   17.00
   1   0  28  268.87   13.80
   2   0  28  208.58   12.20
   3   0  28  166.38   11.50
   4   0  28   70.89    8.30
   5   0  28   -1.50    4.10
   6   0  28  127.29   10.50
   7   0  28   35.80    6.90
   8   0  28    1.70    4.80
   9   0  28    4.80    5.00
  10   0  28   92.19   11.10
 -10  -1  28   74.19    9.10
 -10   1  28   60.19    8.00
  -9  -1  28   -1.10    3.70
  -9   1  28    2.40    4.00
  -8  -1  28   33.80    6.40
  -8   1  28   48.00    6.80
  -7  -1  28   26.90    6.00
  -7   1  28   30.20    5.30
  -6  -1  28  231.68   12.70
  -6   1  28  246.08   12.50
  -5  -1  28   36.80    6.30
  -5   1  28   37.00    5.80
  -4  -1  28   51.59    7.00
  -4   1  28   50.79    6.60
  -3  -1  28   27.00    5.40
  -3   1  28   18.20    4.90
  -2  -1  28    3.60    4.20
  -2   1  28   -1.20    3.10
  -1  -1  28    3.60    4.00
  -1   1  28    3.70    4.20
   0  -1  28    2.60    3.90
   0   1  28    4.80    4.20
   1  -1  28   -4.70    3.50
   1   1  28    7.20    4.40
   2  -1  28   -0.80    3.70
   2   1  28   -6.00    3.90
   3  -1  28   27.40    6.10
   3   1  28   22.30    5.90
   4  -1  28   50.79    7.20
   4   1  28   51.09    7.20
   5  -1  28   43.80    7.20
   5   1  28   18.00    5.50
   6  -1  28  261.77   14.50
   6   1  28  241.98   14.30
   7  -1  28   48.10    7.40
   7   1  28   32.00    7.00
   8  -1  28   48.90    8.30
   8   1  28   45.30    8.30
   9  -1  28    7.60    5.20
   9   1  28    7.90    5.60
  10  -1  28   68.99    9.60
  10   1  28   75.19   10.70
 -10  -2  28   13.50    5.60
  -9  -2  28    4.10    4.90
  -9   2  28    6.00    4.40
  -8  -2  28   29.10    6.20
  -8   2  28   26.20    5.40
  -7  -2  28   21.80    5.40
  -7   2  28   24.80    5.40
  -6  -2  28  214.38   12.20
  -6   2  28  199.48   11.20
  -5  -2  28   16.10    4.80
  -5   2  28   12.10    4.20
  -4  -2  28   12.20    4.60
  -4   2  28   22.20    5.00
  -3  -2  28   -1.60    3.60
  -3   2  28   -1.30    3.50
  -2  -2  28  214.38   12.00
  -2   2  28  194.28   11.00
  -1  -2  28   29.10    5.80
  -1   2  28   29.30    5.30
   0  -2  28   61.89    7.60
   0   2  28   65.99    7.50
   1  -2  28   33.30    6.10
   1   2  28   26.40    5.30
   2  -2  28  201.08   12.00
   2   2  28  201.08   11.80
   3  -2  28    6.20    4.50
   3   2  28   -3.40    3.70
   4  -2  28   17.60    5.30
   4   2  28   15.90    5.20
   5  -2  28   15.00    5.40
   5   2  28   14.30    5.60
   6  -2  28  215.98   13.40
   6   2  28  224.88   13.60
   7  -2  28   25.90    6.80
   7   2  28   43.80    7.70
   8  -2  28   25.00    6.90
   8   2  28   28.00    7.30
   9  -2  28    5.60    5.90
   9   2  28    2.70    5.50
  10  -2  28   18.70    7.10
  10   2  28   30.10    7.60
 -10  -3  28   29.20    6.80
  -9  -3  28   -2.30    4.30
  -8  -3  28   58.39    8.00
  -8   3  28   60.69    7.00
  -7  -3  28    5.40    4.50
  -7   3  28   17.60    4.80
  -6  -3  28  374.36   17.70
  -6   3  28  403.26   16.70
  -5  -3  28   10.40    4.70
  -5   3  28    9.10    4.00
  -4  -3  28  147.09   10.40
  -4   3  28  147.49    9.50
  -3  -3  28  199.88   12.00
  -3   3  28  195.28   11.00
  -2  -3  28   18.00    5.20
  -2   3  28   23.00    4.90
  -1  -3  28   64.89    7.80
  -1   3  28   63.29    7.10
   0  -3  28    5.70    4.30
   0   3  28   -0.80    3.40
   1  -3  28   60.19    7.60
   1   3  28   67.69    7.40
   2  -3  28   17.40    5.40
   2   3  28   28.00    6.00
   3  -3  28  193.48   12.30
   3   3  28  223.18   12.50
   4  -3  28  151.58   11.00
   4   3  28  167.58   11.20
   5  -3  28   15.60    5.90
   5   3  28    7.00    4.80
   6  -3  28  352.96   17.60
   6   3  28  371.46   18.10
   7  -3  28   14.60    6.20
   7   3  28   16.60    6.00
   8  -3  28   51.49    8.00
   8   3  28   64.89    9.50
   9  -3  28   -1.20    4.50
   9   3  28    2.40    5.40
  10  -3  28   25.50    7.30
  10   3  28   16.70    6.60
 -10  -4  28    6.30    6.00
  -9  -4  28   23.20    6.90
  -8  -4  28   -3.50    4.80
  -7  -4  28   13.60    5.10
  -7   4  28    9.50    4.30
  -6  -4  28   -2.00    4.20
  -6   4  28    3.20    3.50
  -5  -4  28    0.50    4.10
  -5   4  28    1.10    3.40
  -4  -4  28  158.28   11.30
  -4   4  28  202.58   10.70
  -3  -4  28   35.60    6.40
  -3   4  28   26.70    5.20
  -2  -4  28   65.79    8.00
  -2   4  28   42.90    5.80
  -1  -4  28   25.90    5.70
  -1   4  28   27.60    5.10
   0  -4  28 1145.29   39.30
   0   4  28 1152.68   38.20
   1  -4  28   28.50    6.10
   1   4  28   30.80    5.50
   2  -4  28   71.79    8.40
   2   4  28   60.29    7.30
   3  -4  28   26.40    6.00
   3   4  28   30.90    5.80
   4  -4  28  180.88   12.10
   4   4  28  199.88   12.20
   5  -4  28   -1.40    4.10
   5   4  28    3.40    4.30
   6  -4  28    0.80    4.90
   6   4  28    7.00    5.00
   7  -4  28   12.90    5.60
   7   4  28   12.70    5.40
   8  -4  28    5.60    5.60
   8   4  28   -3.30    4.80
   9  -4  28   20.20    6.30
   9   4  28   18.70    6.80
  10  -4  28  -13.20    4.10
 -10  -4 -28   12.10    7.10
  10   4  28   -3.80    5.20
  -9  -5  28    0.60    5.40
  -8  -5  28    3.00    4.70
  -7  -5  28    9.90    5.80
  -6  -5  28    3.10    5.30
  -6   5  28    9.50    3.80
  -5  -5  28   23.20    6.00
  -5   5  28   13.00    4.20
  -4  -5  28   11.40    5.10
  -4   5  28   16.50    4.40
  -3  -5  28   17.30    5.70
  -3   5  28   20.70    4.70
  -2  -5  28   10.80    5.40
  -2   5  28   15.30    4.40
  -1  -5  28    6.70    4.70
  -1   5  28    4.10    4.00
   0  -5  28   -0.30    4.20
   0   5  28    4.70    3.90
   1  -5  28    0.10    4.10
   1   5  28    7.70    4.40
   2  -5  28   11.90    5.30
   2   5  28   20.40    5.20
   3  -5  28   16.50    5.30
   3   5  28    9.20    4.40
   4  -5  28   12.30    5.10
   4   5  28    6.60    4.50
   5  -5  28    8.40    5.00
   5   5  28   15.30    5.70
   6  -5  28    4.20    4.80
   6   5  28    8.90    5.10
   7  -5  28   11.10    5.20
   7   5  28   18.30    5.90
   8  -5  28    0.30    4.50
   8   5  28    5.50    5.50
   9  -5  28   -7.60    4.80
  -9  -5 -28    2.80    6.30
   9   5  28    1.10    5.10
  -9  -6  28   39.70    7.80
  -8  -6  28   16.00    6.30
  -7  -6  28    4.30    5.00
  -6  -6  28   16.10    6.20
  -5  -6  28   15.50    5.60
  -5   6  28    9.70    3.90
  -4  -6  28   48.70    7.90
  -4   6  28   53.89    6.20
  -3  -6  28   32.20    6.50
  -3   6  28   22.90    4.70
  -2  -6  28   86.79    9.60
  -2   6  28   85.79    7.70
  -1  -6  28    8.50    4.90
  -1   6  28   10.20    4.30
   0  -6  28  822.12   30.60
   0   6  28  822.52   28.90
   1  -6  28   14.00    5.30
   1   6  28   14.30    4.80
   2  -6  28   80.29    9.10
   2   6  28  103.59    9.30
   3  -6  28   26.00    6.40
   3   6  28   23.10    5.40
   4  -6  28   44.30    7.10
   4   6  28   53.99    7.40
   5  -6  28    8.70    5.20
   5   6  28   16.50    5.90
   6  -6  28   18.70    5.80
   6   6  28   11.60    5.40
  -7  -6 -28    8.60    5.60
   7  -6  28    0.10    4.50
   7   6  28    2.90    5.20
   8  -6  28    1.50    4.50
  -8  -6 -28    1.00    5.90
   8   6  28    0.70    5.30
  -9  -6 -28   44.30    8.70
   9  -6  28   50.39    8.10
   9   6  28   73.09   10.00
  -8  -7  28   22.50    6.70
  -7  -7  28   -2.40    4.70
  -6  -7  28   82.09   10.20
  -5  -7  28   41.30    7.50
  -4  -7  28   93.59    9.90
  -4   7  28   86.19    7.10
  -3  -7  28   39.10    6.90
  -3   7  28   31.00    5.10
  -2  -7  28   13.30    5.40
  -2   7  28   20.30    4.70
  -1  -7  28    9.40    5.20
  -1   7  28   15.30    4.40
   0  -7  28    2.50    4.60
   0   7  28   -2.80    3.50
   1  -7  28   17.20    5.60
   1   7  28   15.80    4.90
   2  -7  28   10.40    4.90
   2   7  28   15.10    5.20
   3  -7  28   31.30    6.60
   3   7  28   34.40    6.30
   4  -7  28  106.59   10.50
   4   7  28   72.99    8.90
  -5  -7 -28   31.70    6.50
   5  -7  28   29.10    6.90
   5   7  28   35.70    6.90
  -6  -7 -28   60.29    8.30
   6  -7  28   65.49    8.70
   6   7  28   49.80    7.90
   7  -7  28   -1.90    4.20
  -7  -7 -28    2.10    5.20
   7   7  28   -0.10    4.60
   8  -7  28   22.00    6.30
  -8  -7 -28   20.60    7.30
   8   7  28   29.00    7.70
  -8  -8  28   14.10    6.90
  -7  -8  28   12.60    6.00
  -6  -8  28   22.40    6.90
  -5  -8  28    1.20    5.30
   4  -8 -28   17.60    2.80
  -4  -8  28   15.30    6.00
  -3  -8  28   -3.20    4.30
   3  -8 -28   -0.90    2.40
  -3   8  28   -0.30    3.10
   2  -8 -28   47.20    5.10
  -2  -8  28   38.80    7.10
  -2   8  28   50.49    6.30
   1  -8 -28   -1.70    2.90
  -1  -8  28    2.70    4.70
  -1   8  28    3.10    3.70
   0  -8  28   65.69    8.60
   0  -8 -28   64.59    6.70
   0   8  28   84.89    7.90
  -1  -8 -28   -0.20    3.60
   1  -8  28    4.10    4.60
   1   8  28    3.40    4.00
   2  -8  28   62.29    8.40
  -2  -8 -28   62.09    7.40
   2   8  28   50.29    7.20
   3  -8  28   -0.60    4.70
  -3  -8 -28   -0.10    3.70
   3   8  28    3.80    4.60
  -4  -8 -28   16.20    5.20
   4  -8  28   21.60    6.30
   4   8  28   17.00    5.70
   5  -8  28    9.90    5.70
  -5  -8 -28    8.20    5.40
   5   8  28   10.00    4.80
  -6  -8 -28   33.50    7.50
   6  -8  28   22.50    6.50
   6   8  28   17.60    6.10
   7  -8  28    8.50    5.30
  -7  -8 -28    5.80    5.70
   7   8  28    7.90    5.60
   8  -8  28   -0.30    5.20
  -8  -8 -28    1.60    5.10
   8   8  28    0.00    5.20
  -7  -9  28   10.80    6.10
  -6  -9  28   70.99    9.80
  -5  -9  28   -3.90    4.60
  -4  -9  28  102.29   11.10
   3  -9 -28   23.70    3.20
  -3  -9  28   17.80    6.20
   2  -9 -28   10.80    3.20
  -2  -9  28    7.00    5.10
  -2   9  28   11.80    4.10
  -1  -9  28    1.20    4.60
   1  -9 -28    4.20    3.10
  -1   9  28    5.40    3.70
   0  -9  28    5.40    4.80
   0  -9 -28   -0.10    3.00
   0   9  28  -10.80    2.90
  -1  -9 -28    7.60    3.80
   1  -9  28    5.80    5.40
   1   9  28   -2.00    3.70
   2  -9  28    8.20    5.80
  -2  -9 -28   18.80    5.30
   2   9  28   14.20    5.10
   3  -9  28   24.60    6.20
  -3  -9 -28   16.10    5.20
   3   9  28   23.20    5.60
   4  -9  28  113.39   11.10
  -4  -9 -28   94.29    9.60
   4   9  28   98.19   10.20
  -5  -9 -28    2.50    4.80
   5  -9  28    1.10    4.30
   5   9  28    2.70    4.60
   6  -9  28   69.69    8.90
  -6  -9 -28   62.29    8.50
   6   9  28   68.09    9.50
  -7  -9 -28   -5.40    5.20
   7  -9  28    0.60    5.20
   7   9  28   -1.80    4.80
  -6 -10  28   17.70    6.70
  -5 -10  28    4.20    5.80
  -4 -10  28    3.60    5.50
  -3 -10  28   16.80    6.90
   2 -10 -28   65.69    5.00
  -2 -10  28   71.09    9.40
   1 -10 -28    8.90    3.30
  -1 -10  28   -1.50    4.50
  -1  10  28    1.20    3.90
   0 -10  28    1.90    4.90
   0 -10 -28    1.30    3.10
   0  10  28    2.40    3.80
   1 -10  28   -1.90    4.50
  -1 -10 -28    8.40    4.20
   1  10  28   -1.90    3.70
  -2 -10 -28   76.39    7.90
   2 -10  28   65.19    8.90
   2  10  28   78.29    8.50
   3 -10  28    5.30    5.60
  -3 -10 -28    7.70    4.50
   3  10  28    0.60    4.20
  -4 -10 -28   -0.10    4.30
   4 -10  28   -2.80    4.70
   4  10  28   -2.20    4.10
   5 -10  28    1.10    5.20
  -5 -10 -28   -2.40    4.50
   5  10  28    7.70    5.10
  -6 -10 -28    7.90    5.50
   6 -10  28   15.00    5.80
   6  10  28   22.60    6.70
  -5 -11  28    5.30    5.70
  -4 -11  28   16.20    6.50
  -3 -11  28   10.80    6.10
  -2 -11  28   76.69    9.80
   1 -11 -28    7.80    3.00
  -1 -11  28    2.30    4.90
   0 -11 -28    2.60    3.10
   0 -11  28   -5.60    4.40
   1 -11  28   -0.60    5.30
  -1 -11 -28    5.70    3.70
   1  11  28    6.50    4.40
   2 -11  28  102.99   11.00
  -2 -11 -28   92.89    8.40
   2  11  28   83.49    8.80
   3 -11  28   11.80    5.80
  -3 -11 -28    8.80    4.60
   3  11  28    9.30    4.80
  -4 -11 -28   17.60    5.60
   4 -11  28   24.70    7.00
   4  11  28   10.40    5.70
  -5 -11 -28    1.20    4.60
   5 -11  28    2.70    5.40
   5  11  28    1.20    5.10
  -2 -12  28  121.09   12.30
  -1 -12  28   56.09    9.00
   0 -12  28   30.60    7.20
   1 -12  28   50.69    8.40
  -1 -12 -28   45.90    6.00
  -2 -12 -28  131.49    9.40
   2 -12  28  119.19   11.80
 -10   0  29    4.50    4.90
  -9   0  29    2.30    4.30
  -8   0  29    0.10    4.10
  -7   0  29   -2.30    3.80
  -6   0  29   -1.80    3.80
  -5   0  29    4.60    3.90
  -4   0  29    1.00    3.60
  -3   0  29    1.40    4.00
  -2   0  29   -7.80    3.40
  -1   0  29    1.30    3.80
   0   0  29    9.60    4.80
   1   0  29   -6.60    3.60
   2   0  29   -0.30    3.90
   3   0  29   -0.40    4.20
   4   0  29   -4.00    4.10
   5   0  29    0.20    4.40
   6   0  29   -0.50    4.90
   7   0  29    1.30    4.80
   8   0  29    4.80    5.90
   9   0  29    6.80    5.80
  10   0  29    2.30    5.60
 -10  -1  29   20.90    6.30
  -9  -1  29    6.60    5.00
  -9   1  29    1.00    4.20
  -8  -1  29   23.60    5.80
  -8   1  29   26.00    5.40
  -7  -1  29    9.80    4.40
  -7   1  29   18.90    5.00
  -6  -1  29   -4.50    4.00
  -6   1  29    0.70    3.80
  -5  -1  29  206.48   12.40
  -5   1  29  204.68   11.50
  -4  -1  29   -0.90    4.20
  -4   1  29   -0.90    3.40
  -3  -1  29   21.60    5.30
  -3   1  29   31.00    5.40
  -2  -1  29   91.29    8.80
  -2   1  29   90.59    8.70
  -1  -1  29  129.49    9.60
  -1   1  29  128.19    9.30
   0  -1  29   -2.40    3.90
   0   1  29    1.10    3.70
   1  -1  29  129.79    9.80
   1   1  29  149.88   10.60
   2  -1  29   85.29    8.90
   2   1  29   91.19    8.80
   3  -1  29   29.40    6.00
   3   1  29   23.30    5.70
   4  -1  29   -4.10    3.90
   4   1  29    4.50    4.50
   5  -1  29  212.28   13.20
   5   1  29  230.28   13.50
   6  -1  29    0.90    4.50
   6   1  29    5.20    4.70
   7  -1  29   14.40    6.50
   7   1  29   14.70    5.80
   8  -1  29   22.70    6.20
   8   1  29   14.60    5.90
   9  -1  29    6.70    5.40
   9   1  29   -2.40    5.20
  10  -1  29   20.10    6.70
  10   1  29   27.00    7.60
 -10  -2  29    8.60    5.80
  -9  -2  29   47.50    7.40
  -9   2  29   54.89    7.30
  -8  -2  29    6.80    4.60
  -8   2  29   10.00    4.60
  -7  -2  29   87.99    9.40
  -7   2  29   77.39    8.00
  -6  -2  29   -3.00    3.90
  -6   2  29    1.00    3.50
  -5  -2  29  260.07   13.60
  -5   2  29  228.08   12.50
  -4  -2  29  105.49    9.60
  -4   2  29  112.19    8.50
  -3  -2  29  141.19   10.20
  -3   2  29  139.69    9.30
  -2  -2  29   58.59    7.40
  -2   2  29   44.20    6.30
  -1  -2  29   17.10    5.20
  -1   2  29    4.90    3.90
   0  -2  29   18.40    5.10
   0   2  29   10.70    4.30
   1  -2  29   15.00    5.50
   1   2  29   15.00    4.70
   2  -2  29   53.69    7.40
   2   2  29   40.10    6.50
   3  -2  29  153.78   10.90
   3   2  29  141.29   10.40
   4  -2  29  117.29   10.70
   4   2  29  117.09   10.60
   5  -2  29  254.27   14.60
   5   2  29  254.87   14.60
   6  -2  29    1.20    4.60
   6   2  29    8.90    5.20
   7  -2  29   88.19    9.80
   7   2  29   90.49   10.20
   8  -2  29   15.80    5.70
   8   2  29    2.90    4.90
   9  -2  29   50.49    8.50
   9   2  29   45.60    8.90
  10  -2  29   10.90    5.90
  10   2  29    2.60    5.90
  -9  -3  29   64.39    8.60
  -8  -3  29    4.60    5.50
  -8   3  29    2.20    3.90
  -7  -3  29    3.50    4.20
  -7   3  29    5.40    4.20
  -6  -3  29   -2.20    3.70
  -6   3  29    3.30    3.80
  -5  -3  29    4.70    4.60
  -5   3  29   14.40    4.60
  -4  -3  29   39.00    6.50
  -4   3  29   31.20    5.20
  -3  -3  29    4.30    4.50
  -3   3  29    6.10    4.20
  -2  -3  29   27.30    6.00
  -2   3  29   35.50    5.90
  -1  -3  29    8.50    5.00
  -1   3  29    0.20    3.40
   0  -3  29    3.60    4.20
   0   3  29   -4.30    3.10
   1  -3  29    6.10    4.60
   1   3  29    2.70    4.30
   2  -3  29   31.40    6.30
   2   3  29   35.60    6.30
   3  -3  29   12.00    5.10
   3   3  29    8.80    4.50
   4  -3  29   40.10    6.80
   4   3  29   28.20    6.30
   5  -3  29    7.20    5.10
   5   3  29   10.70    5.30
   6  -3  29    1.40    4.60
   6   3  29   -1.60    4.30
   7  -3  29    2.10    5.30
   7   3  29   13.30    5.80
   8  -3  29    3.20    5.30
   8   3  29   -0.20    5.30
   9  -3  29   42.10    7.90
   9   3  29   58.99    9.10
  -9  -4  29    4.00    5.10
  -8  -4  29   -0.10    4.40
  -7  -4  29   28.00    6.30
  -7   4  29   22.00    4.90
  -6  -4  29   14.10    5.60
  -6   4  29   13.30    4.50
  -5  -4  29  137.19   10.50
  -5   4  29   95.89    8.00
  -4  -4  29    7.80    4.80
  -4   4  29   12.40    4.30
  -3  -4  29   61.79    8.00
  -3   4  29   77.19    7.60
  -2  -4  29   90.49    9.20
  -2   4  29   82.39    7.90
  -1  -4  29    9.70    4.90
  -1   4  29    5.10    3.90
   0  -4  29   11.10    5.00
   0   4  29    0.60    3.30
   1  -4  29    2.90    4.60
   1   4  29    2.40    3.90
   2  -4  29   73.29    8.60
   2   4  29   92.49    8.80
   3  -4  29   64.59    8.40
   3   4  29   66.49    7.90
   4  -4  29   14.70    5.40
   4   4  29    7.40    4.70
   5  -4  29   99.79   10.20
   5   4  29   97.59   10.00
   6  -4  29   20.40    6.40
   6   4  29   16.90    5.80
   7  -4  29   22.80    6.30
   7   4  29   15.00    5.90
   8  -4  29    1.30    5.20
   8   4  29   10.90    5.60
   9  -4  29    5.00    5.90
   9   4  29   16.90    6.40
  -9  -5  29   68.39    9.30
  -8  -5  29    7.10    5.70
  -7  -5  29   12.60    5.40
  -6  -5  29   -4.80    3.80
  -6   5  29    1.00    3.30
  -5  -5  29   -1.80    4.50
  -5   5  29   -1.90    3.00
  -4  -5  29   -1.80    4.40
  -4   5  29    3.90    3.70
  -3  -5  29  169.78   11.70
  -3   5  29  174.38   10.30
  -2  -5  29  112.99   10.50
  -2   5  29  127.99    9.00
  -1  -5  29  310.57   15.90
  -1   5  29  291.67   14.30
   0  -5  29   -5.40    3.90
   0   5  29   -5.70    3.00
   1  -5  29  287.37   15.40
   1   5  29  290.27   14.60
   2  -5  29  120.79   11.00
   2   5  29  133.89    9.70
   3  -5  29  156.98   11.30
   3   5  29  134.59   10.60
   4  -5  29   10.70    5.20
   4   5  29    2.00    4.20
   5  -5  29   -4.60    4.00
   5   5  29    2.90    4.80
   6  -5  29   -0.70    4.30
   6   5  29   -2.10    4.60
   7  -5  29   11.70    5.70
   7   5  29   14.80    6.20
   8  -5  29    4.50    5.50
   8   5  29   13.10    6.20
   9  -5  29   79.59    9.60
  -9  -5 -29   66.29   10.00
   9   5  29   65.59   10.40
  -8  -6  29   -5.00    4.50
  -7  -6  29   36.30    7.50
  -6  -6  29   19.10    6.60
  -5  -6  29   37.80    7.20
  -5   6  29   40.20    5.70
  -4  -6  29    0.80    5.00
  -4   6  29    5.10    3.80
  -3  -6  29    3.40    5.20
  -3   6  29    4.90    3.50
  -2  -6  29   -0.30    4.40
  -2   6  29    5.70    3.90
  -1  -6  29   11.90    5.80
  -1   6  29   21.80    5.10
   0  -6  29    5.60    4.70
   0   6  29    1.10    3.40
   1  -6  29   12.60    5.40
   1   6  29   11.50    4.40
   2  -6  29    9.20    5.00
   2   6  29    1.50    4.20
   3  -6  29    3.70    4.50
   3   6  29   -0.30    4.20
   4  -6  29   11.40    5.10
   4   6  29    5.80    4.60
   5  -6  29   48.60    7.90
   5   6  29   27.10    6.30
   6  -6  29   43.70    7.90
   6   6  29   24.10    6.40
  -7  -6 -29   39.90    7.80
   7  -6  29   35.90    7.10
   7   6  29   35.00    7.60
   8  -6  29    4.00    5.00
  -8  -6 -29    3.00    5.10
   8   6  29   -2.10    4.70
  -8  -7  29   52.89    9.20
  -7  -7  29   49.60    9.00
  -6  -7  29   -1.20    4.90
  -5  -7  29   49.50    8.00
  -4  -7  29    2.10    5.10
  -4   7  29    5.20    3.50
  -3  -7  29   21.40    6.50
  -3   7  29   28.40    5.00
  -2  -7  29   54.39    8.50
  -2   7  29   43.20    5.90
  -1  -7  29    2.60    4.60
  -1   7  29    2.10    3.30
   0  -7  29   -4.30    4.10
   0   7  29    2.50    4.00
   1  -7  29   -4.70    3.90
   1   7  29   -0.80    3.90
   2  -7  29   48.10    7.60
   2   7  29   46.60    6.80
   3  -7  29   26.50    6.50
   3   7  29   27.30    6.20
   4  -7  29   13.80    6.10
   4   7  29   13.60    5.10
  -5  -7 -29   52.79    7.90
   5  -7  29   57.09    8.20
   5   7  29   59.09    8.20
  -6  -7 -29    3.30    5.30
   6  -7  29    3.20    4.70
   6   7  29   -4.30    4.10
  -7  -7 -29   44.60    7.80
   7  -7  29   49.40    8.10
   7   7  29   50.49    8.60
  -8  -7 -29   53.09    8.70
   8  -7  29   49.40    8.10
   8   7  29   50.69    9.20
  -7  -8  29  136.19   13.00
  -6  -8  29    2.40    5.20
  -5  -8  29   44.50    8.10
  -4  -8  29  152.08   12.00
   4  -8 -29  134.49    7.20
  -3  -8  29   11.10    5.80
   3  -8 -29   20.30    3.60
  -3   8  29   20.50    4.70
   2  -8 -29   12.90    3.60
  -2  -8  29    9.50    5.30
  -2   8  29   12.80    4.10
   1  -8 -29    7.80    3.70
  -1  -8  29   11.10    5.40
  -1   8  29    9.20    4.30
   0  -8  29    0.60    4.60
   0  -8 -29   -2.00    3.20
   0   8  29   -2.10    3.50
  -1  -8 -29   12.10    4.50
   1  -8  29   -1.50    4.30
   1   8  29   13.30    4.70
   2  -8  29    7.70    5.70
  -2  -8 -29   13.50    4.90
   2   8  29   17.20    4.90
   3  -8  29   30.60    6.70
  -3  -8 -29   24.60    5.80
   3   8  29   14.50    5.00
  -4  -8 -29  130.99   10.90
   4  -8  29  154.38   12.10
   4   8  29  156.28   11.80
   5  -8  29   45.60    7.60
  -5  -8 -29   38.00    7.00
   5   8  29   39.10    7.50
   6  -8  29    6.90    5.10
  -6  -8 -29    4.50    4.90
   6   8  29   -4.10    4.70
   7  -8  29  139.59   11.30
  -7  -8 -29  113.49   11.70
   7   8  29  143.79   13.20
  -6  -9  29   19.30    6.80
  -5  -9  29    7.20    5.80
  -4  -9  29   14.40    6.80
  -3  -9  29   54.59    8.70
  -2  -9  29   33.60    7.90
   2  -9 -29   29.90    4.20
  -2   9  29   24.20    5.30
   1  -9 -29   77.99    6.80
  -1  -9  29   75.69    9.40
  -1   9  29   79.69    7.90
   0  -9  29   -4.40    4.20
   0  -9 -29    0.50    3.30
   0   9  29   -4.20    3.60
   1  -9  29   71.89    9.20
  -1  -9 -29   89.19    8.20
   1   9  29   90.79    8.90
  -2  -9 -29   29.50    5.90
   2  -9  29   41.30    7.50
   2   9  29   25.60    5.90
   3  -9  29   39.30    7.40
  -3  -9 -29   49.70    7.40
   3   9  29   49.40    7.50
  -4  -9 -29   12.90    4.90
   4  -9  29   12.60    6.20
   4   9  29   16.00    5.40
  -5  -9 -29    4.80    4.80
   5  -9  29   -3.50    4.90
   5   9  29   -1.20    4.00
  -6  -9 -29    6.50    5.10
   6  -9  29   10.80    6.00
   6   9  29    9.70    6.10
  -5 -10  29    1.70    6.10
  -4 -10  29   22.90    7.00
  -3 -10  29    8.10    6.10
  -2 -10  29   31.80    7.50
  -1 -10  29    7.50    5.60
   1 -10 -29    0.30    2.80
   0 -10 -29   15.60    4.30
   0 -10  29   12.70    5.70
   0  10  29   24.60    5.40
   1 -10  29    2.00    4.80
  -1 -10 -29   -0.80    3.60
   1  10  29   -1.90    4.10
  -2 -10 -29   26.60    5.50
   2 -10  29   29.70    7.50
   2  10  29   27.70    6.20
  -3 -10 -29    6.60    4.60
   3 -10  29    8.50    5.40
   3  10  29    3.60    4.70
   4 -10  29   23.40    6.90
  -4 -10 -29   32.20    6.60
   4  10  29   45.10    7.50
  -5 -10 -29    8.20    5.30
   5 -10  29   -1.90    4.20
   5  10  29    4.40    4.70
  -4 -11  29   10.30    6.30
  -3 -11  29    3.30    5.40
  -2 -11  29   24.70    7.10
  -1 -11  29   28.30    6.90
   0 -11 -29    1.70    3.20
   0 -11  29   -4.70    4.60
  -1 -11 -29   29.80    5.20
   1 -11  29   24.50    6.80
   2 -11  29   44.70    8.10
  -2 -11 -29   30.10    5.90
   2  11  29   46.10    7.50
   3 -11  29   11.30    5.50
  -3 -11 -29    8.50    4.70
   3  11  29    4.80    4.50
  -4 -11 -29   -2.10    4.20
   4 -11  29   10.20    6.10
   4  11  29   11.30    5.60
  -9   0  30   54.39    7.50
  -8   0  30  112.89    9.30
  -7   0  30  206.18   12.10
  -6   0  30   80.79    8.70
  -5   0  30  264.17   13.80
  -4   0  30   32.10    6.30
  -3   0  30   58.49    7.30
  -2   0  30   93.59    9.00
  -1   0  30    2.00    3.80
   0   0  30   14.20    4.90
   1   0  30    7.70    4.90
   2   0  30   82.49    8.80
   3   0  30   73.39    8.60
   4   0  30   23.70    6.00
   5   0  30  278.37   15.50
   6   0  30   71.79    9.50
   7   0  30  233.78   14.70
   8   0  30  120.59   12.10
   9   0  30   56.79    9.00
  -9  -1  30    8.40    5.30
  -9   1  30    1.30    4.50
  -8  -1  30   28.60    6.50
  -8   1  30   39.90    6.60
  -7  -1  30   -0.40    3.80
  -7   1  30    5.10    4.40
  -6  -1  30    4.40    4.60
  -6   1  30    9.20    4.70
  -5  -1  30   15.70    5.40
  -5   1  30    9.10    4.30
  -4  -1  30   20.70    5.20
  -4   1  30   12.10    4.90
  -3  -1  30   15.10    5.10
  -3   1  30    4.40    4.00
  -2  -1  30   10.70    4.80
  -2   1  30    4.50    4.00
  -1  -1  30    9.20    4.60
  -1   1  30   14.80    4.70
   0  -1  30    1.20    3.90
   0   1  30    1.70    3.90
   1  -1  30   17.00    5.30
   1   1  30   16.00    5.60
   2  -1  30   14.40    5.00
   2   1  30    5.20    4.50
   3  -1  30   14.10    5.70
   3   1  30    8.40    5.30
   4  -1  30   17.90    5.80
   4   1  30   25.20    6.30
   5  -1  30    3.40    4.90
   5   1  30    4.30    4.90
   6  -1  30   10.80    5.20
   6   1  30    7.60    5.50
   7  -1  30    1.80    4.70
   7   1  30   -3.80    5.10
   8  -1  30   41.00    7.80
   8   1  30   29.90    7.60
   9  -1  30    6.00    5.60
   9   1  30    6.60    6.60
  -9  -2  30   -8.00    4.50
  -8  -2  30   -7.10    4.20
  -8   2  30    0.00    4.10
  -7  -2  30   32.10    6.30
  -7   2  30   14.40    5.00
  -6  -2  30   -5.80    3.60
  -6   2  30   -2.10    3.10
  -5  -2  30    7.30    4.70
  -5   2  30   17.60    5.00
  -4  -2  30   -0.20    4.30
  -4   2  30    1.50    3.90
  -3  -2  30    8.70    5.00
  -3   2  30    7.60    4.10
  -2  -2  30  203.88   12.30
  -2   2  30  209.28   12.00
  -1  -2  30    5.60    4.40
  -1   2  30   11.60    4.50
   0  -2  30    4.00    4.20
   0   2  30    3.80    4.00
   1  -2  30    9.30    5.00
   1   2  30   15.00    5.00
   2  -2  30  213.98   12.90
   2   2  30  193.78   12.00
   3  -2  30   -3.90    3.90
   3   2  30   16.00    5.10
   4  -2  30   -0.20    4.80
   4   2  30    0.60    4.50
   5  -2  30    9.70    5.80
   5   2  30   12.10    5.60
   6  -2  30   -6.50    4.20
   6   2  30    0.00    5.00
   7  -2  30   21.80    6.30
   7   2  30   33.60    7.40
   8  -2  30    2.10    5.10
   8   2  30   -0.20    5.10
   9  -2  30   -0.90    5.40
   9   2  30   -4.90    4.90
  -9  -3  30   11.40    5.30
  -8  -3  30   47.20    7.60
  -7  -3  30   26.20    6.50
  -7   3  30   38.60    6.20
  -6  -3  30    8.20    5.30
  -6   3  30   21.10    5.10
  -5  -3  30   55.39    7.50
  -5   3  30   55.19    6.90
  -4  -3  30   -0.40    4.70
  -4   3  30   -5.20    3.10
  -3  -3  30   37.40    6.50
  -3   3  30   27.70    5.70
  -2  -3  30  102.19    9.80
  -2   3  30   93.89    8.80
  -1  -3  30  336.67   16.50
  -1   3  30  326.87   15.40
   0  -3  30    1.80    4.50
   0   3  30   -2.50    3.60
   1  -3  30  352.66   17.40
   1   3  30  334.47   16.00
   2  -3  30   84.29    9.20
   2   3  30  102.69    9.50
   3  -3  30   36.90    7.00
   3   3  30   35.30    6.60
   4  -3  30    5.00    5.00
   4   3  30    0.60    4.50
   5  -3  30   61.49    8.50
   5   3  30   59.09    8.40
   6  -3  30   11.40    6.00
   6   3  30   11.10    6.20
   7  -3  30   29.30    7.40
   7   3  30   35.80    7.30
   8  -3  30   35.10    7.80
   8   3  30   40.20    7.90
   9  -3  30    1.00    5.60
   9   3  30   16.90    6.70
  -9  -4  30   21.70    6.80
  -8  -4  30    6.50    5.30
  -7  -4  30   92.59   10.40
  -7   4  30   94.89    8.80
  -6  -4  30   -4.80    3.90
  -6   4  30    4.00    3.80
  -5  -4  30   71.39    8.80
  -5   4  30   68.29    7.60
  -4  -4  30  189.78   12.40
  -4   4  30  183.48   10.90
  -3  -4  30   20.40    5.80
  -3   4  30   38.30    5.60
  -2  -4  30   10.90    5.10
  -2   4  30   -5.20    3.50
  -1  -4  30    4.00    4.70
  -1   4  30    6.80    4.30
   0  -4  30  227.28   13.30
   0   4  30  194.88   11.60
   1  -4  30   -3.50    4.70
   1   4  30    1.30    4.00
   2  -4  30    2.60    4.70
   2   4  30   -3.70    4.20
   3  -4  30   35.60    6.90
   3   4  30   28.90    6.00
   4  -4  30  197.68   13.40
   4   4  30  178.58   12.10
   5  -4  30   84.29    9.50
   5   4  30   56.09    8.10
   6  -4  30    8.00    5.30
   6   4  30  -10.00    3.90
   7  -4  30   77.89    9.60
   7   4  30  110.59   11.70
   8  -4  30    4.00    5.30
   8   4  30    3.70    5.30
   9  -4  30    5.90    5.90
   9   4  30   10.80    6.10
  -8  -5  30   31.20    7.10
  -7  -5  30    6.10    5.10
  -6  -5  30    5.30    5.00
  -6   5  30    5.40    3.80
  -5  -5  30   -1.30    4.40
  -5   5  30    1.70    3.70
  -4  -5  30   20.90    6.00
  -4   5  30   17.60    4.80
  -3  -5  30   -7.10    3.80
  -3   5  30    3.00    3.70
  -2  -5  30    4.30    4.90
  -2   5  30   -1.70    3.40
  -1  -5  30   14.00    6.10
  -1   5  30   14.70    4.50
   0  -5  30    1.10    4.40
   0   5  30   -2.00    3.90
   1  -5  30   21.00    5.80
   1   5  30   15.00    4.80
   2  -5  30    1.50    4.50
   2   5  30    0.60    4.00
   3  -5  30    5.30    5.10
   3   5  30    1.10    4.60
   4  -5  30   12.30    5.40
   4   5  30   21.40    6.20
   5  -5  30    2.40    4.80
   5   5  30    1.70    4.60
   6  -5  30    5.40    5.50
   6   5  30    2.90    5.30
   7  -5  30    1.20    4.90
   7   5  30   -2.30    5.40
   8  -5  30   23.90    7.20
   8   5  30   28.50    7.40
  -8  -6  30    2.30    5.20
  -7  -6  30   17.60    6.40
  -6  -6  30    7.90    5.40
  -5  -6  30  200.78   13.50
  -5   6  30  190.78   11.10
  -4  -6  30  171.68   12.40
  -4   6  30  163.08   10.00
  -3  -6  30   77.49    9.30
  -3   6  30   65.39    7.20
  -2  -6  30   11.80    5.60
  -2   6  30   18.10    4.60
  -1  -6  30   -1.00    4.40
  -1   6  30   -0.70    3.80
   0  -6  30   -2.60    4.00
   0   6  30    1.10    4.00
   1  -6  30    6.90    4.90
   1   6  30    1.20    4.40
   2  -6  30    7.20    5.30
   2   6  30   13.00    4.90
   3  -6  30   80.99    9.20
   3   6  30   73.19    8.50
   4  -6  30  141.99   11.40
   4   6  30  151.88   11.10
   5  -6  30  212.18   14.20
   5   6  30  190.18   13.50
   6  -6  30    8.30    5.40
   6   6  30    4.10    5.10
  -7  -6 -30   19.00    7.20
   7  -6  30   24.50    7.10
   7   6  30   20.40    6.90
   8  -6  30    2.50    4.80
  -8  -6 -30    5.60    6.30
   8   6  30    3.00    5.60
  -7  -7  30   -3.60    5.60
  -6  -7  30    6.00    5.60
  -5  -7  30   23.90    6.80
  -4  -7  30   33.10    7.10
  -4   7  30   34.50    5.50
  -3  -7  30   16.70    6.20
  -3   7  30   25.60    5.20
  -2  -7  30   44.70    7.70
  -2   7  30   40.60    6.20
  -1  -7  30   82.59    9.60
  -1   7  30   67.49    7.60
   0  -7  30    1.90    4.70
   0   7  30    0.40    3.70
   1  -7  30   62.09    8.90
   1   7  30   86.59    8.80
   2  -7  30   37.50    7.10
   2   7  30   40.70    6.90
   3  -7  30   22.80    6.30
   3   7  30   20.90    5.60
   4  -7  30   30.50    7.10
   4   7  30   36.10    7.30
  -5  -7 -30   24.00    6.30
   5  -7  30   21.40    6.30
   5   7  30   23.60    6.90
  -6  -7 -30    0.10    4.60
   6  -7  30   -2.10    5.20
   6   7  30    5.50    5.00
   7  -7  30    1.70    5.00
  -7  -7 -30   -8.20    4.20
   7   7  30   -1.60    4.90
  -7  -8  30   20.20    6.80
  -6  -8  30   92.69   10.90
  -5  -8  30   -1.60    5.00
  -4  -8  30   22.60    6.60
  -3  -8  30    1.10    5.70
   3  -8 -30   -4.50    2.40
  -2  -8  30   66.69    9.10
   2  -8 -30   59.99    6.00
  -2   8  30   75.39    7.70
   1  -8 -30   51.59    6.20
  -1  -8  30   56.29    8.70
  -1   8  30   44.90    6.60
   0  -8 -30    3.50    3.90
   0  -8  30    1.10    4.80
   0   8  30   -5.30    3.40
  -1  -8 -30   52.49    6.90
   1  -8  30   40.70    8.10
   1   8  30   50.39    7.10
  -2  -8 -30   58.99    7.60
   2  -8  30   63.49    8.80
   2   8  30   58.19    7.80
  -3  -8 -30    2.40    4.50
   3  -8  30   -1.10    4.50
   3   8  30   -0.50    4.00
   4  -8  30   31.70    6.80
  -4  -8 -30   21.20    6.00
   4   8  30   25.70    6.10
   5  -8  30   -1.80    4.50
  -5  -8 -30    1.10    5.10
   5   8  30   -2.90    4.10
   6  -8  30   74.49    9.90
  -6  -8 -30   77.79    9.50
   6   8  30   73.59    9.90
  -7  -8 -30   25.60    7.30
   7  -8  30   11.90    6.40
   7   8  30   16.70    6.50
  -6  -9  30    5.20    5.70
  -5  -9  30   -6.30    4.60
  -4  -9  30    0.10    5.10
  -3  -9  30    7.90    5.90
  -2  -9  30   86.99   10.30
   2  -9 -30   75.29    6.30
  -1  -9  30   25.40    7.00
   1  -9 -30   14.50    4.20
  -1   9  30   14.10    4.60
   0  -9  30    0.60    4.70
   0  -9 -30   -3.60    3.30
   0   9  30    3.90    4.30
   1  -9  30   14.20    5.90
  -1  -9 -30   19.10    4.90
   1   9  30   13.80    4.80
  -2  -9 -30   72.89    8.20
   2  -9  30   64.79    9.30
   2   9  30   79.39    8.80
   3  -9  30   -4.10    5.10
  -3  -9 -30   -2.50    4.10
   3   9  30   -0.20    4.50
   4  -9  30   15.40    6.30
  -4  -9 -30    9.00    5.20
   4   9  30   10.50    5.30
   5  -9  30    1.80    4.90
  -5  -9 -30    0.90    4.90
   5   9  30   -6.20    4.80
  -6  -9 -30   -0.70    5.20
   6  -9  30    7.90    5.50
   6   9  30    6.30    5.90
  -4 -10  30    4.90    6.40
  -3 -10  30  123.79   12.90
  -2 -10  30   39.60    8.20
  -1 -10  30    2.90    5.00
   1 -10 -30    1.30    3.10
   0 -10  30    1.50    6.00
   0 -10 -30    7.90    3.80
   0  10  30    7.90    4.50
  -1 -10 -30   -0.40    3.60
   1 -10  30    0.90    4.70
   1  10  30   -4.40    4.00
   2 -10  30   41.60    7.80
  -2 -10 -30   29.10    5.80
   2  10  30   45.60    7.40
  -3 -10 -30  121.99    9.80
   3 -10  30   94.29   10.80
   3  10  30  106.89   10.70
   4 -10  30   28.70    7.10
  -4 -10 -30   15.10    5.40
   4  10  30   21.80    6.10
  -2 -11  30   22.10    7.40
  -1 -11  30   -1.80    5.40
   0 -11 -30    1.00    3.20
   0 -11  30    0.80    5.10
  -1 -11 -30    7.90    3.80
   1 -11  30    6.40    5.60
  -2 -11 -30   30.30    6.00
   2 -11  30   22.80    6.90
   2  11  30   17.50    5.40
  -9   0  31    1.50    4.60
  -8   0  31   -5.50    4.20
  -7   0  31    1.30    4.40
  -6   0  31   -4.50    4.00
  -5   0  31    3.80    4.50
  -4   0  31    6.80    4.20
  -3   0  31    4.80    4.20
  -2   0  31    2.40    3.50
  -1   0  31   -5.20    4.00
   0   0  31   -3.80    4.40
   1   0  31    3.80    4.10
   2   0  31    0.70    4.50
   3   0  31   -7.80    4.20
   4   0  31   -3.90    4.10
   5   0  31   11.60    5.50
   6   0  31    1.60    5.60
   7   0  31   -6.10    4.30
   8   0  31   -1.00    5.20
   9   0  31    2.30    5.30
  -9  -1  31    0.50    4.40
  -9   1  31   -0.90    4.60
  -8  -1  31   15.40    5.60
  -8   1  31    9.60    4.70
  -7  -1  31    1.50    4.70
  -7   1  31    4.70    4.10
  -6  -1  31  107.59   10.40
  -6   1  31   99.09    9.60
  -5  -1  31   21.20    6.00
  -5   1  31   17.30    5.30
  -4  -1  31  163.48   11.20
  -4   1  31  181.58   11.00
  -3  -1  31   18.50    5.30
  -3   1  31   16.70    5.10
  -2  -1  31    5.20    4.50
  -2   1  31   10.60    4.50
  -1  -1  31   25.50    5.90
  -1   1  31   27.00    6.00
   0  -1  31    5.20    4.40
   0   1  31   -4.30    3.90
   1  -1  31   33.30    6.50
   1   1  31   34.10    6.30
   2  -1  31    1.90    4.50
   2   1  31    8.70    4.70
   3  -1  31   27.20    6.30
   3   1  31   28.20    6.50
   4  -1  31  211.88   13.50
   4   1  31  210.88   13.30
   5  -1  31   24.60    6.60
   5   1  31   32.80    7.00
   6  -1  31  101.69   10.50
   6   1  31   77.39    9.90
   7  -1  31    1.20    4.90
   7   1  31   11.60    5.60
   8  -1  31   12.50    6.00
   8   1  31   19.30    6.70
   9  -1  31    1.80    5.30
   9   1  31    5.60    5.60
  -9  -2  31   10.50    5.30
  -8  -2  31   -8.90    3.30
  -8   2  31    6.70    4.80
  -7  -2  31   -4.10    3.90
  -7   2  31   -5.70    3.80
  -6  -2  31    2.70    4.90
  -6   2  31    7.40    4.20
  -5  -2  31    7.30    4.70
  -5   2  31   23.90    5.50
  -4  -2  31   17.10    5.40
  -4   2  31   21.80    5.00
  -3  -2  31   33.30    6.40
  -3   2  31   34.80    5.80
  -2  -2  31   88.09    9.30
  -2   2  31   86.79    8.70
  -1  -2  31   53.19    7.40
  -1   2  31   22.70    5.40
   0  -2  31  164.78   11.60
   0   2  31  181.78   11.30
   1  -2  31   47.60    7.40
   1   2  31   42.20    6.70
   2  -2  31   88.89    9.60
   2   2  31   98.29    9.60
   3  -2  31   25.30    6.70
   3   2  31   27.30    6.10
   4  -2  31   15.30    5.70
   4   2  31   26.90    6.40
   5  -2  31   24.80    6.40
   5   2  31   18.50    6.20
   6  -2  31   13.20    5.80
   6   2  31    7.60    5.40
   7  -2  31    1.20    4.90
   7   2  31   -2.20    4.90
   8  -2  31    6.70    5.30
   8   2  31    3.50    5.70
   9  -2  31    9.70    5.90
   9   2  31   14.70    7.50
  -8  -3  31   -1.30    4.90
  -7  -3  31   60.29    8.70
  -7   3  31   67.29    8.10
  -6  -3  31    1.00    5.00
  -6   3  31    3.00    4.40
  -5  -3  31   38.20    6.90
  -5   3  31   26.20    5.60
  -4  -3  31   11.50    5.30
  -4   3  31    3.70    4.30
  -3  -3  31    1.10    4.40
  -3   3  31    7.20    4.40
  -2  -3  31   76.39    9.00
  -2   3  31   89.49    8.50
  -1  -3  31   26.60    6.20
  -1   3  31   28.70    5.90
   0  -3  31    0.20    4.60
   0   3  31    6.60    4.20
   1  -3  31   20.10    6.10
   1   3  31   34.50    6.10
   2  -3  31   93.39   10.00
   2   3  31   76.79    8.60
   3  -3  31    2.00    4.70
   3   3  31   17.20    5.80
   4  -3  31   -6.30    4.10
   4   3  31   14.00    5.50
   5  -3  31   31.70    7.00
   5   3  31   33.30    6.80
   6  -3  31    4.90    5.30
   6   3  31   10.50    5.40
   7  -3  31   53.89    9.10
   7   3  31   59.09    9.00
   8  -3  31   -4.70    4.40
   8   3  31   -2.50    5.30
  -8  -4  31    2.30    5.50
  -7  -4  31   18.70    6.30
  -6  -4  31   14.90    6.20
  -6   4  31   15.50    4.80
  -5  -4  31   -3.40    4.20
  -5   4  31    5.10    3.90
  -4  -4  31    5.00    4.60
  -4   4  31    5.40    3.90
  -3  -4  31    1.20    4.50
  -3   4  31    1.00    3.80
  -2  -4  31   83.09    9.60
  -2   4  31   70.69    7.50
  -1  -4  31   50.29    7.70
  -1   4  31   45.40    6.70
   0  -4  31  330.47   17.10
   0   4  31  344.37   16.00
   1  -4  31   46.70    7.40
   1   4  31   46.80    7.10
   2  -4  31   75.09    9.10
   2   4  31   68.79    8.20
   3  -4  31    6.30    4.80
   3   4  31    1.60    4.30
   4  -4  31    6.30    5.10
   4   4  31    4.70    4.60
   5  -4  31    0.30    4.90
   5   4  31    1.90    4.70
   6  -4  31   19.70    6.40
   6   4  31    4.90    5.40
   7  -4  31   10.70    5.50
   7   4  31   13.00    6.10
   8  -4  31    9.80    5.60
   8   4  31   10.90    6.20
  -8  -5  31   28.20    7.30
  -7  -5  31   38.10    7.50
  -6  -5  31  179.58   12.80
  -5  -5  31   49.99    7.80
  -5   5  31   44.50    6.30
  -4  -5  31   33.60    7.00
  -4   5  31   32.60    5.60
  -3  -5  31   60.79    8.60
  -3   5  31   72.09    7.70
  -2  -5  31   19.30    5.90
  -2   5  31   10.60    4.50
  -1  -5  31   38.40    7.10
  -1   5  31   21.30    5.20
   0  -5  31   -7.20    4.40
   0   5  31    2.80    3.80
   1  -5  31   27.90    6.50
   1   5  31   26.70    5.60
   2  -5  31    6.00    4.90
   2   5  31   19.90    5.70
   3  -5  31   66.99    9.00
   3   5  31   83.99    9.20
   4  -5  31   45.60    7.70
   4   5  31   32.10    7.00
   5  -5  31   41.70    7.60
   5   5  31   30.50    7.10
   6  -5  31  169.48   12.40
   6   5  31  121.29   11.70
   7  -5  31   43.70    7.90
   7   5  31   42.00    8.20
   8  -5  31   43.80    8.20
   8   5  31   26.70    7.30
  -7  -6  31   -4.30    4.80
  -6  -6  31    2.50    4.70
  -5  -6  31    4.40    5.20
  -4  -6  31  113.59   11.70
  -4   6  31  117.39    9.10
  -3  -6  31   -3.70    4.50
  -3   6  31    6.80    4.20
  -2  -6  31   27.40    6.40
  -2   6  31   23.80    5.30
  -1  -6  31    1.50    4.80
  -1   6  31    3.50    3.70
   0  -6  31   33.60    6.90
   0   6  31   48.60    7.10
   1  -6  31    7.40    5.00
   1   6  31   15.10    5.20
   2  -6  31   19.10    6.10
   2   6  31   19.90    5.10
   3  -6  31    7.00    5.40
   3   6  31    0.50    4.20
   4  -6  31  117.89   11.50
   4   6  31  120.89   11.40
   5  -6  31    1.20    4.90
   5   6  31   12.80    5.30
   6  -6  31    5.60    5.20
   6   6  31    6.90    5.90
  -7  -6 -31    7.30    5.40
   7  -6  31   -1.10    5.50
   7   6  31    1.60    5.30
  -7  -7  31   31.50    8.20
  -6  -7  31   41.70    8.10
  -5  -7  31    9.30    5.60
  -4  -7  31   24.80    7.30
  -3  -7  31   25.40    6.90
  -3   7  31   19.50    5.20
  -2  -7  31    0.40    4.80
  -2   7  31    0.50    3.70
  -1  -7  31   23.50    7.20
  -1   7  31   19.90    5.20
   0  -7  31   -0.70    4.60
   0   7  31    2.40    3.80
   1  -7  31   12.50    5.60
   1   7  31   12.40    5.10
   2  -7  31    4.80    5.00
   2   7  31   -2.00    4.20
   3  -7  31    7.50    5.90
   3   7  31   16.70    5.50
   4  -7  31   27.00    7.10
   4   7  31   20.80    6.20
   5  -7  31   10.80    6.30
  -5  -7 -31   10.50    5.80
   5   7  31    4.40    5.10
  -6  -7 -31   44.40    7.70
   6  -7  31   53.19    8.60
   6   7  31   36.50    7.70
  -7  -7 -31   18.30    7.00
   7  -7  31   16.70    6.80
   7   7  31   13.20    6.10
  -6  -8  31   16.00    6.30
  -5  -8  31    4.20    6.60
  -4  -8  31   -2.20    4.80
  -3  -8  31    7.60    5.50
   3  -8 -31   -1.30    2.70
   2  -8 -31  190.38    9.90
  -2  -8  31  184.18   13.40
  -2   8  31  173.98   10.90
   1  -8 -31    2.40    3.50
  -1  -8  31    0.50    5.20
  -1   8  31    3.40    4.40
   0  -8  31  251.67   15.00
   0  -8 -31  215.58   11.80
   0   8  31  220.28   12.90
  -1  -8 -31    6.70    4.50
   1  -8  31    8.80    5.60
   1   8  31    7.20    4.80
   2  -8  31  173.88   13.30
  -2  -8 -31  201.78   12.10
   2   8  31  170.38   11.60
   3  -8  31   -3.70    4.60
  -3  -8 -31   -0.60    4.20
   3   8  31    5.90    4.70
   4  -8  31    2.50    5.40
  -4  -8 -31    9.30    5.30
   4   8  31    2.80    5.10
   5  -8  31    8.30    6.40
  -5  -8 -31   13.90    5.60
   5   8  31    7.60    5.20
   6  -8  31   16.40    6.20
  -6  -8 -31   16.70    6.60
   6   8  31   14.50    6.10
  -5  -9  31  -11.50    5.60
  -4  -9  31   -0.10    5.60
  -3  -9  31    8.60    6.00
   2  -9 -31    0.30    3.00
  -2  -9  31   -3.30    5.20
  -1  -9  31   45.50    8.20
   1  -9 -31   56.19    6.30
  -1   9  31   47.50    6.80
   0  -9  31    0.70    4.90
   0  -9 -31   -1.50    3.40
   0   9  31   -2.50    4.10
  -1  -9 -31   47.40    6.80
   1  -9  31   53.89    9.10
   1   9  31   53.19    7.60
   2  -9  31    3.50    5.20
  -2  -9 -31    5.40    4.40
   2   9  31    0.50    3.90
   3  -9  31    6.60    5.60
  -3  -9 -31    5.70    4.80
   3   9  31   11.50    5.40
  -4  -9 -31    5.30    5.20
   4  -9  31   -6.00    5.10
   4   9  31    6.80    5.50
   5  -9  31    1.60    4.80
  -5  -9 -31    4.90    5.40
   5   9  31    6.70    5.80
  -3 -10  31    8.70    6.20
  -2 -10  31   -2.80    5.10
   1 -10 -31    2.40    3.10
  -1 -10  31    3.70    5.20
   0 -10  31   85.69   10.80
   0 -10 -31   79.19    7.50
   1 -10  31   -2.20    5.70
  -1 -10 -31    0.20    3.70
   1  10  31   -3.50    4.30
   2 -10  31    0.90    5.00
  -2 -10 -31   -1.10    4.00
   2  10  31    1.20    4.00
   3 -10  31   10.30    6.10
  -3 -10 -31    8.80    4.90
   3  10  31    8.60    5.50
  -8   0  32    1.80    4.20
  -7   0  32  190.78   12.60
  -6   0  32   75.19    9.00
  -5   0  32    2.00    4.60
  -4   0  32  157.98   10.90
  -3   0  32   14.00    5.60
  -2   0  32    8.20    4.60
  -1   0  32  110.49   10.20
   0   0  32  196.58   12.30
   1   0  32  121.79   10.10
   2   0  32    4.60    4.90
   3   0  32   24.40    6.20
   4   0  32  140.79   11.30
   5   0  32   -4.20    5.10
   6   0  32   65.59    9.20
   7   0  32  188.78   13.70
   8   0  32    5.90    5.70
  -8  -1  32   14.80    5.40
  -8   1  32   11.30    5.40
  -7  -1  32   63.99    8.60
  -7   1  32   62.99    7.90
  -6  -1  32   42.40    6.90
  -6   1  32   33.00    6.70
  -5  -1  32   36.70    7.30
  -5   1  32   34.50    6.30
  -4  -1  32    2.30    4.80
  -4   1  32   10.70    4.40
  -3  -1  32   -6.20    3.30
  -3   1  32    4.20    4.40
  -2  -1  32    2.20    5.00
  -2   1  32   -0.50    3.90
  -1  -1  32    4.70    4.50
  -1   1  32    9.00    4.50
   0  -1  32   -1.10    4.20
   0   1  32    1.10    4.20
   1  -1  32    2.20    4.40
   1   1  32    0.60    4.30
   2  -1  32   12.10    5.30
   2   1  32    7.50    4.80
   3  -1  32   -2.00    4.40
   3   1  32    9.20    5.20
   4  -1  32    6.40    5.80
   4   1  32    9.60    5.20
   5  -1  32   34.50    7.30
   5   1  32   28.80    7.00
   6  -1  32   37.60    7.80
   6   1  32   55.79    9.10
   7  -1  32   54.19    8.70
   7   1  32   75.39    9.80
   8  -1  32   19.60    7.50
   8   1  32   18.00    6.90
  -8  -2  32    3.60    4.90
  -8   2  32    5.60    4.80
  -7  -2  32   10.50    5.80
  -7   2  32   11.20    5.30
  -6  -2  32   15.40    6.30
  -6   2  32    8.10    4.50
  -5  -2  32    6.90    4.80
  -5   2  32   -2.60    3.40
  -4  -2  32   95.19    9.80
  -4   2  32   98.99    9.30
  -3  -2  32   10.10    5.00
  -3   2  32   13.50    4.70
  -2  -2  32    0.80    4.20
  -2   2  32    0.10    4.30
  -1  -2  32   86.39    9.40
  -1   2  32   97.79    9.30
   0  -2  32  179.28   11.90
   0   2  32  146.79   11.20
   1  -2  32  100.79   10.20
   1   2  32   91.49    9.20
   2  -2  32    0.50    4.50
   2   2  32    0.90    4.20
   3  -2  32    6.10    5.60
   3   2  32   15.60    6.00
   4  -2  32  108.59   11.10
   4   2  32  100.09   10.30
   5  -2  32    0.20    4.80
   5   2  32    9.10    5.50
   6  -2  32   21.60    6.70
   6   2  32   16.60    6.20
   7  -2  32   18.70    6.30
   7   2  32    8.50    5.80
   8  -2  32   -3.80    4.60
   8   2  32   -1.50    5.20
  -8  -3  32   12.90    5.90
  -7  -3  32   70.49    9.40
  -7   3  32   62.99    8.00
  -6  -3  32   95.69   10.10
  -6   3  32   75.19    8.20
  -5  -3  32    2.20    4.50
  -5   3  32    9.20    4.50
  -4  -3  32   36.40    7.00
  -4   3  32   54.49    7.30
  -3  -3  32  206.68   13.40
  -3   3  32  171.98   11.40
  -2  -3  32   -1.20    5.00
  -2   3  32   10.20    4.90
  -1  -3  32   14.90    5.40
  -1   3  32    6.80    4.30
   0  -3  32   -3.40    5.00
   0   3  32    4.80    4.20
   1  -3  32   15.80    5.60
   1   3  32   19.30    5.40
   2  -3  32   12.00    5.40
   2   3  32   16.60    5.20
   3  -3  32  182.38   12.80
   3   3  32  205.18   12.80
   4  -3  32   61.49    8.50
   4   3  32   36.50    7.10
   5  -3  32    5.80    5.90
   5   3  32    5.80    5.20
   6  -3  32   68.39    9.70
   6   3  32  100.69   10.70
   7  -3  32   76.99    9.80
   7   3  32   56.89    8.70
   8  -3  32    4.80    5.60
   8   3  32   14.50    7.30
  -8  -4  32    0.40    5.60
  -7  -4  32    1.60    4.80
  -6  -4  32    5.80    5.70
  -6   4  32   10.10    4.80
  -5  -4  32    4.90    4.90
  -5   4  32    4.50    4.10
  -4  -4  32   -1.40    5.20
  -4   4  32    0.40    3.90
  -3  -4  32    8.10    5.40
  -3   4  32   20.30    5.30
  -2  -4  32   52.49    8.10
  -2   4  32   45.90    6.80
  -1  -4  32   15.40    5.70
  -1   4  32   10.30    4.70
   0  -4  32   43.90    7.80
   0   4  32   40.60    6.50
   1  -4  32    4.40    5.10
   1   4  32    9.80    4.80
   2  -4  32   54.59    8.20
   2   4  32   42.90    7.00
   3  -4  32   23.50    6.90
   3   4  32   23.70    6.40
   4  -4  32   -2.80    4.60
   4   4  32    4.90    4.90
   5  -4  32    7.20    5.60
   5   4  32    3.50    5.20
   6  -4  32    4.50    6.10
   6   4  32   19.80    6.40
   7  -4  32   -9.20    4.80
   7   4  32    1.30    5.20
   8  -4  32    1.10    5.30
   8   4  32    0.30    5.50
  -7  -5  32   -3.60    4.70
  -6  -5  32   14.80    6.00
  -5  -5  32  -10.00    4.10
  -5   5  32    6.10    4.30
  -4  -5  32    8.00    5.40
  -4   5  32    7.50    4.30
  -3  -5  32    9.20    5.50
  -3   5  32    4.80    4.20
  -2  -5  32    7.90    5.00
  -2   5  32   -0.70    3.50
  -1  -5  32    8.80    5.30
  -1   5  32    8.20    4.10
   0  -5  32   -2.00    5.00
   0   5  32    0.00    3.80
   1  -5  32   -3.80    4.30
   1   5  32    7.80    4.90
   2  -5  32   13.60    5.60
   2   5  32    6.20    5.00
   3  -5  32   14.90    5.80
   3   5  32   17.40    6.10
   4  -5  32    4.30    5.20
   4   5  32    6.20    5.40
   5  -5  32   11.50    6.00
   5   5  32    1.90    4.80
   6  -5  32   25.60    7.40
   6   5  32   19.10    6.40
   7  -5  32   -3.30    5.20
   7   5  32   -0.10    5.90
  -7  -6  32    6.00    5.50
  -6  -6  32    9.00    6.20
  -5  -6  32   50.09    8.10
  -4  -6  32   12.70    5.70
  -4   6  32   -3.30    3.60
  -3  -6  32   85.39   10.10
  -3   6  32   87.19    8.60
  -2  -6  32   90.79   10.60
  -2   6  32   92.39    8.80
  -1  -6  32    1.30    5.10
  -1   6  32    3.10    4.30
   0  -6  32    5.00    5.20
   0   6  32   -0.70    4.10
   1  -6  32    1.50    5.70
   1   6  32   15.00    5.00
   2  -6  32   73.29    9.40
   2   6  32   70.49    8.80
   3  -6  32   93.29   10.40
   3   6  32   98.79   10.10
   4  -6  32   -2.50    4.40
   4   6  32    4.60    5.20
   5  -6  32   52.89    8.50
   5   6  32   46.90    8.10
   6  -6  32   -0.30    4.60
   6   6  32    8.40    5.60
   7  -6  32   11.10    6.10
  -7  -6 -32    8.80    6.20
   7   6  32   14.20    6.80
  -6  -7  32   20.70    7.20
  -5  -7  32   -8.30    4.10
  -4  -7  32   91.59   10.80
  -3  -7  32  122.89   11.90
  -3   7  32  109.29    9.60
  -2  -7  32    6.60    5.60
  -2   7  32   -1.50    3.70
  -1  -7  32   -0.40    5.00
  -1   7  32    6.60    4.30
   0  -7  32    6.80    5.50
   0   7  32   -1.60    3.80
   1  -7  32   15.30    5.90
   1   7  32    1.70    4.50
   2  -7  32    3.40    5.50
   2   7  32    4.90    4.90
   3  -7  32  114.49   11.80
   3   7  32  112.09   10.80
   4  -7  32   92.19   10.60
   4   7  32   73.89    9.80
   5  -7  32    4.30    5.90
  -5  -7 -32    2.40    4.80
   5   7  32   -2.00    4.70
   6  -7  32   26.00    7.50
  -6  -7 -32   18.00    6.70
   6   7  32   11.70    6.00
  -5  -8  32   -2.00    5.40
  -4  -8  32    1.10    5.10
   3  -8 -32   -4.40    2.60
  -3  -8  32    1.90    5.80
   2  -8 -32    6.90    3.70
  -2  -8  32    8.70    6.30
  -1  -8  32    2.80    5.20
  -1   8  32    2.40    4.10
   0  -8  32  142.29   13.10
   0   8  32  159.08   11.10
   1  -8  32    6.80    5.60
  -1  -8 -32   -3.10    4.00
   1   8  32    5.50    4.20
   2  -8  32   15.10    6.00
  -2  -8 -32    9.00    5.00
   2   8  32    8.40    4.70
   3  -8  32   -7.80    4.90
  -3  -8 -32    4.00    4.70
   3   8  32    0.70    4.90
  -4  -8 -32   -2.20    4.10
   4  -8  32   -2.10    5.40
   4   8  32   -2.30    4.40
  -5  -8 -32    5.60    5.80
   5  -8  32   -4.00    5.30
   5   8  32    1.50    4.70
  -4  -9  32   23.40    8.00
  -3  -9  32   12.70    6.40
  -2  -9  32   17.10    7.50
   2  -9 -32   22.20    4.10
   1  -9 -32   23.70    4.90
  -1  -9  32   16.70    7.20
   0  -9 -32   -3.00    3.50
   0  -9  32    0.40    5.10
   0   9  32    4.50    4.70
  -1  -9 -32   17.10    5.20
   1  -9  32   18.20    6.80
   1   9  32   26.20    6.10
   2  -9  32   21.40    7.40
  -2  -9 -32    9.80    5.00
   2   9  32   12.80    5.50
   3  -9  32   14.30    6.10
  -3  -9 -32    9.60    5.30
   3   9  32   23.60    6.60
   4  -9  32   19.20    6.80
  -4  -9 -32   22.20    6.10
   4   9  32   10.80    5.60
  -1 -10  32   78.39   10.10
   1 -10 -32   83.59    7.00
   0 -10  32  153.78   14.00
   0 -10 -32  128.89    9.00
   1 -10  32   93.89   11.10
  -1 -10 -32   95.09    8.80
   1  10  32  105.69   11.40
  -8   0  33    1.80    4.30
  -7   0  33   -3.10    4.60
  -6   0  33   -4.40    4.30
  -5   0  33   -3.90    4.20
  -4   0  33   -9.60    4.00
  -3   0  33   -4.40    3.70
  -2   0  33    4.50    4.50
  -1   0  33   -1.20    3.90
   0   0  33    1.30    4.20
   1   0  33   -7.80    3.70
   2   0  33    0.30    4.70
   3   0  33   -3.70    4.40
   4   0  33   -7.10    4.40
   5   0  33   -7.70    4.60
   6   0  33    1.50    5.40
   7   0  33   -4.20    4.90
   8   0  33   -3.50    5.80
  -8  -1  33   13.10    5.90
  -8   1  33    2.40    5.10
  -7  -1  33   25.70    6.40
  -7   1  33   34.80    6.90
  -6  -1  33   16.30    5.70
  -6   1  33   24.00    6.20
  -5  -1  33   13.20    5.10
  -5   1  33   12.00    4.90
  -4  -1  33   26.00    5.90
  -4   1  33   30.70    6.00
  -3  -1  33    4.00    4.50
  -3   1  33    4.70    4.40
  -2  -1  33   36.50    7.10
  -2   1  33   23.30    5.80
  -1  -1  33  176.08   11.90
  -1   1  33  167.08   11.30
   0  -1  33    6.30    4.90
   0   1  33    4.50    4.70
   1  -1  33  171.88   12.10
   1   1  33  173.28   11.80
   2  -1  33   33.10    6.80
   2   1  33   28.00    6.40
   3  -1  33   -1.70    4.80
   3   1  33    4.40    4.80
   4  -1  33   38.50    7.60
   4   1  33   22.70    6.60
   5  -1  33   14.90    6.10
   5   1  33    9.80    5.60
   6  -1  33   42.40    7.80
   6   1  33   16.20    6.20
   7  -1  33   14.30    6.90
   7   1  33   27.70    7.30
   8  -1  33   12.30    6.80
   8   1  33   24.70    7.40
  -8  -2  33    0.70    5.40
  -7  -2  33   26.60    6.90
  -7   2  33   17.50    5.80
  -6  -2  33   39.40    7.40
  -6   2  33   47.10    7.40
  -5  -2  33  333.67   16.80
  -5   2  33  306.67   15.80
  -4  -2  33    3.30    4.40
  -4   2  33   -0.70    4.20
  -3  -2  33   26.20    6.20
  -3   2  33   30.00    6.20
  -2  -2  33   23.90    6.20
  -2   2  33   19.30    5.40
  -1  -2  33   11.50    5.10
  -1   2  33    0.80    4.60
   0  -2  33   21.10    5.80
   0   2  33   14.90    5.60
   1  -2  33    2.40    4.50
   1   2  33    7.30    4.60
   2  -2  33   25.10    6.30
   2   2  33   19.60    5.70
   3  -2  33   47.00    8.30
   3   2  33   26.10    6.40
   4  -2  33    1.40    5.00
   4   2  33    0.20    4.80
   5  -2  33  329.57   18.00
   5   2  33  339.57   18.00
   6  -2  33   47.70    8.50
   6   2  33   40.80    8.00
   7  -2  33   24.30    7.40
   7   2  33   38.40    7.80
   8  -2  33   -4.50    4.60
   8   2  33    0.40    6.10
  -7  -3  33   11.90    5.70
  -6  -3  33   15.30    5.70
  -6   3  33    4.70    4.80
  -5  -3  33   37.70    7.20
  -5   3  33   36.00    6.60
  -4  -3  33   36.80    7.10
  -4   3  33   25.30    5.50
  -3  -3  33    9.30    5.40
  -3   3  33   13.80    5.50
  -2  -3  33    0.40    4.70
  -2   3  33   -1.60    3.60
  -1  -3  33   -1.70    4.50
  -1   3  33    4.00    4.30
   0  -3  33   -2.90    4.30
   0   3  33   -2.90    4.20
   1  -3  33   -0.80    4.70
   1   3  33   -6.50    3.40
   2  -3  33    3.90    5.10
   2   3  33    1.40    4.60
   3  -3  33   10.20    5.70
   3   3  33    8.00    4.90
   4  -3  33   12.10    5.90
   4   3  33   19.30    6.00
   5  -3  33   46.40    8.30
   5   3  33   54.19    8.50
   6  -3  33   10.30    6.60
   6   3  33   16.70    6.30
   7  -3  33   10.90    6.10
   7   3  33   18.40    7.00
  -7  -4  33   23.60    6.80
  -6  -4  33    1.20    5.60
  -5  -4  33  198.08   13.90
  -5   4  33  184.58   11.70
  -4  -4  33   -2.40    4.20
  -4   4  33    2.40    4.30
  -3  -4  33    3.60    5.60
  -3   4  33    4.20    4.30
  -2  -4  33    9.80    5.30
  -2   4  33    6.20    4.00
  -1  -4  33   19.90    6.10
  -1   4  33   18.50    5.10
   0  -4  33    7.90    5.50
   0   4  33    1.90    4.10
   1  -4  33   26.80    6.70
   1   4  33   17.20    5.40
   2  -4  33   -7.60    5.00
   2   4  33    6.90    5.10
   3  -4  33    1.70    4.90
   3   4  33   -0.10    4.40
   4  -4  33    6.30    5.60
   4   4  33   -1.60    4.50
   5  -4  33  224.28   15.30
   5   4  33  209.28   14.00
   6  -4  33    3.60    5.70
   6   4  33    9.40    5.60
   7  -4  33   22.10    7.10
   7   4  33   25.60    7.00
  -6  -5  33    0.90    4.90
  -5  -5  33   35.70    7.40
  -4  -5  33    2.40    5.00
  -4   5  33    0.60    3.90
  -3  -5  33   10.70    6.10
  -3   5  33    1.70    4.20
  -2  -5  33    5.20    5.30
  -2   5  33    9.20    4.70
  -1  -5  33  323.27   17.30
  -1   5  33  302.57   15.30
   0  -5  33    6.10    5.60
   0   5  33   -1.90    4.40
   1  -5  33  348.67   17.80
   1   5  33  293.57   15.60
   2  -5  33    5.60    5.40
   2   5  33   14.60    5.30
   3  -5  33    3.60    5.10
   3   5  33    4.40    4.70
   4  -5  33    6.20    5.30
   4   5  33   -6.50    4.70
   5  -5  33   24.70    6.90
   5   5  33   16.80    6.20
   6  -5  33   12.40    5.90
   6   5  33    7.30    5.50
  -6  -6  33   -9.20    5.50
  -5  -6  33    5.20    6.20
  -4  -6  33   74.39    9.90
  -3  -6  33    2.90    5.30
  -3   6  33    3.70    3.70
  -2  -6  33   18.40    6.40
  -2   6  33   33.70    6.20
  -1  -6  33    0.50    5.10
  -1   6  33    5.10    4.70
   0  -6  33  -12.50    4.80
   0   6  33   -2.30    4.10
   1  -6  33   -9.20    4.40
   1   6  33    9.60    4.70
   2  -6  33   19.90    6.50
   2   6  33   22.30    6.20
   3  -6  33    4.30    6.10
   3   6  33    2.20    4.80
   4  -6  33   79.09   10.30
   4   6  33   73.99    9.30
   5  -6  33   12.20    6.50
   5   6  33   10.10    6.30
   6  -6  33    0.60    5.70
   6   6  33   -0.90    5.00
  -5  -7  33    6.50    6.30
  -4  -7  33   22.00    7.00
  -3  -7  33   32.30    7.30
  -2  -7  33   12.70    6.10
  -2   7  33   16.50    5.20
  -1  -7  33  103.49   11.40
  -1   7  33  124.19   10.70
   0  -7  33   -2.60    5.20
   0   7  33   -0.60    4.30
   1  -7  33  109.09   12.20
   1   7  33   95.69    9.80
   2  -7  33   17.80    6.30
   2   7  33   12.00    5.80
   3  -7  33   11.10    6.20
   3   7  33   17.50    6.00
   4  -7  33   22.90    7.40
   4   7  33   16.50    6.50
   5  -7  33    7.10    5.60
  -5  -7 -33    8.60    5.60
   5   7  33   12.30    6.30
  -4  -8  33   -0.30    5.60
  -3  -8  33   -1.40    5.70
   3  -8 -33    3.90    3.10
   2  -8 -33    1.80    3.30
  -2  -8  33   -7.90    4.80
  -1  -8  33   32.70    7.90
  -1   8  33   39.40    6.80
   0  -8  33   39.30    7.70
   0   8  33   45.90    7.40
  -1  -8 -33   53.89    7.40
   1  -8  33   47.80    8.60
   1   8  33   46.60    7.50
   2  -8  33   -3.70    4.70
  -2  -8 -33    1.10    4.30
   2   8  33    0.20    4.60
  -3  -8 -33    6.20    5.20
   3  -8  33    3.40    5.40
   3   8  33   -3.30    4.80
  -4  -8 -33    1.10    5.00
   4  -8  33   -5.80    5.20
   4   8  33    2.10    4.80
   2  -9 -33   53.99    5.90
  -2  -9  33   63.39   10.00
  -1  -9  33   12.10    6.90
   1  -9 -33    5.80    3.80
   0  -9 -33    0.00    3.70
   0  -9  33    0.00    6.10
   0   9  33   -5.70    4.30
   1  -9  33    2.90    5.20
  -1  -9 -33    6.20    4.70
   1   9  33    0.80    4.60
   2  -9  33   62.89    9.40
  -2  -9 -33   65.59    8.20
   2   9  33   55.59    8.30
  -7   0  34  100.19   10.50
  -6   0  34   42.80    7.60
  -5   0  34   -1.50    4.40
  -4   0  34  178.28   11.90
  -3   0  34  127.09   10.20
  -2   0  34    2.00    4.30
  -1   0  34    4.00    4.80
   0   0  34   30.10    6.40
   1   0  34    7.20    5.10
   2   0  34    7.90    5.20
   3   0  34  142.29   11.60
   4   0  34  161.38   12.40
   5   0  34    1.70    5.30
   6   0  34   50.49    8.70
   7   0  34  120.69   12.60
  -7  -1  34    6.50    5.00
  -7   1  34    8.80    5.20
  -6  -1  34    6.80    5.80
  -6   1  34   11.90    5.40
  -5  -1  34   25.30    6.30
  -5   1  34   15.80    5.80
  -4  -1  34    6.40    4.70
  -4   1  34   -1.20    4.70
  -3  -1  34  103.69   10.40
  -3   1  34  115.59    9.60
  -2  -1  34   14.90    5.60
  -2   1  34   20.20    5.90
  -1  -1  34    7.80    5.00
  -1   1  34   22.50    6.40
   0  -1  34   -0.70    4.50
   0   1  34    0.40    4.40
   1  -1  34   20.30    6.50
   1   1  34   18.00    5.50
   2  -1  34   20.30    6.40
   2   1  34   29.30    6.50
   3  -1  34  107.19   11.00
   3   1  34  120.19   11.40
   4  -1  34    4.70    5.30
   4   1  34    1.90    4.90
   5  -1  34   22.70    6.90
   5   1  34   40.80    7.90
   6  -1  34    4.60    5.80
   6   1  34    4.00    5.50
   7  -1  34    4.50    5.50
   7   1  34    0.70    5.50
  -7  -2  34   33.30    7.60
  -7   2  34   23.80    6.30
  -6  -2  34   24.70    7.00
  -6   2  34   24.60    6.20
  -5  -2  34    5.20    5.40
  -5   2  34   14.90    5.00
  -4  -2  34   68.29    8.60
  -4   2  34   72.29    8.40
  -3  -2  34   48.80    8.20
  -3   2  34   45.50    7.20
  -2  -2  34   36.80    7.10
  -2   2  34   42.50    6.90
  -1  -2  34    4.40    4.90
  -1   2  34    0.30    4.10
   0  -2  34    2.30    5.00
   0   2  34   13.00    5.30
   1  -2  34   -0.60    4.60
   1   2  34    3.30    4.60
   2  -2  34   25.70    6.80
   2   2  34   37.00    7.30
   3  -2  34   46.70    8.60
   3   2  34   37.50    7.30
   4  -2  34   99.29   11.30
   4   2  34   78.79    9.80
   5  -2  34    9.10    6.50
   5   2  34   11.00    6.00
   6  -2  34   38.00    7.90
   6   2  34   23.00    7.20
   7  -2  34   27.40    7.50
   7   2  34   41.80    8.30
  -7  -3  34   42.90    7.90
  -6  -3  34   -0.50    5.30
  -6   3  34    6.60    4.90
  -5  -3  34  100.79   10.70
  -5   3  34   92.59    9.20
  -4  -3  34    7.00    5.60
  -4   3  34    4.40    4.10
  -3  -3  34  178.78   13.10
  -3   3  34  147.69   11.20
  -2  -3  34   64.49    8.90
  -2   3  34   75.09    8.40
  -1  -3  34   41.50    7.50
  -1   3  34   42.10    7.10
   0  -3  34   -1.00    4.70
   0   3  34   -8.10    4.00
   1  -3  34   39.70    7.60
   1   3  34   41.30    7.40
   2  -3  34   60.09    9.10
   2   3  34   54.39    7.90
   3  -3  34  154.88   13.50
   3   3  34  158.38   11.90
   4  -3  34   10.90    6.60
   4   3  34    2.60    5.10
   5  -3  34  122.19   12.20
   5   3  34   85.29   10.40
   6  -3  34    1.10    5.30
   6   3  34    3.00    5.40
   7  -3  34   24.10    7.30
   7   3  34   41.00    8.40
  -6  -4  34   22.90    7.10
  -5  -4  34   32.30    7.40
  -5   4  34   38.90    6.70
  -4  -4  34    4.20    5.30
  -4   4  34   -1.90    4.10
  -3  -4  34   -1.10    4.60
  -3   4  34    6.90    4.50
  -2  -4  34   75.69    9.70
  -2   4  34   56.59    7.90
  -1  -4  34  125.79   11.80
  -1   4  34  148.39   10.60
   0  -4  34   62.29    9.30
   0   4  34   53.89    7.70
   1  -4  34  144.69   12.00
   1   4  34  148.19   11.50
   2  -4  34   57.79    9.00
   2   4  34   79.59    9.40
   3  -4  34    2.20    5.20
   3   4  34    7.40    5.00
   4  -4  34   -2.00    5.00
   4   4  34   -2.20    4.50
   5  -4  34   31.20    7.40
   5   4  34   30.20    7.40
   6  -4  34   38.90    8.40
   6   4  34   17.40    6.60
  -6  -5  34    3.50    5.30
  -5  -5  34    8.70    6.40
  -4  -5  34    0.40    5.00
  -4   5  34   -0.90    4.10
  -3  -5  34   23.50    6.80
  -3   5  34   25.70    6.00
  -2  -5  34   18.40    6.20
  -2   5  34    8.90    5.00
  -1  -5  34   10.20    5.90
  -1   5  34   14.50    5.10
   0  -5  34   -4.50    4.60
   0   5  34   -3.10    4.40
   1  -5  34    7.70    5.90
   1   5  34   12.40    5.30
   2  -5  34   25.90    7.40
   2   5  34   11.20    5.60
   3  -5  34   21.80    7.30
   3   5  34   22.30    6.20
   4  -5  34   11.40    5.90
   4   5  34   -6.40    5.00
   5  -5  34   -1.30    5.10
   5   5  34    8.50    6.00
   6  -5  34   -6.30    5.50
   6   5  34    3.50    6.10
  -5  -6  34   13.20    6.40
  -4  -6  34   41.80    8.80
  -3  -6  34   31.00    7.50
  -3   6  34   34.50    6.40
  -2  -6  34   53.99    8.80
  -2   6  34   55.29    7.60
  -1  -6  34   55.09    8.80
  -1   6  34   55.99    7.80
   0  -6  34   46.50    8.50
   0   6  34   39.00    7.10
   1  -6  34   51.79    8.70
   1   6  34   56.99    8.20
   2  -6  34   67.99    9.60
   2   6  34   50.79    7.80
   3  -6  34   31.30    7.40
   3   6  34   39.30    7.30
   4  -6  34   45.20    8.40
   4   6  34   43.70    8.10
   5  -6  34   -2.40    5.80
   5   6  34   13.90    6.50
  -4  -7  34   -2.70    6.20
  -3  -7  34   67.09    9.70
  -2  -7  34   82.39   10.40
  -2   7  34   63.29    8.10
  -1  -7  34   18.00    6.80
  -1   7  34   14.30    5.20
   0  -7  34    6.70    6.00
   0   7  34    1.40    3.90
   1  -7  34    4.60    6.10
   1   7  34    8.50    5.30
   2  -7  34   62.39    9.30
   2   7  34   54.59    8.40
   3  -7  34   52.99    8.80
   3   7  34   72.69    9.60
   4  -7  34   -1.30    5.80
   4   7  34   -5.20    5.00
  -3  -8  34   31.00    8.10
  -2  -8  34   -3.90    5.90
   2  -8 -34    0.70    3.40
  -1  -8  34   32.20    7.90
   0  -8  34   18.70    7.00
   0   8  34   22.40    5.70
   1  -8  34   19.70    7.40
  -1  -8 -34   26.20    6.00
   1   8  34   19.10    6.10
  -2  -8 -34    0.70    4.80
   2  -8  34    3.00    5.30
   2   8  34   -0.90    4.70
   3  -8  34   23.50    7.10
   3   8  34   33.60    6.90
  -6   0  35   -2.40    4.90
  -5   0  35    2.40    5.10
  -4   0  35    8.20    5.40
  -3   0  35    5.30    5.40
  -2   0  35   -3.40    4.10
  -1   0  35   -1.30    4.20
   0   0  35   -3.70    4.10
   1   0  35   -1.00    4.60
   2   0  35    4.50    4.90
   3   0  35   -1.90    5.00
   4   0  35    3.60    5.30
   5   0  35   -3.70    5.10
   6   0  35   -4.70    5.70
  -6  -1  35  436.06   20.50
  -6   1  35  409.46   19.30
  -5  -1  35   19.70    6.00
  -5   1  35   23.50    6.30
  -4  -1  35   87.99   10.00
  -4   1  35  108.99   10.60
  -3  -1  35   -1.10    4.90
  -3   1  35    2.10    4.50
  -2  -1  35    8.40    5.30
  -2   1  35   10.50    5.70
  -1  -1  35   85.39    9.90
  -1   1  35   95.09    9.80
   0  -1  35    3.20    4.90
   0   1  35    0.50    4.30
   1  -1  35  101.99   10.70
   1   1  35   96.59   10.80
   2  -1  35    9.30    5.90
   2   1  35    0.40    4.60
   3  -1  35    4.90    5.60
   3   1  35   -0.50    5.00
   4  -1  35   91.99   10.80
   4   1  35   87.39   10.30
   5  -1  35   12.80    6.20
   5   1  35   37.80    7.80
   6  -1  35  414.96   21.30
   6   1  35  419.76   21.40
  -6  -2  35    5.90    5.50
  -6   2  35    6.70    5.20
  -5  -2  35   20.00    6.40
  -5   2  35   10.50    5.60
  -4  -2  35   13.00    5.80
  -4   2  35    9.30    5.20
  -3  -2  35    9.30    5.30
  -3   2  35   -1.50    4.80
  -2  -2  35   52.69    8.30
  -2   2  35   71.99    8.70
  -1  -2  35   16.30    6.00
  -1   2  35    5.90    5.50
   0  -2  35  654.13   26.40
   0   2  35  593.14   25.10
   1  -2  35   10.70    6.40
   1   2  35   15.20    5.50
   2  -2  35   62.09    9.20
   2   2  35   73.59    9.00
   3  -2  35   10.00    5.80
   3   2  35   -0.30    5.40
   4  -2  35    9.80    5.80
   4   2  35    2.80    5.10
   5  -2  35   15.60    6.60
   5   2  35   31.50    7.30
   6  -2  35   15.40    6.50
   6   2  35   11.00    6.40
  -6  -3  35    8.10    6.30
  -6   3  35    0.50    4.50
  -5  -3  35   25.30    7.10
  -5   3  35   15.70    5.70
  -4  -3  35   22.10    6.40
  -4   3  35   18.00    5.80
  -3  -3  35   -0.20    4.90
  -3   3  35    2.20    4.50
  -2  -3  35    7.30    5.20
  -2   3  35    9.40    5.30
  -1  -3  35    8.40    5.60
  -1   3  35    3.70    4.40
   0  -3  35   -1.70    5.00
   0   3  35   -8.30    3.60
   1  -3  35   -4.70    4.50
   1   3  35    8.20    5.60
   2  -3  35    3.00    5.40
   2   3  35    1.50    5.20
   3  -3  35    3.20    5.40
   3   3  35   -0.30    5.10
   4  -3  35   13.20    7.00
   4   3  35   12.80    6.60
   5  -3  35   32.20    8.30
   5   3  35   34.60    7.60
   6  -3  35   16.50    7.30
   6   3  35    1.20    5.80
  -5  -4  35   22.20    6.50
  -5   4  35   17.10    5.70
  -4  -4  35   36.80    8.30
  -4   4  35   30.30    6.50
  -3  -4  35    3.10    5.50
  -3   4  35   -8.10    3.80
  -2  -4  35   18.00    6.30
  -2   4  35   37.50    6.60
  -1  -4  35   -1.80    4.70
  -1   4  35    9.20    5.20
   0  -4  35  299.07   16.80
   0   4  35  285.87   15.40
   1  -4  35    7.60    5.70
   1   4  35    7.50    5.60
   2  -4  35   18.80    6.80
   2   4  35   30.30    6.80
   3  -4  35    5.80    5.90
   3   4  35   -1.10    4.50
   4  -4  35   37.10    8.20
   4   4  35   34.40    7.80
   5  -4  35   33.50    7.70
   5   4  35   17.00    6.40
  -5  -5  35    2.70    5.60
  -4  -5  35  175.98   14.00
  -4   5  35  177.68   11.90
  -3  -5  35    2.70    5.30
  -3   5  35   12.10    4.90
  -2  -5  35   18.80    7.40
  -2   5  35   18.90    5.60
  -1  -5  35   18.30    6.50
  -1   5  35   10.40    4.90
   0  -5  35   -0.40    4.80
   0   5  35   -6.20    3.80
   1  -5  35   11.10    6.70
   1   5  35   21.20    6.30
   2  -5  35   25.50    7.20
   2   5  35   29.90    6.70
   3  -5  35    4.60    5.70
   3   5  35   11.40    6.00
   4  -5  35  207.88   14.50
   4   5  35  184.18   13.40
   5  -5  35   -2.80    5.10
   5   5  35   -4.60    4.90
  -4  -6  35   18.00    6.70
  -3  -6  35    0.70    5.30
  -3   6  35    0.10    4.90
  -2  -6  35   16.20    6.50
  -2   6  35    5.20    4.80
  -1  -6  35    2.20    6.00
  -1   6  35   -0.10    4.00
   0  -6  35   21.70    6.70
   0   6  35   12.50    5.30
   1  -6  35   11.30    6.20
   1   6  35    5.60    4.70
   2  -6  35    5.40    5.90
   2   6  35    0.30    4.70
   3  -6  35   -0.60    5.20
   3   6  35   -0.90    4.90
   4  -6  35   19.10    6.90
   4   6  35   22.40    6.90
  -3  -7  35    5.30    5.90
  -2  -7  35   48.90    8.70
  -1  -7  35    4.80    6.10
  -1   7  35    6.10    5.00
   0  -7  35   -1.00    5.20
   0   7  35   -3.50    4.50
   1  -7  35   12.50    6.30
   1   7  35    8.00    4.70
   2  -7  35   49.80    8.70
   2   7  35   41.50    7.40
   3  -7  35   -0.20    5.90
   3   7  35    4.50    5.60
  -5   0  36    4.70    5.30
  -4   0  36  356.86   17.90
  -3   0  36   21.70    6.20
  -2   0  36  111.39   10.90
  -1   0  36    1.30    5.40
   0   0  36   10.50    5.50
   1   0  36    2.10    4.70
   2   0  36  110.19   11.90
   3   0  36   25.10    6.80
   4   0  36  391.06   20.30
   5   0  36    8.90    7.20
  -5  -1  36   26.30    6.90
  -5   1  36   22.50    6.20
  -4  -1  36   12.30    5.20
  -4   1  36    3.40    5.20
  -3  -1  36   20.30    6.30
  -3   1  36   15.20    5.60
  -2  -1  36   52.99    8.40
  -2   1  36   58.09    8.50
  -1  -1  36    4.90    5.80
  -1   1  36   11.00    5.40
   0  -1  36    4.90    5.00
   0   1  36   -0.10    4.60
   1  -1  36   -8.10    5.00
   1   1  36    1.80    4.80
   2  -1  36   59.39    8.80
   2   1  36   53.89    8.30
   3  -1  36   19.50    6.80
   3   1  36    7.80    5.50
   4  -1  36    1.60    6.10
   4   1  36    2.00    5.50
   5  -1  36   28.20    7.80
   5   1  36   31.20    7.80
  -5  -2  36   17.20    6.20
  -5   2  36   27.60    6.30
  -4  -2  36   -5.10    5.10
  -4   2  36    6.10    5.30
  -3  -2  36   33.70    7.20
  -3   2  36   45.50    7.80
  -2  -2  36   18.00    6.60
  -2   2  36    7.40    5.30
  -1  -2  36   23.30    6.50
  -1   2  36   13.30    5.40
   0  -2  36   25.80    6.70
   0   2  36   39.30    7.60
   1  -2  36   14.10    6.00
   1   2  36   22.80    6.80
   2  -2  36   16.40    6.40
   2   2  36   18.30    6.10
   3  -2  36   40.40    8.30
   3   2  36   39.00    7.60
   4  -2  36   10.80    6.40
   4   2  36    3.40    5.50
   5  -2  36   17.50    6.80
   5   2  36   28.30    7.30
  -5  -3  36   12.60    5.90
  -5   3  36    3.70    4.80
  -4  -3  36   31.60    7.90
  -4   3  36   38.10    7.10
  -3  -3  36   23.30    6.60
  -3   3  36   19.80    5.70
  -2  -3  36  170.68   13.50
  -2   3  36  159.68   11.40
  -1  -3  36   -5.50    4.50
  -1   3  36    3.30    5.00
   0  -3  36    2.80    5.30
   0   3  36   -0.70    4.40
   1  -3  36   -3.80    4.80
   1   3  36    3.60    5.50
   2  -3  36  194.68   14.00
   2   3  36  203.08   13.40
   3  -3  36   19.20    6.70
   3   3  36   29.00    6.90
   4  -3  36   49.99    9.60
   4   3  36   22.80    7.00
   5  -3  36    9.20    6.30
   5   3  36   16.50    6.50
  -4  -4  36   64.59    9.30
  -4   4  36   81.29    9.10
  -3  -4  36    1.70    5.40
  -3   4  36   -2.30    4.40
  -2  -4  36    8.30    5.50
  -2   4  36    6.50    5.20
  -1  -4  36    8.00    5.60
  -1   4  36   23.60    6.40
   0  -4  36    4.20    5.50
   0   4  36   -1.20    4.50
   1  -4  36   14.20    6.30
   1   4  36   20.00    5.90
   2  -4  36    2.70    5.60
   2   4  36   12.00    5.40
   3  -4  36    2.20    5.70
   3   4  36    0.00    4.80
   4  -4  36   64.59   10.00
   4   4  36   52.39    8.80
  -3  -5  36    8.80    6.00
  -3   5  36    0.30    4.50
  -2  -5  36   24.20    7.40
  -2   5  36   26.90    6.10
  -1  -5  36    2.70    5.60
  -1   5  36   16.80    5.60
   0  -5  36    3.40    5.60
   0   5  36   -0.60    4.40
   1  -5  36   14.90    6.60
   1   5  36    7.90    5.70
   2  -5  36   31.00    8.30
   2   5  36   21.60    6.70
   3  -5  36   -2.00    5.50
   3   5  36    8.70    5.50
  -2  -6  36   38.50    8.10
  -2   6  36   53.79    7.90
  -1  -6  36   67.39   10.30
  -1   6  36   75.39    8.80
   0  -6  36    7.20    5.90
   0   6  36   10.90    5.10
   1  -6  36   65.49    9.80
   1   6  36   71.69    9.30
   2  -6  36   39.20    8.20
   2   6  36   47.40    8.20
  -4   0  37   10.20    5.30
  -3   0  37    8.30    5.20
  -2   0  37   -1.60    4.80
  -1   0  37    2.30    5.00
   0   0  37   -4.70    4.30
   1   0  37    1.70    4.90
   2   0  37    5.30    5.40
   3   0  37   -0.80    5.30
   4   0  37   -7.30    4.80
  -4  -1  37    2.20    5.10
  -4   1  37    8.40    5.60
  -3  -1  37   -1.10    4.70
  -3   1  37   -3.20    5.00
  -2  -1  37   24.80    6.80
  -2   1  37   40.60    7.80
  -1  -1  37  252.87   15.80
  -1   1  37  240.38   14.70
   0  -1  37   -2.70    5.10
   0   1  37   -0.60    4.80
   1  -1  37  258.27   15.90
   1   1  37  256.47   15.30
   2  -1  37   39.90    8.00
   2   1  37   28.90    7.30
   3  -1  37   -5.50    5.30
   3   1  37    5.00    5.50
   4  -1  37    4.20    6.30
   4   1  37    7.20    6.00
  -4  -2  37    9.00    5.80
  -4   2  37    9.10    5.60
  -3  -2  37    5.00    5.80
  -3   2  37    4.20    5.20
  -2  -2  37    6.00    6.10
  -2   2  37   -1.10    4.90
  -1  -2  37   -2.00    5.10
  -1   2  37   -4.60    4.60
   0  -2  37   26.00    7.00
   0   2  37   42.00    7.70
   1  -2  37   14.10    6.60
   1   2  37    6.60    5.80
   2  -2  37   -4.40    4.80
   2   2  37    1.10    5.00
   3  -2  37    5.20    6.00
   3   2  37    0.00    5.20
   4  -2  37    9.40    6.30
   4   2  37   17.50    6.70
  -4  -3  37   49.60    8.60
  -4   3  37   49.99    8.00
  -3  -3  37    0.10    6.20
  -3   3  37   -2.20    4.10
  -2  -3  37    4.80    6.20
  -2   3  37   -0.70    4.40
  -1  -3  37    8.50    6.00
  -1   3  37    9.30    5.40
   0  -3  37   -4.90    4.40
   0   3  37    6.40    5.00
   1  -3  37   16.50    7.30
   1   3  37   13.30    5.60
   2  -3  37   -8.20    4.70
   2   3  37    5.00    5.20
   3  -3  37   -3.30    5.20
   3   3  37    1.40    5.30
   4  -3  37   33.30    8.50
   4   3  37   41.90    8.50
  -3  -4  37   -1.00    5.20
  -3   4  37    1.00    4.70
  -2  -4  37    4.00    5.40
  -2   4  37    2.10    4.40
  -1  -4  37   30.60    7.90
  -1   4  37   25.20    6.30
   0  -4  37   99.49   11.70
   0   4  37   92.59   10.30
   1  -4  37   23.50    7.10
   1   4  37   14.60    6.00
   2  -4  37    0.90    5.40
   2   4  37    4.70    5.80
   3  -4  37   -9.50    5.40
   3   4  37   -0.90    4.90
  -2  -5  37   20.00    7.20
  -2   5  37   21.20    6.30
  -1  -5  37  129.09   12.60
  -1   5  37  119.49   11.30
   0  -5  37   -7.00    4.90
   0   5  37    5.40    5.10
   1  -5  37  118.69   12.70
   1   5  37  122.69   11.80
   2  -5  37   13.10    6.50
   2   5  37   21.80    6.30
  -3   0  38   17.10    6.20
  -2   0  38   59.89    8.90
  -1   0  38  125.19   11.80
   0   0  38   11.80    6.60
   1   0  38  134.89   12.80
   2   0  38   63.79    9.50
   3   0  38   11.50    6.40
  -3  -1  38   49.30    8.40
  -3   1  38   51.89    8.80
  -2  -1  38    8.30    5.80
  -2   1  38    4.60    5.70
  -1  -1  38   12.90    5.70
  -1   1  38   -4.20    5.00
   0  -1  38    1.20    5.30
   0   1  38   -4.40    4.30
   1  -1  38   14.10    7.00
   1   1  38    9.60    5.50
   2  -1  38    6.90    5.90
   2   1  38    6.10    5.60
   3  -1  38   43.90    8.40
   3   1  38   47.70    8.60
  -2  -2  38   33.30    7.40
  -2   2  38   23.20    6.60
  -1  -2  38   38.20    8.10
  -1   2  38   47.30    8.00
   0  -2  38    7.90    6.10
   0   2  38   31.90    7.40
   1  -2  38   34.80    7.90
   1   2  38   57.49    8.70
   2  -2  38   35.50    8.00
   2   2  38   28.00    7.30
  -2  -3  38   -3.80    4.80
  -2   3  38    3.10    5.40
  -1  -3  38   -6.20    5.10
  -1   3  38   -5.50    4.70
   0  -3  38    4.20    6.30
   0   3  38   -6.60    4.80
   1  -3  38   -0.40    5.60
   1   3  38   -4.20    4.70
   2  -3  38    2.40    5.50
   2   3  38    4.30    5.40

_computing_structure_solution     'SHELXT 2014/4 (Sheldrick, 2014)'
;
_shelx_hkl_checksum              29582
loop_
_space_group_symop_operation_xyz
'x, y, z'
'-x+1/2, -y, z+1/2'
'-x, y+1/2, -z+1/2'
'x+1/2, -y+1/2, -z'
'-x, -y, -z'
'x-1/2, y, -z-1/2'
'x, -y-1/2, z-1/2'
'-x-1/2, y-1/2, z'
loop_
_atom_site_label
_atom_site_type_symbol
_atom_site_fract_x
_atom_site_fract_y
_atom_site_fract_z
_atom_site_U_iso_or_equiv
_atom_site_adp_type
_atom_site_occupancy
_atom_site_site_symmetry_order
_atom_site_calc_flag
_atom_site_refinement_flags_posn
_atom_site_refinement_flags_adp
_atom_site_refinement_flags_occupancy
_atom_site_disorder_assembly
_atom_site_disorder_group
Mn Mn 0.46377(2) 0.40425(2) 0.37746(2) 0.02785(8) Uani 1 1 d . . . . .
S1 S 0.35430(4) 0.58469(3) 0.16528(2) 0.04032(12) Uani 1 1 d . . . . .
O1A O 0.45413(12) 0.49010(10) 0.31904(5) 0.0503(4) Uani 1 1 d . . . . .
O2A O 0.22752(11) 0.76499(9) 0.29854(4) 0.0451(3) Uani 1 1 d . . . . .
N1A N 0.29311(11) 0.67782(9) 0.23946(4) 0.0278(3) Uani 1 1 d . . . . .
N3A N 0.40151(11) 0.53959(9) 0.24991(4) 0.0285(3) Uani 1 1 d . . . . .
C2A C 0.34944(14) 0.60141(11) 0.22127(5) 0.0274(3) Uani 1 1 d . . . . .
C4A C 0.39921(15) 0.55094(13) 0.29674(6) 0.0339(4) Uani 1 1 d . . . . .
C5A C 0.33792(15) 0.62754(13) 0.31341(6) 0.0367(4) Uani 1 1 d . . . . .
H5A H 0.3328 0.6354 0.3441 0.044 Uiso 1 1 calc R U . . .
C6A C 0.28390(14) 0.69284(13) 0.28599(6) 0.0322(4) Uani 1 1 d . . . . .
C7A C 0.23282(15) 0.74749(12) 0.21045(6) 0.0374(4) Uani 1 1 d . . . . .
H71A H 0.2726 0.7537 0.1824 0.045 Uiso 1 1 calc R U . . .
H72A H 0.2319 0.8105 0.2247 0.045 Uiso 1 1 calc R U . . .
C8A C 0.11347(17) 0.71529(14) 0.20159(7) 0.0475(5) Uani 1 1 d . . . . .
H81A H 0.1143 0.6541 0.1865 0.057 Uiso 1 1 calc R U . . .
H82A H 0.0762 0.7624 0.1833 0.057 Uiso 1 1 calc R U . . .
H83A H 0.0740 0.7088 0.2294 0.057 Uiso 1 1 calc R U . . .
C9A C 0.46524(16) 0.45557(12) 0.23234(7) 0.0415(5) Uani 1 1 d . . . . .
H91A H 0.4311 0.4342 0.2046 0.050 Uiso 1 1 calc R U . . .
H92A H 0.4606 0.4027 0.2535 0.050 Uiso 1 1 calc R U . . .
C10A C 0.58745(19) 0.47976(18) 0.22407(10) 0.0699(7) Uani 1 1 d . . . . .
H11A H 0.6260 0.4234 0.2134 0.084 Uiso 1 1 calc R U . . .
H12A H 0.6215 0.5010 0.2514 0.084 Uiso 1 1 calc R U . . .
H13A H 0.5925 0.5303 0.2022 0.084 Uiso 1 1 calc R U . . .
S2 S 0.71857(4) 0.00198(3) 0.46570(2) 0.03689(11) Uani 1 1 d . . . . .
O1B O 0.51656(10) 0.30572(8) 0.42939(4) 0.0335(3) Uani 1 1 d . . . . .
O2B O 0.32430(10) 0.01161(9) 0.41295(5) 0.0431(3) Uani 1 1 d . . . . .
N1B N 0.50565(11) 0.01540(9) 0.43837(4) 0.0272(3) Uani 1 1 d . . . . .
N3B N 0.60362(11) 0.16110(9) 0.44296(4) 0.0252(3) Uani 1 1 d . . . . .
C2B C 0.60327(13) 0.06278(11) 0.44765(5) 0.0256(3) Uani 1 1 d . . . . .
C4B C 0.50706(14) 0.21401(11) 0.43053(5) 0.0271(3) Uani 1 1 d . . . . .
C5B C 0.41190(14) 0.16258(12) 0.42022(5) 0.0313(4) Uani 1 1 d . . . . .
H5B H 0.3480 0.1960 0.4112 0.038 Uiso 1 1 calc R U . . .
C6B C 0.40744(14) 0.06241(12) 0.42283(5) 0.0296(4) Uani 1 1 d . . . . .
C7B C 0.49785(17) -0.09058(12) 0.44418(6) 0.0366(4) Uani 1 1 d . . . . .
H71B H 0.4215 -0.1073 0.4526 0.044 Uiso 1 1 calc R U . . .
H72B H 0.5473 -0.1101 0.4683 0.044 Uiso 1 1 calc R U . . .
C8B C 0.52927(19) -0.14601(14) 0.40246(7) 0.0504(5) Uani 1 1 d . . . . .
H81B H 0.4813 -0.1264 0.3783 0.061 Uiso 1 1 calc R U . . .
H82B H 0.5202 -0.2140 0.4077 0.061 Uiso 1 1 calc R U . . .
H83B H 0.6062 -0.1327 0.3949 0.061 Uiso 1 1 calc R U . . .
C9B C 0.70889(14) 0.21655(13) 0.44983(6) 0.0352(4) Uani 1 1 d . . . . .
H91B H 0.7067 0.2744 0.4315 0.042 Uiso 1 1 calc R U . . .
H92B H 0.7721 0.1777 0.4400 0.042 Uiso 1 1 calc R U . . .
C10B C 0.72707(17) 0.24525(14) 0.49771(7) 0.0465(5) Uani 1 1 d . . . . .
H11B H 0.6631 0.2810 0.5082 0.056 Uiso 1 1 calc R U . . .
H12B H 0.7932 0.2848 0.4999 0.056 Uiso 1 1 calc R U . . .
H13B H 0.7365 0.1883 0.5156 0.056 Uiso 1 1 calc R U . . .
O1W O 0.64134(13) 0.44729(13) 0.37644(5) 0.0584(4) Uani 1 1 d D . . . .
H11W H 0.680(2) 0.4567(17) 0.4005(7) 0.070 Uiso 1 1 d D U . . .
H12W H 0.666(2) 0.4865(16) 0.3585(8) 0.070 Uiso 1 1 d D U . . .
O2W O 0.48778(11) 0.28406(9) 0.32838(4) 0.0377(3) Uani 1 1 d D . . . .
H21W H 0.4275(16) 0.2694(14) 0.3163(7) 0.045 Uiso 1 1 d D U . . .
H22W H 0.5212(16) 0.2328(13) 0.3346(7) 0.045 Uiso 1 1 d D U . . .
O3W O 0.28630(11) 0.36164(10) 0.37583(5) 0.0425(3) Uani 1 1 d D . . . .
H31W H 0.2398(18) 0.4054(14) 0.3829(7) 0.051 Uiso 1 1 d D U . . .
H32W H 0.2656(17) 0.3356(14) 0.3520(6) 0.051 Uiso 1 1 d D U . . .
O4W O 0.40533(12) 0.51303(11) 0.42395(5) 0.0516(4) Uani 1 1 d D . . . .
H41W H 0.4412(19) 0.5452(16) 0.4422(7) 0.062 Uiso 1 1 d D U . . .
H42W H 0.3386(16) 0.5214(17) 0.4244(8) 0.062 Uiso 1 1 d D U . . .
O5W O 0.53072(13) 0.61747(12) 0.48214(5) 0.0546(4) Uani 1 1 d D . . . .
H51W H 0.513(2) 0.6320(18) 0.5078(7) 0.066 Uiso 1 1 d D U . . .
H52W H 0.5936(18) 0.5881(16) 0.4832(8) 0.066 Uiso 1 1 d D U . . .
loop_
_atom_site_aniso_label
_atom_site_aniso_U_11
_atom_site_aniso_U_22
_atom_site_aniso_U_33
_atom_site_aniso_U_23
_atom_site_aniso_U_13
_atom_site_aniso_U_12
Mn 0.02649(14) 0.02776(14) 0.02931(14) -0.00189(9) -0.00453(10) 0.00290(11)
S1 0.0518(3) 0.0442(3) 0.0250(2) -0.00445(18) 0.0041(2) -0.0044(2)
O1A 0.0611(9) 0.0493(8) 0.0405(8) 0.0134(6) -0.0074(7) 0.0117(7)
O2A 0.0426(8) 0.0465(8) 0.0462(8) -0.0140(6) 0.0072(6) 0.0105(6)
N1A 0.0282(7) 0.0273(7) 0.0280(7) -0.0009(5) 0.0004(6) 0.0012(6)
N3A 0.0304(8) 0.0253(7) 0.0298(7) -0.0004(5) 0.0024(6) 0.0012(6)
C2A 0.0271(8) 0.0269(8) 0.0283(8) -0.0008(6) 0.0028(6) -0.0051(7)
C4A 0.0338(10) 0.0377(10) 0.0303(9) 0.0053(7) -0.0009(7) -0.0021(8)
C5A 0.0394(10) 0.0470(10) 0.0237(8) -0.0019(7) 0.0022(7) 0.0011(9)
C6A 0.0270(9) 0.0377(9) 0.0319(9) -0.0075(7) 0.0043(7) -0.0020(8)
C7A 0.0412(11) 0.0328(9) 0.0381(10) 0.0051(7) -0.0022(8) 0.0042(8)
C8A 0.0445(11) 0.0430(11) 0.0549(13) 0.0014(9) -0.0153(9) 0.0052(10)
C9A 0.0523(12) 0.0264(9) 0.0459(11) -0.0040(8) 0.0028(9) 0.0079(9)
C10A 0.0446(14) 0.0678(16) 0.097(2) -0.0217(14) 0.0122(13) 0.0173(12)
S2 0.0330(2) 0.0343(2) 0.0433(3) 0.00301(18) -0.00307(19) 0.0062(2)
O1B 0.0400(7) 0.0253(6) 0.0352(7) 0.0008(5) -0.0089(5) -0.0004(5)
O2B 0.0305(7) 0.0442(7) 0.0547(8) -0.0117(6) -0.0027(6) -0.0112(6)
N1B 0.0277(7) 0.0257(7) 0.0282(7) -0.0015(5) 0.0040(6) -0.0031(6)
N3B 0.0236(7) 0.0253(7) 0.0267(7) 0.0019(5) -0.0009(5) -0.0022(6)
C2B 0.0268(8) 0.0284(8) 0.0217(7) -0.0002(6) 0.0047(6) -0.0004(7)
C4B 0.0308(8) 0.0300(8) 0.0204(8) -0.0006(6) 0.0001(6) 0.0002(7)
C5B 0.0251(8) 0.0353(9) 0.0334(9) -0.0024(7) -0.0033(7) 0.0031(7)
C6B 0.0263(9) 0.0352(9) 0.0271(8) -0.0063(7) 0.0035(7) -0.0031(7)
C7B 0.0420(10) 0.0269(9) 0.0410(10) 0.0010(7) 0.0053(8) -0.0070(8)
C8B 0.0593(14) 0.0333(10) 0.0587(13) -0.0120(9) 0.0053(11) -0.0011(10)
C9B 0.0264(9) 0.0319(9) 0.0473(11) 0.0094(7) -0.0032(8) -0.0073(8)
C10B 0.0402(11) 0.0429(11) 0.0564(13) -0.0044(9) -0.0127(9) -0.0102(9)
O1W 0.0410(8) 0.0849(12) 0.0494(9) 0.0247(8) -0.0121(7) -0.0250(8)
O2W 0.0378(7) 0.0339(7) 0.0414(8) -0.0059(5) -0.0040(6) 0.0066(6)
O3W 0.0296(7) 0.0476(8) 0.0502(8) -0.0198(6) -0.0053(6) 0.0078(6)
O4W 0.0348(8) 0.0586(9) 0.0614(10) -0.0316(7) -0.0069(7) 0.0063(7)
O5W 0.0439(9) 0.0691(10) 0.0509(9) -0.0199(8) -0.0031(7) 0.0018(8)
loop_
_atom_type_symbol
_atom_type_description
_atom_type_scat_dispersion_real
_atom_type_scat_dispersion_imag
_atom_type_scat_source
C C 0.0033 0.0016 'International Tables Vol C Tables 4.2.6.8 and 6.1.1.4'
N N 0.0061 0.0033 'International Tables Vol C Tables 4.2.6.8 and 6.1.1.4'
O O 0.0106 0.0060 'International Tables Vol C Tables 4.2.6.8 and 6.1.1.4'
S S 0.1246 0.1234 'International Tables Vol C Tables 4.2.6.8 and 6.1.1.4'
Mn Mn 0.3368 0.7283 'International Tables Vol C Tables 4.2.6.8 and 6.1.1.4'
H H 0.0000 0.0000 'International Tables Vol C Tables 4.2.6.8 and 6.1.1.4'
loop_
_geom_angle_atom_site_label_1
_geom_angle_atom_site_label_2
_geom_angle_atom_site_label_3
_geom_angle
_geom_angle_site_symmetry_1
_geom_angle_site_symmetry_3
O1A Mn O1B 164.58(5) . .
O1A Mn O4W 97.20(6) . .
O1B Mn O4W 93.87(6) . .
O1A Mn O3W 94.60(6) . .
O1B Mn O3W 97.23(5) . .
O4W Mn O3W 83.82(5) . .
O1A Mn O1W 83.59(6) . .
O1B Mn O1W 84.37(5) . .
O4W Mn O1W 97.42(7) . .
O3W Mn O1W 177.92(6) . .
O1A Mn O2W 83.08(5) . .
O1B Mn O2W 88.18(5) . .
O4W Mn O2W 168.54(5) . .
O3W Mn O2W 84.74(5) . .
O1W Mn O2W 94.00(6) . .
C4A O1A Mn 147.40(13) . .
C2A N1A C6A 123.08(14) . .
C2A N1A C7A 120.39(14) . .
C6A N1A C7A 116.47(13) . .
C2A N3A C4A 123.26(14) . .
C2A N3A C9A 120.02(14) . .
C4A N3A C9A 116.73(14) . .
N3A C2A N1A 117.23(14) . .
N3A C2A S1 121.57(12) . .
N1A C2A S1 121.20(12) . .
O1A C4A C5A 126.55(17) . .
O1A C4A N3A 116.35(16) . .
C5A C4A N3A 117.10(15) . .
C4A C5A C6A 122.19(16) . .
C4A C5A H5A 118.9 . .
C6A C5A H5A 118.9 . .
O2A C6A C5A 126.03(16) . .
O2A C6A N1A 116.87(15) . .
C5A C6A N1A 117.09(15) . .
N1A C7A C8A 111.44(14) . .
N1A C7A H71A 109.3 . .
C8A C7A H71A 109.3 . .
N1A C7A H72A 109.3 . .
C8A C7A H72A 109.3 . .
H71A C7A H72A 108.0 . .
C7A C8A H81A 109.5 . .
C7A C8A H82A 109.5 . .
H81A C8A H82A 109.5 . .
C7A C8A H83A 109.5 . .
H81A C8A H83A 109.5 . .
H82A C8A H83A 109.5 . .
N3A C9A C10A 112.06(16) . .
N3A C9A H91A 109.2 . .
C10A C9A H91A 109.2 . .
N3A C9A H92A 109.2 . .
C10A C9A H92A 109.2 . .
H91A C9A H92A 107.9 . .
C9A C10A H11A 109.5 . .
C9A C10A H12A 109.5 . .
H11A C10A H12A 109.5 . .
C9A C10A H13A 109.5 . .
H11A C10A H13A 109.5 . .
H12A C10A H13A 109.5 . .
C4B O1B Mn 128.40(10) . .
C2B N1B C6B 123.31(13) . .
C2B N1B C7B 120.43(14) . .
C6B N1B C7B 116.26(14) . .
C2B N3B C4B 122.72(13) . .
C2B N3B C9B 120.20(13) . .
C4B N3B C9B 117.07(13) . .
N1B C2B N3B 117.41(14) . .
N1B C2B S2 121.00(12) . .
N3B C2B S2 121.57(12) . .
O1B C4B C5B 125.70(15) . .
O1B C4B N3B 116.83(14) . .
C5B C4B N3B 117.47(14) . .
C4B C5B C6B 122.43(16) . .
C4B C5B H5B 118.8 . .
C6B C5B H5B 118.8 . .
O2B C6B C5B 125.34(16) . .
O2B C6B N1B 118.20(15) . .
C5B C6B N1B 116.45(14) . .
N1B C7B C8B 112.90(15) . .
N1B C7B H71B 109.0 . .
C8B C7B H71B 109.0 . .
N1B C7B H72B 109.0 . .
C8B C7B H72B 109.0 . .
H71B C7B H72B 107.8 . .
C7B C8B H81B 109.5 . .
C7B C8B H82B 109.5 . .
H81B C8B H82B 109.5 . .
C7B C8B H83B 109.5 . .
H81B C8B H83B 109.5 . .
H82B C8B H83B 109.5 . .
N3B C9B C10B 112.97(14) . .
N3B C9B H91B 109.0 . .
C10B C9B H91B 109.0 . .
N3B C9B H92B 109.0 . .
C10B C9B H92B 109.0 . .
H91B C9B H92B 107.8 . .
C9B C10B H11B 109.5 . .
C9B C10B H12B 109.5 . .
H11B C10B H12B 109.5 . .
C9B C10B H13B 109.5 . .
H11B C10B H13B 109.5 . .
H12B C10B H13B 109.5 . .
Mn O1W H11W 122.6(16) . .
Mn O1W H12W 122.4(18) . .
H11W O1W H12W 105(2) . .
Mn O2W H21W 111.1(14) . .
Mn O2W H22W 123.0(14) . .
H21W O2W H22W 108(2) . .
Mn O3W H31W 115.5(15) . .
Mn O3W H32W 114.7(15) . .
H31W O3W H32W 109(2) . .
Mn O4W H41W 129.5(16) . .
Mn O4W H42W 115.4(17) . .
H41W O4W H42W 115(2) . .
H51W O5W H52W 108(2) . .
loop_
_geom_bond_atom_site_label_1
_geom_bond_atom_site_label_2
_geom_bond_distance
_geom_bond_site_symmetry_2
Mn O1A 2.1194(13) .
Mn O1B 2.1622(11) .
Mn O4W 2.1656(14) .
Mn O3W 2.1909(14) .
Mn O1W 2.1933(15) .
Mn O2W 2.2385(13) .
S1 C2A 1.6958(16) .
O1A C4A 1.258(2) .
O2A C6A 1.260(2) .
N1A C2A 1.365(2) .
N1A C6A 1.415(2) .
N1A C7A 1.483(2) .
N3A C2A 1.361(2) .
N3A C4A 1.413(2) .
N3A C9A 1.484(2) .
C4A C5A 1.379(3) .
C5A C6A 1.380(2) .
C5A H5A 0.9300 .
C7A C8A 1.510(3) .
C7A H71A 0.9700 .
C7A H72A 0.9700 .
C8A H81A 0.9600 .
C8A H82A 0.9600 .
C8A H83A 0.9600 .
C9A C10A 1.511(3) .
C9A H91A 0.9700 .
C9A H92A 0.9700 .
C10A H11A 0.9600 .
C10A H12A 0.9600 .
C10A H13A 0.9600 .
S2 C2B 1.6966(16) .
O1B C4B 1.2740(19) .
O2B C6B 1.2483(19) .
N1B C2B 1.361(2) .
N1B C6B 1.415(2) .
N1B C7B 1.479(2) .
N3B C2B 1.367(2) .
N3B C4B 1.411(2) .
N3B C9B 1.482(2) .
C4B C5B 1.372(2) .
C5B C6B 1.389(2) .
C5B H5B 0.9300 .
C7B C8B 1.514(3) .
C7B H71B 0.9700 .
C7B H72B 0.9700 .
C8B H81B 0.9600 .
C8B H82B 0.9600 .
C8B H83B 0.9600 .
C9B C10B 1.505(3) .
C9B H91B 0.9700 .
C9B H92B 0.9700 .
C10B H11B 0.9600 .
C10B H12B 0.9600 .
C10B H13B 0.9600 .
O1W H11W 0.86(2) .
O1W H12W 0.82(2) .
O2W H21W 0.829(18) .
O2W H22W 0.834(17) .
O3W H31W 0.847(18) .
O3W H32W 0.837(18) .
O4W H41W 0.825(19) .
O4W H42W 0.801(19) .
O5W H51W 0.822(19) .
O5W H52W 0.851(19) .
