#------------------------------------------------------------------------------
#$Date: 2016-02-18 17:37:37 +0200 (Thu, 18 Feb 2016) $
#$Revision: 176729 $
#$URL: svn://www.crystallography.net/cod/cif/1/51/18/1511815.cif $
#------------------------------------------------------------------------------
#
# This file is available in the Crystallography Open Database (COD),
# http://www.crystallography.net/
#
# All data on this site have been placed in the public domain by the
# contributors.
#
data_1511815
loop_
_publ_author_name
'Jarzembska, Katarzyna N.'
'Kami\'nski, Rados\/law'
'Wenger, Emmanuel'
'Lecomte, Claude'
'Dominiak, Paulina M.'
_publ_section_title
;
 Interplay between Charge Density Distribution, Crystal Structure
 Energetic Features, and Crystal Morphology of 6-Methyl-2-thiouracil
;
_journal_issue                   15
_journal_name_full               'The Journal of Physical Chemistry C'
_journal_page_first              7764
_journal_paper_doi               10.1021/jp312158m
_journal_volume                  117
_journal_year                    2013
_chemical_formula_moiety         'C5 H6 N2 O S'
_chemical_formula_sum            'C5 H6 N2 O S'
_chemical_formula_weight         142.18
_space_group_IT_number           14
_symmetry_cell_setting           monoclinic
_symmetry_Int_Tables_number      14
_symmetry_space_group_name_Hall  '-P 2ybc'
_symmetry_space_group_name_H-M   'P 1 21/c 1'
_cell_angle_alpha                90.00
_cell_angle_beta                 90.8638(7)
_cell_angle_gamma                90.00
_cell_formula_units_Z            4
_cell_length_a                   4.3315(2)
_cell_length_b                   14.4396(5)
_cell_length_c                   9.5617(4)
_cell_measurement_temperature    90(1)
_cell_volume                     597.97(4)
_diffrn_ambient_temperature      90(1)
_diffrn_measured_fraction_theta_full 0.98
_diffrn_measured_fraction_theta_max 0.76
_diffrn_measurement_device
'Bruker AXS Kappa APEX II Ultra diffractometer'
_diffrn_measurement_device_type  'APEX II CCD detector'
_diffrn_measurement_method       \w-scans
_diffrn_radiation_monochromator  'multi-layer optics'
_diffrn_radiation_source         'TXS rotating anode'
_diffrn_radiation_type           'Mo K\a'
_diffrn_radiation_wavelength     0.71073
_diffrn_reflns_av_R_equivalents  0.0394
_diffrn_reflns_av_sigmaI/netI    0.0326
_diffrn_reflns_limit_h_max       10
_diffrn_reflns_limit_h_min       -10
_diffrn_reflns_limit_k_max       34
_diffrn_reflns_limit_k_min       -34
_diffrn_reflns_limit_l_max       22
_diffrn_reflns_limit_l_min       -19
_diffrn_reflns_number            45681
_diffrn_reflns_theta_full        28.75
_diffrn_reflns_theta_max         57.994
_diffrn_reflns_theta_min         2.555
_exptl_absorpt_coefficient_mu    0.445
_exptl_absorpt_correction_T_max  1.000
_exptl_absorpt_correction_T_min  0.881
_exptl_absorpt_correction_type   multi-scan
_exptl_absorpt_process_details
;
 Absorption correction done by SORTAV
 Blessing, R. H.: (1995) Acta Cryst. A51, 33-38
;
_exptl_crystal_colour            yellow
_exptl_crystal_density_diffrn    1.579
_exptl_crystal_description       prism
_exptl_crystal_F_000             296
_exptl_crystal_size_max          0.36
_exptl_crystal_size_mid          0.07
_exptl_crystal_size_min          0.04
_refine_diff_density_max         +0.63
_refine_diff_density_min         -0.28
_refine_ls_extinction_method     none
_refine_ls_goodness_of_fit_ref   0.880
_refine_ls_hydrogen_treatment    mixed
_refine_ls_number_parameters     231
_refine_ls_number_reflns         5710
_refine_ls_number_restraints     6
_refine_ls_R_factor_all          0.0128
_refine_ls_R_factor_gt           0.0128
_refine_ls_shift/su_max          0.002
_refine_ls_shift/su_mean         0.000
_refine_ls_structure_factor_coef F
_refine_ls_weighting_details
;
w=1/[\s^2^(Fo)]
;
_refine_ls_weighting_scheme      sigma
_refine_ls_wR_factor_gt          0.0171
_refine_ls_wR_factor_ref         0.0171
_reflns_number_gt                5710
_reflns_number_total             6473
_reflns_threshold_expression     I>3\s(I)
_iucr_refine_instructions_details
;
Multipole refinement with MOPRO program.
;
_cod_data_source_file            jp312158m_si_002.cif
_cod_data_source_block           6m2tU
_cod_original_sg_symbol_H-M      'P 21/c'
_cod_database_code               1511815
loop_
_symmetry_equiv_pos_as_xyz
'x, y, z'
'-x, y+1/2, -z+1/2'
'-x, -y, -z'
'x, -y-1/2, z-1/2'
loop_
_atom_site_type_symbol
_atom_site_label
_atom_site_fract_x
_atom_site_fract_y
_atom_site_fract_z
_atom_site_U_iso_or_equiv
_atom_site_adp_type
_atom_site_occupancy
_atom_site_calc_flag
S S2 0.692451(1) 0.440945(1) 0.165475(1) 0.010351(1) Uani 1 d
O O4 1.36495(4) 0.30772(2) -0.19135(2) 0.01376(3) Uani 1 d
N N1 0.75704(3) 0.26160(1) 0.11015(1) 0.00913(2) Uani 1 d
N N3 1.04877(3) 0.35981(1) -0.02321(2) 0.00974(2) Uani 1 d
C C4 1.17639(4) 0.28831(1) -0.10005(2) 0.00956(2) Uani 1 d
C C2 0.83985(3) 0.35011(1) 0.08045(2) 0.00857(2) Uani 1 d
C C5 1.07394(4) 0.19707(1) -0.06475(2) 0.01011(3) Uani 1 d
C C6 0.86802(3) 0.18571(1) 0.04001(2) 0.00910(2) Uani 1 d
C C7 0.75399(4) 0.09314(1) 0.08594(2) 0.01258(3) Uani 1 d
H H1 0.5987(9) 0.2508(5) 0.1878(4) 0.02438 Uani 1 d
H H3 1.123(1) 0.4255(2) -0.0477(7) 0.02492 Uani 1 d
H H7A 0.5152(4) 0.0954(5) 0.1155(6) 0.03465 Uani 1 d
H H7B 0.774(2) 0.0440(3) 0.0019(4) 0.03397 Uani 1 d
H H7C 0.885(1) 0.0681(4) 0.1749(4) 0.03411 Uani 1 d
H H5 1.161(1) 0.1394(3) -0.1249(5) 0.02569 Uani 1 d
loop_
_atom_site_aniso_label
_atom_site_aniso_U_11
_atom_site_aniso_U_22
_atom_site_aniso_U_33
_atom_site_aniso_U_12
_atom_site_aniso_U_13
_atom_site_aniso_U_23
S2 0.01246(1) 0.00808(2) 0.01062(1) 0.000785(1) 0.00369(1) -0.000994(1)
O4 0.01572(5) 0.01226(7) 0.01355(5) -0.00020(3) 0.00850(6) -0.00018(4)
N1 0.01051(3) 0.00755(5) 0.00944(4) -0.00017(3) 0.00339(4) -0.00008(3)
N3 0.01102(4) 0.00814(5) 0.01018(4) -0.00075(3) 0.00416(4) -0.00054(3)
C4 0.01025(4) 0.00943(5) 0.00910(4) -0.00014(3) 0.00345(4) -0.00047(3)
C2 0.00934(4) 0.00783(5) 0.00862(4) -0.00005(3) 0.00234(4) -0.00044(3)
C5 0.01169(4) 0.00860(5) 0.01014(4) 0.00014(3) 0.00331(4) -0.00101(3)
C6 0.01017(4) 0.00768(5) 0.00953(4) -0.00004(3) 0.00219(4) -0.00019(3)
C7 0.01479(5) 0.00831(5) 0.01476(5) -0.00051(4) 0.00386(5) 0.00046(4)
H1 0.0275 0.0210 0.0250 -0.0012 0.0143 0.0012
H3 0.0306 0.0150 0.0295 -0.0042 0.0115 0.0008
H7A 0.0235 0.0278 0.0531 -0.0008 0.0142 0.0043
H7B 0.0502 0.0216 0.0304 -0.0044 0.0097 -0.0087
H7C 0.0412 0.0290 0.0319 -0.0017 -0.0075 0.0104
H5 0.0322 0.0185 0.0266 0.0032 0.0096 -0.0067
loop_
_atom_type_symbol
_atom_type_description
_atom_type_scat_dispersion_real
_atom_type_scat_dispersion_imag
_atom_type_scat_source
C C 0.0033 0.0016 'Su & Coppens, Acta. Cryst. (1997) A53, 749'
H H 0.0000 0.0000 'Su & Coppens, Acta. Cryst. (1997) A53, 749'
N N 0.0061 0.0033 'Su & Coppens, Acta. Cryst. (1997) A53, 749'
O O 0.0106 0.0060 'Su & Coppens, Acta. Cryst. (1997) A53, 749'
loop_
_geom_angle_atom_site_label_1
_geom_angle_atom_site_label_2
_geom_angle_atom_site_label_3
_geom_angle
S2 C2 N1 122.11(2)
S2 C2 N3 122.42(1)
O4 C4 N3 118.56(2)
O4 C4 C5 125.82(2)
N1 C2 N3 115.47(2)
N1 C6 C5 120.04(2)
N1 C6 C7 116.76(2)
N3 C4 C5 115.63(2)
C4 N3 C2 125.78(2)
C4 N3 H3 115.9(4)
C4 C5 C6 119.55(2)
C4 C5 H5 118.0(4)
C2 N1 C6 123.53(2)
C2 N1 H1 118.3(4)
C2 N3 H3 118.3(4)
C5 C6 C7 123.20(2)
C6 N1 H1 118.2(4)
C6 C5 H5 122.4(4)
C6 C7 H7B 109.8(3)
C6 C7 H7A 111.9(4)
C6 C7 H7C 111.1(4)
H7A C7 H7B 107.8(5)
H7A C7 H7C 107.3(5)
H7B C7 H7C 108.7(5)
loop_
_geom_bond_atom_site_label_1
_geom_bond_atom_site_label_2
_geom_bond_distance
S2 C2 1.6747(2)
O4 C4 1.2366(2)
N1 C2 1.3586(2)
N1 C6 1.3753(2)
N1 H1 1.030(1)
N3 C2 1.3594(2)
N3 C4 1.3869(2)
N3 H3 1.030(1)
C4 C5 1.4322(3)
C5 C6 1.3612(2)
C5 H5 1.083(1)
C6 C7 1.4932(3)
C7 H7B 1.077(1)
C7 H7A 1.077(1)
C7 H7C 1.077(1)
loop_
_geom_torsion_atom_site_label_1
_geom_torsion_atom_site_label_2
_geom_torsion_atom_site_label_3
_geom_torsion_atom_site_label_4
_geom_torsion
S2 C2 N1 C6 178.36(1)
S2 C2 N1 H1 -0.14(38)
S2 C2 N3 C4 -178.67(1)
S2 C2 N3 H3 1.9(4)
O4 C4 N3 C2 -179.87(2)
O4 C4 N3 H3 -0.5(4)
O4 C4 C5 C6 178.98(2)
O4 C4 C5 H5 -2.3(3)
N1 C2 N3 C4 1.00(1)
N1 C2 N3 H3 -178.4(1)
N1 C6 C5 C4 0.73(1)
N1 C6 C5 H5 -177.89(10)
N1 C6 C7 H7B 156.4(3)
N1 C6 C7 H7A 36.7(3)
N1 C6 C7 H7C -83.3(3)
N3 C2 N1 C6 -1.32(1)
N3 C2 N1 H1 -179.8(1)
N3 C4 C5 C6 -1.00(2)
N3 C4 C5 H5 177.7(1)
C4 C5 C6 C7 -178.61(1)
C2 N1 C6 C5 0.49(1)
C2 N1 C6 C7 179.88(1)
C2 N3 C4 C5 0.12(1)
C5 C6 N1 H1 178.99(9)
C5 C6 C7 H7B -24.2(4)
C5 C6 C7 H7A -144.0(3)
C5 C6 C7 H7C 96.1(3)
C7 C6 N1 H1 -1.6(4)
C7 C6 C5 H5 2.8(3)
loop_
_refln_index_h
_refln_index_k
_refln_index_l
_refln_F_squared_calc
_refln_F_squared_meas
_refln_F_squared_sigma
_refln_observed_status
-10 0 2 12.77 14.23 1.19 o
-10 1 3 7.21 7.54 0.42 o
-10 1 4 20.15 20.41 0.70 o
-10 2 1 0.77 0.93 0.21 o
-10 2 2 9.12 9.55 0.44 o
-10 2 3 8.10 8.36 0.41 o
-10 2 4 1.48 1.02 0.24 o
-10 3 2 1.23 1.00 0.23 o
-10 3 3 4.99 5.04 0.34 o
-10 3 4 2.20 2.26 0.32 o
-10 4 1 21.10 22.23 0.72 o
-10 4 2 2.87 2.90 0.27 o
-10 4 3 6.78 6.77 0.38 o
-10 4 4 2.46 2.70 0.32 o
-10 5 1 0.81 0.76 0.23 o
-10 5 2 1.84 1.84 0.24 o
-10 5 3 6.40 6.46 0.41 o
-10 5 4 24.07 25.19 0.88 o
-10 6 1 8.95 9.29 0.40 o
-10 6 2 5.32 5.50 0.35 o
-10 6 3 15.44 16.18 0.61 o
-10 7 1 8.26 7.88 0.40 o
-10 7 2 10.70 10.60 0.65 o
-10 8 1 1.56 1.78 0.27 o
-9 0 2 5.53 5.45 0.48 o
-9 1 1 1.93 2.11 0.26 o
-9 1 2 62.75 64.77 1.78 o
-9 1 5 12.37 12.58 0.57 o
-9 2 1 20.48 21.43 0.77 o
-9 2 2 27.84 28.02 1.21 o
-9 2 3 0.97 1.07 0.24 o
-9 2 4 29.90 30.80 1.11 o
-9 2 5 23.61 24.20 0.93 o
-9 3 1 54.81 56.26 1.83 o
-9 3 2 2.71 2.52 0.29 o
-9 3 3 1.11 1.50 0.25 o
-9 3 4 3.06 3.09 0.29 o
-9 3 5 5.56 5.32 0.47 o
-9 3 6 4.45 4.66 0.43 o
-9 4 1 0.80 0.73 0.21 o
-9 4 2 8.10 8.79 0.47 o
-9 4 3 42.37 44.55 1.31 o
-9 4 4 6.21 6.23 0.45 o
-9 4 5 9.27 9.03 0.51 o
-9 4 6 4.56 4.64 0.43 o
-9 5 1 11.41 11.71 0.50 o
-9 5 2 21.74 23.08 0.75 o
-9 5 3 0.66 0.84 0.22 o
-9 5 4 2.50 2.23 0.31 o
-9 5 5 4.20 4.11 0.36 o
-9 5 6 54.39 56.14 2.28 o
-9 6 1 0.89 0.77 0.23 o
-9 6 2 7.41 7.14 0.40 o
-9 6 3 22.73 23.13 0.75 o
-9 6 4 22.30 22.82 0.77 o
-9 6 5 38.75 42.00 1.30 o
-9 6 6 6.07 6.68 0.50 o
-9 7 1 32.82 33.58 1.00 o
-9 7 2 11.54 12.20 0.55 o
-9 7 3 11.08 10.73 0.51 o
-9 7 4 13.90 14.05 0.57 o
-9 7 5 1.50 1.48 0.25 o
-9 7 6 0.62 0.93 0.31 o
-9 8 1 3.13 3.08 0.28 o
-9 8 2 41.71 42.13 1.28 o
-9 8 3 1.64 1.41 0.26 o
-9 8 6 1.99 1.51 0.28 o
-9 9 1 9.77 9.70 0.45 o
-9 9 2 43.22 43.57 1.53 o
-9 9 3 0.76 0.76 0.24 o
-9 9 4 12.28 12.36 0.53 o
-9 9 5 15.00 15.18 0.60 o
-9 9 6 5.01 5.08 0.39 o
-9 9 7 24.51 24.13 0.88 o
-9 10 1 22.23 22.08 0.69 o
-9 10 4 63.72 64.97 2.49 o
-9 10 5 1.55 1.69 0.25 o
-9 10 6 2.71 2.95 0.31 o
-9 10 8 21.10 21.08 0.79 o
-9 11 2 3.23 2.94 0.27 o
-9 11 3 23.25 23.52 0.74 o
-9 11 4 1.94 1.77 0.26 o
-9 11 5 16.09 16.48 0.60 o
-9 11 6 7.20 7.64 0.45 o
-9 11 7 10.07 10.55 0.67 o
-9 12 1 8.49 8.62 0.41 o
-9 12 2 6.92 7.21 0.38 o
-9 12 3 16.59 17.65 0.60 o
-9 12 4 8.32 8.39 0.40 o
-9 12 5 7.68 8.29 0.42 o
-9 12 7 11.75 11.75 0.58 o
-9 13 1 0.81 1.02 0.22 o
-9 13 2 2.94 3.22 0.27 o
-9 13 3 11.51 11.33 0.46 o
-9 13 4 5.21 5.48 0.33 o
-9 13 6 12.50 13.19 0.56 o
-9 14 1 15.32 14.93 0.53 o
-9 14 3 15.00 15.38 0.54 o
-9 14 5 5.61 5.98 0.34 o
-9 14 6 2.68 2.42 0.32 o
-9 15 2 11.10 11.04 0.44 o
-9 15 4 9.48 9.27 0.44 o
-9 16 1 1.43 1.52 0.22 o
-9 16 2 8.69 9.10 0.39 o
-9 16 3 1.84 1.98 0.23 o
-8 0 2 3.56 3.03 0.61 o
-8 1 1 78.17 77.90 2.06 o
-8 1 2 14.81 15.00 0.54 o
-8 1 3 2.71 2.89 0.26 o
-8 1 4 134.08 135.31 3.70 o
-8 1 5 5.77 5.82 0.42 o
-8 1 6 1.74 1.71 0.34 o
-8 2 1 40.45 41.90 1.16 o
-8 2 2 9.79 10.35 0.44 o
-8 2 3 30.07 29.77 0.92 o
-8 2 4 28.88 28.40 0.89 o
-8 2 5 1.10 0.91 0.25 o
-8 2 6 70.96 70.55 2.19 o
-8 3 1 4.02 4.09 0.27 o
-8 3 2 90.45 90.68 2.39 o
-8 3 3 142.12 143.18 3.88 o
-8 3 5 2.49 2.49 0.32 o
-8 3 6 7.64 7.67 0.55 o
-8 4 1 4.20 4.63 0.29 o
-8 4 2 11.82 12.09 0.48 o
-8 4 3 1.41 1.34 0.22 o
-8 4 4 15.92 15.74 0.61 o
-8 4 5 65.56 67.01 2.65 o
-8 4 6 9.80 9.85 0.54 o
-8 5 1 10.10 9.95 0.42 o
-8 5 2 16.84 16.45 0.59 o
-8 5 3 28.42 28.95 0.88 o
-8 5 4 58.79 60.77 1.71 o
-8 5 5 0.93 0.71 0.24 o
-8 5 6 2.84 2.84 0.33 o
-8 6 1 43.98 44.31 1.25 o
-8 6 2 34.80 35.64 1.10 o
-8 6 4 11.38 11.10 0.53 o
-8 6 5 51.92 52.73 1.53 o
-8 6 6 59.44 61.09 1.99 o
-8 7 1 1.72 1.33 0.22 o
-8 7 2 19.88 20.26 0.68 o
-8 7 3 58.34 58.43 1.70 o
-8 7 4 19.79 20.90 0.75 o
-8 7 5 9.96 9.68 0.49 o
-8 7 6 9.73 10.19 0.50 o
-8 7 7 2.82 2.79 0.37 o
-8 8 1 1.39 1.40 0.21 o
-8 8 2 8.68 9.58 0.43 o
-8 8 3 5.43 5.81 0.41 o
-8 8 4 95.95 95.11 2.96 o
-8 8 5 1.09 0.96 0.24 o
-8 8 6 1.74 1.64 0.26 o
-8 9 1 26.32 25.98 0.80 o
-8 9 2 0.68 0.68 0.20 o
-8 9 3 22.88 24.05 0.79 o
-8 9 4 84.57 84.25 2.30 o
-8 9 5 5.74 6.18 0.42 o
-8 9 6 14.57 14.38 0.65 o
-8 9 7 24.52 24.06 0.96 o
-8 9 8 6.52 6.54 0.51 o
-8 10 1 19.39 20.10 0.67 o
-8 10 2 2.15 1.98 0.25 o
-8 10 3 34.92 35.09 1.42 o
-8 10 4 3.90 4.20 0.31 o
-8 10 5 0.67 0.83 0.22 o
-8 10 6 136.30 136.81 3.89 o
-8 10 7 6.19 6.49 0.53 o
-8 10 8 12.99 12.85 0.66 o
-8 10 9 2.06 2.17 0.35 o
-8 11 1 10.33 10.40 0.45 o
-8 11 2 26.02 25.76 0.83 o
-8 11 3 4.94 5.40 0.36 o
-8 11 4 2.09 1.90 0.25 o
-8 11 5 35.44 36.63 1.08 o
-8 11 6 1.68 1.86 0.27 o
-8 11 7 26.78 26.76 0.87 o
-8 11 8 10.58 10.36 0.53 o
-8 11 9 11.62 11.90 0.62 o
-8 12 2 14.23 14.07 0.63 o
-8 12 3 18.87 18.83 0.67 o
-8 12 4 12.97 13.43 0.54 o
-8 12 5 36.42 36.40 1.31 o
-8 12 6 14.95 15.05 0.60 o
-8 12 7 15.39 15.70 0.61 o
-8 12 9 16.39 16.95 0.69 o
-8 12 10 6.44 6.23 0.47 o
-8 13 1 3.23 3.49 0.29 o
-8 13 2 49.68 50.13 1.54 o
-8 13 4 5.84 6.16 0.38 o
-8 13 5 15.69 16.17 0.59 o
-8 13 6 0.88 0.89 0.25 o
-8 13 8 27.24 26.72 0.91 o
-8 13 9 17.34 17.07 0.66 o
-8 13 10 13.40 13.30 0.56 o
-8 14 1 59.08 60.33 1.68 o
-8 14 2 31.53 31.62 1.01 o
-8 14 3 19.27 18.92 0.70 o
-8 14 5 35.44 34.53 1.20 o
-8 14 6 1.75 2.18 0.28 o
-8 14 7 10.49 10.38 0.48 o
-8 14 8 5.02 4.76 0.38 o
-8 15 1 16.37 16.38 0.60 o
-8 15 2 13.65 14.01 0.55 o
-8 15 4 24.95 25.18 0.99 o
-8 15 5 2.48 2.46 0.26 o
-8 15 6 12.67 12.25 0.53 o
-8 15 7 30.07 30.27 0.96 o
-8 15 8 1.49 1.80 0.32 o
-8 15 9 1.20 0.94 0.26 o
-8 15 10 7.55 7.72 0.48 o
-8 16 1 1.18 1.19 0.24 o
-8 16 2 14.44 14.41 0.53 o
-8 16 3 2.94 2.89 0.26 o
-8 16 4 16.70 16.71 0.57 o
-8 16 5 4.02 4.31 0.29 o
-8 16 6 12.48 12.90 0.50 o
-8 16 7 2.12 2.27 0.24 o
-8 16 8 2.42 2.68 0.28 o
-8 16 9 13.97 13.48 0.52 o
-8 17 1 3.14 3.06 0.25 o
-8 17 3 62.36 62.41 1.89 o
-8 17 4 11.07 10.90 0.44 o
-8 17 5 4.68 5.02 0.30 o
-8 17 7 15.75 15.32 0.57 o
-8 17 8 1.56 1.37 0.25 o
-8 17 9 46.68 45.04 1.31 o
-8 18 1 5.38 5.16 0.31 o
-8 18 2 4.52 4.39 0.28 o
-8 18 4 32.33 33.36 0.98 o
-8 18 5 3.85 4.04 0.28 o
-8 18 6 9.66 9.76 0.42 o
-8 18 7 11.16 10.75 0.56 o
-8 18 8 10.14 9.59 0.52 o
-8 19 1 22.40 23.18 0.70 o
-8 19 2 18.13 18.12 0.66 o
-8 19 3 17.91 18.53 0.59 o
-8 19 5 7.54 7.42 0.37 o
-8 19 6 2.75 2.95 0.25 o
-8 20 2 4.64 4.72 0.28 o
-8 20 3 3.55 3.65 0.25 o
-8 20 5 31.49 31.43 0.89 o
-8 21 2 7.23 7.47 0.35 o
-8 21 3 17.53 17.62 0.72 o
-7 0 2 56.35 56.40 1.86 o
-7 0 4 4.03 4.14 0.37 o
-7 1 1 39.17 38.85 1.17 o
-7 1 2 0.88 0.81 0.18 o
-7 1 3 137.81 134.79 3.46 o
-7 1 4 11.60 11.66 0.48 o
-7 1 5 2.85 3.02 0.30 o
-7 1 6 215.22 209.35 6.39 o
-7 2 1 79.49 79.13 2.17 o
-7 2 2 91.83 90.39 2.29 o
-7 2 3 70.30 69.93 1.85 o
-7 2 4 16.21 16.37 0.59 o
-7 2 5 24.13 24.61 0.82 o
-7 2 6 21.16 22.40 1.01 o
-7 3 1 0.88 0.98 0.18 o
-7 3 3 14.88 14.76 0.53 o
-7 3 4 170.55 166.35 4.33 o
-7 3 5 295.54 295.24 8.76 o
-7 3 6 0.79 0.86 0.28 o
-7 4 1 118.15 115.97 3.21 o
-7 4 2 2.95 3.10 0.24 o
-7 4 3 13.66 13.46 0.50 o
-7 4 4 21.81 21.22 0.68 o
-7 4 5 1.87 2.02 0.25 o
-7 4 6 24.25 25.15 0.86 o
-7 5 1 2.27 2.31 0.21 o
-7 5 2 8.37 8.29 0.38 o
-7 5 3 9.82 9.46 0.41 o
-7 5 4 31.10 29.96 0.93 o
-7 5 5 53.60 54.40 1.52 o
-7 5 6 128.90 128.30 3.66 o
-7 5 7 3.28 4.05 0.39 o
-7 6 1 17.67 17.27 0.56 o
-7 6 2 10.32 10.02 0.41 o
-7 6 3 105.27 106.80 2.92 o
-7 6 4 81.43 80.55 2.19 o
-7 6 5 3.10 3.27 0.29 o
-7 6 6 16.75 17.11 0.67 o
-7 6 7 99.04 100.44 3.02 o
-7 6 8 109.37 112.21 4.44 o
-7 7 1 7.91 8.11 0.37 o
-7 7 2 47.28 47.02 1.26 o
-7 7 3 4.39 4.36 0.29 o
-7 7 4 34.60 35.00 1.02 o
-7 7 5 90.25 89.91 2.48 o
-7 7 6 28.24 28.42 0.95 o
-7 7 7 4.66 4.96 0.42 o
-7 7 8 1.37 1.51 0.33 o
-7 8 1 21.60 20.95 0.65 o
-7 8 2 44.31 42.94 1.17 o
-7 8 4 37.09 38.12 1.11 o
-7 8 5 11.62 11.56 0.48 o
-7 8 6 174.08 174.78 4.77 o
-7 8 8 3.75 3.88 0.39 o
-7 9 1 16.80 16.93 0.56 o
-7 9 2 3.91 3.86 0.26 o
-7 9 3 38.82 37.52 1.09 o
-7 9 5 44.99 44.79 1.51 o
-7 9 6 121.93 122.55 3.34 o
-7 9 7 19.12 19.28 0.74 o
-7 9 8 11.68 12.78 0.58 o
-7 9 9 30.66 30.44 1.02 o
-7 10 1 127.36 125.74 3.69 o
-7 10 2 99.01 96.30 2.57 o
-7 10 3 32.34 32.51 0.97 o
-7 10 4 4.55 4.70 0.32 o
-7 10 5 37.99 38.48 1.11 o
-7 10 6 24.55 25.61 0.84 o
-7 10 7 0.79 0.83 0.27 o
-7 10 8 242.10 239.66 7.66 o
-7 10 9 15.34 15.18 0.70 o
-7 10 10 35.97 35.47 1.23 o
-7 11 3 8.87 8.80 0.43 o
-7 11 4 48.05 47.73 1.34 o
-7 11 5 36.89 37.20 1.08 o
-7 11 7 43.06 41.69 1.20 o
-7 11 8 1.00 0.88 0.24 o
-7 11 9 32.77 32.30 1.02 o
-7 11 10 13.76 13.32 0.65 o
-7 11 11 10.50 10.61 0.60 o
-7 11 12 41.27 39.07 1.45 o
-7 12 1 3.77 3.54 0.26 o
-7 12 2 70.50 70.84 1.93 o
-7 12 3 1.48 1.42 0.21 o
-7 12 4 21.12 20.57 0.67 o
-7 12 5 28.32 27.86 0.83 o
-7 12 6 17.95 17.72 0.64 o
-7 12 7 57.58 56.69 1.58 o
-7 12 8 17.76 17.39 0.67 o
-7 12 9 26.36 25.79 0.86 o
-7 12 11 15.81 15.48 0.72 o
-7 12 12 8.85 8.90 0.55 o
-7 12 13 82.10 77.67 2.74 o
-7 13 2 2.78 2.81 0.25 o
-7 13 3 1.48 1.46 0.21 o
-7 13 4 62.57 61.95 1.77 o
-7 13 5 4.47 4.54 0.34 o
-7 13 6 12.22 12.29 0.52 o
-7 13 7 20.08 19.85 0.69 o
-7 13 8 2.04 1.77 0.27 o
-7 13 9 2.10 2.00 0.28 o
-7 13 10 48.84 47.64 1.39 o
-7 13 11 19.24 18.37 0.69 o
-7 13 12 27.50 25.45 1.35 o
-7 13 13 15.72 15.63 1.00 o
-7 13 14 12.63 11.66 0.57 o
-7 14 1 28.44 29.22 0.87 o
-7 14 2 160.44 161.06 4.29 o
-7 14 3 136.02 136.59 4.00 o
-7 14 4 48.00 47.06 1.57 o
-7 14 5 17.20 17.52 0.63 o
-7 14 6 0.94 0.87 0.23 o
-7 14 7 67.97 67.02 1.85 o
-7 14 8 5.79 5.74 0.41 o
-7 14 9 13.94 13.48 0.57 o
-7 14 10 7.14 6.68 0.41 o
-7 14 11 2.27 2.23 0.28 o
-7 14 12 1.96 2.09 0.63 o
-7 14 13 3.48 3.83 0.38 o
-7 15 1 11.08 11.39 0.47 o
-7 15 2 1.87 1.50 0.23 o
-7 15 3 29.98 30.36 0.98 o
-7 15 4 29.70 29.73 0.91 o
-7 15 6 46.80 46.52 1.34 o
-7 15 7 6.17 6.33 0.39 o
-7 15 8 11.91 11.56 0.53 o
-7 15 9 38.34 37.54 1.25 o
-7 15 10 1.99 1.75 0.27 o
-7 15 11 0.87 0.76 0.24 o
-7 15 12 14.18 13.34 0.57 o
-7 15 13 1.34 1.39 0.31 o
-7 16 1 2.97 2.95 0.26 o
-7 16 2 3.44 3.58 0.28 o
-7 16 3 1.05 1.02 0.21 o
-7 16 4 33.42 33.75 1.09 o
-7 16 5 4.48 4.74 0.31 o
-7 16 6 23.35 23.52 0.77 o
-7 16 7 6.86 6.78 0.40 o
-7 16 8 17.68 17.46 0.66 o
-7 16 9 4.72 4.46 0.35 o
-7 16 11 22.00 22.27 0.78 o
-7 16 12 10.40 10.33 0.65 o
-7 17 1 4.24 4.22 0.30 o
-7 17 3 9.26 9.40 0.44 o
-7 17 4 1.02 1.01 0.22 o
-7 17 5 128.36 127.94 3.44 o
-7 17 6 14.48 13.92 0.56 o
-7 17 7 11.91 12.09 0.51 o
-7 17 9 24.94 24.44 0.81 o
-7 17 10 2.15 1.85 0.27 o
-7 17 11 52.65 50.00 1.53 o
-7 17 12 11.31 11.20 0.47 o
-7 18 2 51.79 52.63 1.97 o
-7 18 3 15.91 16.09 0.59 o
-7 18 4 7.82 7.75 0.40 o
-7 18 5 1.96 2.05 0.24 o
-7 18 6 30.20 30.14 0.93 o
-7 18 7 10.49 9.85 0.46 o
-7 18 8 21.44 21.63 0.88 o
-7 18 9 13.74 13.18 0.55 o
-7 18 10 23.91 23.56 0.85 o
-7 18 11 3.40 3.33 0.26 o
-7 19 2 1.59 1.55 0.23 o
-7 19 3 33.46 33.90 1.06 o
-7 19 4 22.24 22.15 0.73 o
-7 19 5 38.96 38.74 1.34 o
-7 19 7 10.86 10.63 0.47 o
-7 19 8 2.54 2.28 0.28 o
-7 19 9 1.09 0.85 0.22 o
-7 19 10 1.08 0.88 0.22 o
-7 19 11 5.08 4.99 0.33 o
-7 20 1 14.61 15.09 0.58 o
-7 20 2 8.47 8.09 0.43 o
-7 20 3 1.39 1.48 0.23 o
-7 20 4 2.74 2.89 0.26 o
-7 20 5 5.59 5.78 0.34 o
-7 20 7 41.38 41.02 1.63 o
-7 20 8 0.98 1.04 0.23 o
-7 21 2 12.89 13.21 0.51 o
-7 21 4 9.28 10.01 0.41 o
-7 21 5 42.59 42.67 1.42 o
-7 21 6 13.18 13.78 0.65 o
-7 21 7 23.29 23.06 0.88 o
-7 21 8 6.95 6.59 0.46 o
-7 21 9 9.87 10.01 0.51 o
-7 22 1 32.46 33.82 1.20 o
-7 22 2 18.43 18.81 0.78 o
-7 22 3 27.98 29.38 1.05 o
-7 22 5 5.81 5.63 0.32 o
-7 22 6 4.69 4.86 0.29 o
-7 22 7 5.04 5.04 0.30 o
-7 22 8 6.36 6.04 0.35 o
-7 23 1 2.46 2.56 0.28 o
-7 23 3 5.70 5.64 0.32 o
-7 23 4 17.64 18.57 0.72 o
-7 23 6 16.37 16.98 0.57 o
-7 23 7 25.16 25.80 0.90 o
-7 24 1 4.89 5.32 0.42 o
-7 24 2 1.57 1.67 0.23 o
-7 24 3 1.28 1.09 0.20 o
-7 24 4 1.10 1.21 0.20 o
-7 24 5 5.11 4.69 0.32 o
-7 25 1 30.74 30.15 1.71 o
-6 1 1 281.21 270.25 8.47 o
-6 1 2 16.69 16.63 0.81 o
-6 1 3 81.16 80.24 2.48 o
-6 1 4 1.06 1.21 0.34 o
-6 1 5 178.38 176.87 5.75 o
-6 2 1 4.24 4.58 0.49 o
-6 2 2 83.34 81.93 2.53 o
-6 2 3 148.59 148.46 4.44 o
-6 2 4 195.57 195.71 6.42 o
-6 2 5 98.68 99.24 3.26 o
-6 3 1 18.79 18.49 0.85 o
-6 3 2 198.13 192.82 5.83 o
-6 3 4 5.93 5.81 0.66 o
-6 3 5 37.97 38.91 1.54 o
-6 3 6 261.43 264.23 8.87 o
-6 4 1 27.16 27.18 1.26 o
-6 4 2 1.98 2.08 0.38 o
-6 4 3 177.25 171.80 5.59 o
-6 4 4 7.26 7.69 0.76 o
-6 4 5 36.47 36.56 1.41 o
-6 4 6 40.34 40.76 1.37 o
-6 4 7 1.75 1.91 0.42 o
-6 5 1 42.31 42.46 1.49 o
-6 5 2 59.90 58.67 1.92 o
-6 5 4 27.07 27.21 1.06 o
-6 5 5 3.54 3.73 0.31 o
-6 5 6 43.81 42.18 1.38 o
-6 5 7 80.07 79.82 2.28 o
-6 6 1 1.74 1.47 0.35 o
-6 6 3 33.73 34.53 1.24 o
-6 6 4 42.74 40.63 1.37 o
-6 6 5 195.15 190.80 4.98 o
-6 6 6 151.68 152.61 4.36 o
-6 6 7 23.26 24.51 0.88 o
-6 6 8 21.27 21.86 0.89 o
-6 7 1 136.26 132.35 4.74 o
-6 7 2 145.42 144.16 3.99 o
-6 7 3 29.81 29.28 0.87 o
-6 7 4 63.31 62.73 1.74 o
-6 7 5 4.79 4.76 0.30 o
-6 7 6 49.12 49.54 1.65 o
-6 7 7 125.46 124.25 4.32 o
-6 7 8 34.41 34.75 1.08 o
-6 8 1 3.34 3.47 0.25 o
-6 8 2 16.91 16.76 0.56 o
-6 8 3 33.39 33.21 0.94 o
-6 8 4 63.32 62.95 1.65 o
-6 8 5 1.43 1.49 0.20 o
-6 8 6 96.60 93.51 2.63 o
-6 8 7 26.32 26.84 0.83 o
-6 8 8 245.01 239.31 6.79 o
-6 8 10 5.49 5.63 0.49 o
-6 8 11 3.02 3.01 0.40 o
-6 9 1 134.05 130.76 3.28 o
-6 9 2 10.46 10.47 0.41 o
-6 9 3 45.74 45.68 1.25 o
-6 9 4 1.91 1.89 0.20 o
-6 9 5 46.29 45.30 1.35 o
-6 9 6 2.44 2.53 0.24 o
-6 9 7 68.55 66.58 1.80 o
-6 9 8 125.62 121.57 3.42 o
-6 9 9 42.05 42.21 1.45 o
-6 9 10 4.33 4.92 0.47 o
-6 9 11 27.27 26.90 1.45 o
-6 9 12 1.56 1.62 0.34 o
-6 9 13 65.29 60.15 1.92 o
-6 10 1 55.84 55.60 1.44 o
-6 10 2 105.40 100.70 2.54 o
-6 10 3 227.33 224.35 5.81 o
-6 10 4 188.33 182.66 4.96 o
-6 10 5 43.74 43.10 1.19 o
-6 10 6 4.51 4.44 0.29 o
-6 10 7 25.24 24.73 0.79 o
-6 10 8 74.17 74.21 2.01 o
-6 10 9 1.19 1.00 0.23 o
-6 10 10 351.58 343.06 10.79 o
-6 10 11 25.79 25.14 1.52 o
-6 10 12 66.09 62.77 1.87 o
-6 10 13 5.81 5.35 0.42 o
-6 10 14 65.73 62.97 2.18 o
-6 11 1 26.60 25.83 0.73 o
-6 11 2 83.83 81.01 2.13 o
-6 11 3 17.92 17.33 0.57 o
-6 11 4 3.76 3.57 0.25 o
-6 11 5 7.25 7.32 0.35 o
-6 11 6 64.42 61.01 1.70 o
-6 11 7 103.15 98.80 2.76 o
-6 11 8 3.65 3.27 0.29 o
-6 11 9 43.39 43.28 1.24 o
-6 11 11 27.91 27.71 0.96 o
-6 11 12 15.72 14.65 0.70 o
-6 11 13 7.96 7.55 0.62 o
-6 11 14 41.11 39.27 1.24 o
-6 11 15 32.80 31.12 1.22 o
-6 11 16 14.62 14.70 0.59 o
-6 12 1 20.88 20.75 0.64 o
-6 12 2 0.59 0.70 0.18 o
-6 12 3 2.14 3.11 0.24 o
-6 12 4 85.61 83.83 2.16 o
-6 12 5 20.86 19.94 0.63 o
-6 12 6 22.06 21.84 0.70 o
-6 12 7 28.98 28.74 0.89 o
-6 12 8 18.91 18.72 0.70 o
-6 12 9 63.73 64.07 2.00 o
-6 12 10 13.11 12.88 0.51 o
-6 12 11 38.93 37.77 1.11 o
-6 12 12 1.49 1.51 0.30 o
-6 12 13 9.40 8.65 0.50 o
-6 12 14 10.39 9.77 0.51 o
-6 12 15 98.36 93.62 3.56 o
-6 12 16 19.74 19.09 0.69 o
-6 13 1 5.32 5.47 0.31 o
-6 13 2 101.43 100.49 2.74 o
-6 13 4 7.37 7.80 0.37 o
-6 13 6 57.11 55.78 1.52 o
-6 13 7 16.55 16.10 0.57 o
-6 13 8 25.06 24.23 0.77 o
-6 13 9 24.73 24.52 0.80 o
-6 13 10 18.19 18.06 0.64 o
-6 13 11 3.52 3.44 0.29 o
-6 13 12 68.88 67.38 1.92 o
-6 13 13 17.15 16.54 0.68 o
-6 13 14 40.84 38.07 1.41 o
-6 13 15 15.69 14.98 0.61 o
-6 13 16 11.82 10.89 0.50 o
-6 14 1 1.95 1.91 0.21 o
-6 14 2 4.19 3.83 0.26 o
-6 14 3 45.23 45.13 1.24 o
-6 14 4 244.20 233.43 6.21 o
-6 14 5 248.45 242.01 7.17 o
-6 14 6 56.28 56.07 1.56 o
-6 14 7 9.08 9.24 0.40 o
-6 14 8 5.59 5.80 0.35 o
-6 14 9 99.65 98.33 3.11 o
-6 14 10 13.50 12.99 0.59 o
-6 14 11 14.35 14.16 0.55 o
-6 14 12 7.46 6.61 0.42 o
-6 14 13 10.03 9.57 0.51 o
-6 14 14 4.83 4.49 0.40 o
-6 14 16 13.10 12.57 0.53 o
-6 15 1 74.50 73.30 2.19 o
-6 15 2 40.75 40.86 1.19 o
-6 15 3 38.04 37.87 1.06 o
-6 15 5 50.68 49.54 1.45 o
-6 15 6 50.58 50.70 1.58 o
-6 15 7 0.71 0.61 0.19 o
-6 15 8 73.90 71.86 1.99 o
-6 15 9 9.27 8.86 0.44 o
-6 15 10 7.59 7.48 0.50 o
-6 15 11 33.99 33.63 1.05 o
-6 15 12 2.59 3.55 0.31 o
-6 15 14 18.14 18.39 0.74 o
-6 15 15 4.18 4.52 0.35 o
-6 16 1 13.60 13.97 0.53 o
-6 16 2 2.10 2.00 0.21 o
-6 16 3 7.39 7.35 0.35 o
-6 16 4 2.66 2.56 0.23 o
-6 16 6 66.55 65.31 1.78 o
-6 16 7 5.16 4.87 0.30 o
-6 16 8 23.81 22.55 0.76 o
-6 16 9 9.47 9.25 0.46 o
-6 16 10 25.38 24.13 0.79 o
-6 16 11 7.62 7.40 0.41 o
-6 16 12 1.00 0.89 0.23 o
-6 16 13 26.47 25.62 0.99 o
-6 16 14 14.59 13.99 0.59 o
-6 17 3 20.11 20.00 0.63 o
-6 17 5 20.69 20.14 0.64 o
-6 17 6 3.00 2.87 0.25 o
-6 17 7 211.09 207.51 5.79 o
-6 17 8 14.76 14.59 0.58 o
-6 17 9 22.03 21.99 0.74 o
-6 17 10 1.12 1.08 0.24 o
-6 17 11 29.47 28.80 0.88 o
-6 17 12 2.30 2.33 0.26 o
-6 17 13 48.19 46.58 1.33 o
-6 17 14 12.83 11.64 0.70 o
-6 18 1 3.46 3.52 0.25 o
-6 18 2 71.11 71.55 2.11 o
-6 18 4 100.22 99.31 2.98 o
-6 18 5 36.67 37.07 1.25 o
-6 18 6 14.55 14.62 0.55 o
-6 18 7 3.97 4.01 0.29 o
-6 18 8 20.66 21.15 0.81 o
-6 18 9 19.48 19.87 0.90 o
-6 18 10 34.21 34.50 1.03 o
-6 18 11 11.95 11.51 0.48 o
-6 18 12 41.45 41.43 1.17 o
-6 18 13 3.31 3.41 0.27 o
-6 18 14 7.50 7.31 0.43 o
-6 19 1 175.30 176.09 5.75 o
-6 19 2 32.53 32.74 1.17 o
-6 19 3 3.26 3.20 0.25 o
-6 19 4 2.72 2.58 0.24 o
-6 19 5 41.37 42.21 1.37 o
-6 19 6 17.05 16.58 0.59 o
-6 19 7 65.16 63.72 1.73 o
-6 19 8 2.01 2.03 0.26 o
-6 19 9 12.16 12.42 0.54 o
-6 19 10 2.10 2.00 0.26 o
-6 19 11 5.76 5.33 0.37 o
-6 19 12 2.13 2.06 0.24 o
-6 19 13 8.81 8.57 0.44 o
-6 20 2 1.27 1.18 0.20 o
-6 20 3 17.75 18.12 0.62 o
-6 20 4 12.09 12.20 0.47 o
-6 20 5 6.44 6.48 0.36 o
-6 20 6 0.68 0.71 0.21 o
-6 20 7 5.51 5.53 0.37 o
-6 20 8 1.13 1.22 0.24 o
-6 20 9 39.11 38.53 1.38 o
-6 20 10 1.99 1.93 0.25 o
-6 20 11 1.02 1.38 0.24 o
-6 20 13 3.50 3.42 0.35 o
-6 21 1 3.37 3.27 0.25 o
-6 21 2 91.14 92.58 3.28 o
-6 21 4 18.68 19.04 0.72 o
-6 21 5 1.44 1.78 0.22 o
-6 21 6 9.33 9.55 0.43 o
-6 21 7 76.27 74.65 2.25 o
-6 21 8 22.07 22.39 1.04 o
-6 21 9 41.88 41.61 1.23 o
-6 21 10 18.70 18.46 0.70 o
-6 21 11 17.57 17.12 0.59 o
-6 21 12 61.97 62.74 2.50 o
-6 22 2 0.94 0.86 0.21 o
-6 22 3 47.73 50.57 1.93 o
-6 22 4 20.21 19.71 0.98 o
-6 22 5 56.89 59.22 2.05 o
-6 22 7 1.43 1.36 0.22 o
-6 22 8 2.10 1.92 0.25 o
-6 22 9 10.93 11.24 0.58 o
-6 22 10 3.30 3.20 0.29 o
-6 22 11 52.06 52.91 1.59 o
-6 23 1 5.49 5.05 0.38 o
-6 23 2 1.75 1.88 0.24 o
-6 23 4 5.18 5.43 0.33 o
-6 23 5 6.29 6.74 0.35 o
-6 23 6 38.28 39.87 1.22 o
-6 23 8 25.14 25.05 0.77 o
-6 23 9 32.07 31.22 1.00 o
-6 23 10 6.68 6.84 0.35 o
-6 24 2 5.14 5.88 0.40 o
-6 24 3 13.19 14.09 0.63 o
-6 24 4 2.33 2.49 0.24 o
-6 24 6 3.71 4.36 0.31 o
-6 24 7 4.84 5.12 0.30 o
-6 25 1 27.89 29.96 2.01 o
-6 25 2 7.55 7.71 0.44 o
-6 25 3 45.47 48.38 1.80 o
-6 25 4 10.55 10.37 0.52 o
-6 25 5 65.76 67.90 1.98 o
-6 25 7 7.89 7.98 0.49 o
-6 26 1 1.60 1.62 0.35 o
-6 26 2 3.27 2.98 0.37 o
-6 26 3 10.58 10.37 0.55 o
-6 26 4 69.70 73.28 2.84 o
-6 26 6 3.83 4.22 0.28 o
-6 27 2 1.60 1.35 0.32 o
-6 27 4 13.06 13.03 0.93 o
-5 0 2 79.51 76.95 2.51 o
-5 0 4 52.62 51.24 1.94 o
-5 1 1 7.37 6.74 0.47 o
-5 1 2 322.24 308.53 8.37 o
-5 1 3 466.15 463.42 13.41 o
-5 1 4 2.65 3.16 0.39 o
-5 1 5 138.53 142.45 4.17 o
-5 1 18 31.86 30.85 1.11 o
-5 1 19 13.01 13.18 0.66 o
-5 2 1 373.68 358.92 10.21 o
-5 2 2 116.19 111.86 3.16 o
-5 2 3 9.23 9.85 0.62 o
-5 2 4 115.52 113.64 3.21 o
-5 2 5 201.78 204.23 5.92 o
-5 2 6 324.65 328.59 14.22 o
-5 2 15 11.59 11.36 0.65 o
-5 2 16 1.30 1.63 0.31 o
-5 2 17 60.20 58.29 1.87 o
-5 2 18 2.00 2.30 0.33 o
-5 3 1 326.07 320.65 9.05 o
-5 3 2 79.75 80.77 2.36 o
-5 3 3 37.55 37.96 1.30 o
-5 3 4 354.06 351.25 10.56 o
-5 3 5 1.63 1.60 0.41 o
-5 3 6 25.07 25.82 1.33 o
-5 3 7 72.28 74.97 3.21 o
-5 3 13 3.53 3.12 0.49 o
-5 3 15 14.09 14.19 0.69 o
-5 3 16 38.62 38.12 1.31 o
-5 3 17 31.87 31.76 1.23 o
-5 3 18 11.88 11.87 0.69 o
-5 4 1 577.61 565.72 17.38 o
-5 4 2 5.76 5.08 0.46 o
-5 4 3 78.89 77.99 2.31 o
-5 4 4 2.19 2.13 0.42 o
-5 4 5 189.56 190.89 6.21 o
-5 4 6 17.73 18.70 0.96 o
-5 4 7 78.57 80.22 2.67 o
-5 4 13 10.31 9.73 0.57 o
-5 4 14 2.31 2.46 0.36 o
-5 4 16 7.76 7.55 0.50 o
-5 4 17 34.55 33.54 1.11 o
-5 4 19 31.54 32.11 1.39 o
-5 5 1 187.57 187.31 5.07 o
-5 5 2 4.00 4.11 0.39 o
-5 5 3 85.99 86.45 2.50 o
-5 5 4 148.81 144.87 4.04 o
-5 5 6 64.87 63.53 2.15 o
-5 5 8 44.70 44.58 1.67 o
-5 5 10 320.71 332.00 10.90 o
-5 5 11 30.63 30.61 1.33 o
-5 5 13 5.45 5.92 0.48 o
-5 5 14 145.81 143.32 4.76 o
-5 5 15 17.28 17.99 0.74 o
-5 5 16 1.94 1.80 0.32 o
-5 5 17 33.13 32.80 1.40 o
-5 5 18 3.55 3.51 0.41 o
-5 5 19 3.45 3.36 0.34 o
-5 6 2 0.90 1.14 0.29 o
-5 6 4 3.67 3.49 0.47 o
-5 6 5 53.26 51.89 1.82 o
-5 6 6 104.05 102.88 3.33 o
-5 6 7 276.08 269.17 15.02 o
-5 6 8 225.15 223.55 10.16 o
-5 6 9 74.12 75.05 2.49 o
-5 6 10 21.38 21.25 0.81 o
-5 6 11 177.27 177.90 5.32 o
-5 6 12 142.76 149.16 4.45 o
-5 6 13 147.41 144.23 4.23 o
-5 6 14 10.24 10.40 0.61 o
-5 6 16 3.52 3.67 0.37 o
-5 6 19 33.33 34.39 1.07 o
-5 7 1 11.85 12.45 0.61 o
-5 7 2 353.00 345.72 9.91 o
-5 7 3 205.96 199.94 5.58 o
-5 7 4 228.96 228.08 6.90 o
-5 7 5 74.29 72.68 2.42 o
-5 7 6 57.26 58.11 2.03 o
-5 7 7 1.27 1.05 0.34 o
-5 7 8 57.78 59.17 1.88 o
-5 7 9 158.98 156.94 4.46 o
-5 7 10 34.55 35.11 1.08 o
-5 7 11 1.12 1.27 0.27 o
-5 7 12 22.89 22.46 0.85 o
-5 7 13 4.13 4.37 0.35 o
-5 7 14 3.29 3.33 0.32 o
-5 7 15 53.30 52.11 1.60 o
-5 7 16 55.89 55.24 1.92 o
-5 7 18 1.22 0.93 0.29 o
-5 8 1 70.01 69.20 2.11 o
-5 8 2 167.55 160.43 4.52 o
-5 8 3 23.37 23.04 0.98 o
-5 8 4 8.13 8.51 0.73 o
-5 8 5 49.68 49.93 1.77 o
-5 8 6 71.10 70.84 2.35 o
-5 8 7 9.17 8.76 0.63 o
-5 8 8 173.76 169.09 5.02 o
-5 8 9 50.86 51.52 1.47 o
-5 8 10 264.36 262.87 7.80 o
-5 8 11 1.99 2.12 0.30 o
-5 8 12 6.05 6.44 0.40 o
-5 8 13 4.85 4.59 0.35 o
-5 8 14 9.27 8.50 0.46 o
-5 8 15 3.45 3.37 0.32 o
-5 8 17 1.45 1.70 0.31 o
-5 8 18 75.26 74.77 2.16 o
-5 8 19 0.73 0.92 0.27 o
-5 9 1 29.50 29.48 1.26 o
-5 9 2 32.08 32.28 1.19 o
-5 9 3 251.02 245.10 7.94 o
-5 9 4 40.94 40.73 1.41 o
-5 9 5 92.55 92.04 5.04 o
-5 9 7 43.26 42.91 1.21 o
-5 9 8 14.89 15.36 0.52 o
-5 9 9 76.96 75.16 1.95 o
-5 9 10 87.94 85.12 2.34 o
-5 9 11 69.16 67.39 1.93 o
-5 9 13 15.62 15.86 0.62 o
-5 9 15 61.73 58.97 1.70 o
-5 9 17 6.15 6.41 0.41 o
-5 9 18 44.87 44.31 1.34 o
-5 9 19 3.22 2.73 0.36 o
-5 10 1 45.50 44.34 1.70 o
-5 10 2 154.17 148.77 4.28 o
-5 10 3 93.76 93.45 4.08 o
-5 10 4 146.81 145.94 6.15 o
-5 10 5 317.41 312.17 11.67 o
-5 10 6 273.55 271.11 8.38 o
-5 10 7 48.46 47.77 1.27 o
-5 10 8 1.01 1.20 0.19 o
-5 10 9 6.71 6.96 0.35 o
-5 10 10 141.59 140.74 3.90 o
-5 10 11 2.05 1.90 0.29 o
-5 10 12 409.06 401.33 12.70 o
-5 10 13 30.41 29.12 0.94 o
-5 10 14 86.40 81.57 2.35 o
-5 10 15 6.87 6.51 0.43 o
-5 10 16 58.97 59.69 2.05 o
-5 10 17 1.90 2.14 0.25 o
-5 10 18 3.33 3.33 0.29 o
-5 11 1 75.99 74.93 2.41 o
-5 11 2 17.01 16.16 0.80 o
-5 11 3 27.99 27.23 1.11 o
-5 11 4 123.43 120.11 4.18 o
-5 11 5 83.27 84.96 2.49 o
-5 11 6 19.03 18.65 0.61 o
-5 11 7 6.79 7.00 0.34 o
-5 11 8 61.86 60.94 1.76 o
-5 11 9 169.18 165.48 4.28 o
-5 11 10 19.54 18.96 0.64 o
-5 11 11 38.83 38.03 1.08 o
-5 11 13 15.45 15.41 0.62 o
-5 11 14 15.57 14.76 0.62 o
-5 11 15 5.64 5.68 0.39 o
-5 11 16 31.63 31.28 0.99 o
-5 11 17 35.71 36.02 1.04 o
-5 11 18 4.93 4.98 0.31 o
-5 12 1 371.30 371.98 12.36 o
-5 12 2 41.01 42.67 1.80 o
-5 12 3 2.85 2.62 0.41 o
-5 12 6 76.05 73.93 2.10 o
-5 12 7 72.27 70.52 2.06 o
-5 12 8 14.67 14.88 0.53 o
-5 12 9 19.68 19.63 0.64 o
-5 12 10 15.67 15.47 0.55 o
-5 12 11 46.83 45.32 1.24 o
-5 12 12 4.92 4.97 0.34 o
-5 12 13 49.76 47.85 1.42 o
-5 12 14 3.46 3.11 0.31 o
-5 12 15 2.46 2.54 0.30 o
-5 12 16 10.87 10.91 0.51 o
-5 12 17 100.65 98.45 2.74 o
-5 12 18 15.26 15.27 0.62 o
-5 13 1 44.37 44.23 1.56 o
-5 13 2 283.25 274.91 8.34 o
-5 13 3 5.85 5.82 0.29 o
-5 13 4 174.00 168.91 4.53 o
-5 13 5 0.53 0.59 0.15 o
-5 13 6 8.48 9.00 0.37 o
-5 13 7 2.33 2.40 0.24 o
-5 13 8 35.32 34.18 0.98 o
-5 13 9 31.15 31.25 0.92 o
-5 13 10 44.00 43.19 1.20 o
-5 13 11 29.04 29.30 0.85 o
-5 13 12 44.83 43.11 1.24 o
-5 13 13 3.78 3.72 0.33 o
-5 13 14 73.67 70.38 2.09 o
-5 13 15 12.18 11.96 0.54 o
-5 13 16 46.32 44.34 1.30 o
-5 13 17 10.94 10.43 0.48 o
-5 13 18 8.24 7.37 0.50 o
-5 14 1 58.69 56.27 1.47 o
-5 14 2 147.11 143.25 3.84 o
-5 14 4 7.22 7.43 0.33 o
-5 14 5 65.41 64.06 1.90 o
-5 14 6 295.57 289.89 7.80 o
-5 14 7 349.62 341.61 10.52 o
-5 14 8 49.90 49.74 1.47 o
-5 14 9 1.11 1.41 0.22 o
-5 14 10 15.04 15.44 0.53 o
-5 14 11 109.00 108.43 2.96 o
-5 14 12 22.64 21.71 0.73 o
-5 14 13 12.50 12.80 0.53 o
-5 14 14 5.50 5.26 0.38 o
-5 14 15 21.84 20.66 0.82 o
-5 14 16 8.50 8.03 0.54 o
-5 15 1 26.31 26.29 0.78 o
-5 15 2 62.72 61.90 1.68 o
-5 15 3 103.92 103.31 3.01 o
-5 15 4 65.94 65.41 1.91 o
-5 15 5 93.68 92.01 2.74 o
-5 15 6 6.42 6.26 0.33 o
-5 15 7 75.05 72.53 2.40 o
-5 15 8 68.96 69.30 1.96 o
-5 15 10 97.05 95.41 2.65 o
-5 15 11 9.71 9.74 0.42 o
-5 15 12 2.95 3.08 0.27 o
-5 15 13 19.09 19.32 0.68 o
-5 15 14 2.86 2.76 0.30 o
-5 15 16 16.41 16.09 0.61 o
-5 15 17 8.67 8.33 0.42 o
-5 16 1 15.86 16.09 0.57 o
-5 16 2 7.70 8.05 0.35 o
-5 16 3 44.68 44.84 1.39 o
-5 16 4 1.06 1.15 0.17 o
-5 16 5 12.26 12.19 0.53 o
-5 16 6 0.64 0.76 0.19 o
-5 16 8 111.64 109.27 3.60 o
-5 16 9 4.56 4.66 0.31 o
-5 16 10 17.57 17.52 0.59 o
-5 16 11 11.02 11.19 0.58 o
-5 16 12 33.92 33.70 0.99 o
-5 16 13 8.95 8.48 0.44 o
-5 16 14 3.90 3.89 0.32 o
-5 16 15 24.63 23.87 0.82 o
-5 16 16 15.68 15.22 0.62 o
-5 17 1 136.48 135.68 4.03 o
-5 17 2 48.10 48.12 1.33 o
-5 17 5 52.31 51.54 1.63 o
-5 17 6 1.35 1.26 0.19 o
-5 17 7 36.49 35.79 1.00 o
-5 17 8 6.77 6.83 0.37 o
-5 17 9 271.52 263.11 7.56 o
-5 17 10 11.68 11.65 0.48 o
-5 17 11 32.44 30.52 1.00 o
-5 17 12 4.37 4.21 0.36 o
-5 17 13 25.74 25.53 0.78 o
-5 17 14 2.10 1.83 0.25 o
-5 17 15 36.80 35.53 1.07 o
-5 17 16 11.16 10.81 0.47 o
-5 18 1 29.89 29.81 1.03 o
-5 18 2 123.67 122.68 3.61 o
-5 18 3 27.04 26.75 0.98 o
-5 18 4 86.16 85.98 2.89 o
-5 18 6 149.51 148.34 4.03 o
-5 18 7 64.41 63.36 1.75 o
-5 18 8 27.38 27.53 0.95 o
-5 18 9 5.58 5.33 0.34 o
-5 18 10 10.04 10.19 0.45 o
-5 18 11 26.33 25.72 0.86 o
-5 18 12 39.63 40.75 1.15 o
-5 18 13 7.18 6.53 0.36 o
-5 18 14 54.48 52.30 1.45 o
-5 18 15 1.80 1.62 0.26 o
-5 18 16 5.07 5.05 0.37 o
-5 19 1 0.75 0.80 0.18 o
-5 19 2 0.52 0.57 0.17 o
-5 19 3 239.83 240.63 7.32 o
-5 19 4 32.88 32.65 0.94 o
-5 19 5 13.72 13.54 0.48 o
-5 19 6 4.86 4.93 0.30 o
-5 19 7 41.58 43.12 1.19 o
-5 19 8 6.12 5.52 0.36 o
-5 19 9 84.35 82.04 2.62 o
-5 19 10 11.17 10.81 0.46 o
-5 19 11 10.50 10.37 0.45 o
-5 19 12 1.83 1.79 0.24 o
-5 19 13 13.85 12.72 0.48 o
-5 19 14 3.54 3.38 0.29 o
-5 19 15 11.82 12.13 0.50 o
-5 20 1 76.29 77.65 2.77 o
-5 20 2 1.42 1.41 0.19 o
-5 20 3 5.56 5.77 0.32 o
-5 20 4 2.74 2.62 0.23 o
-5 20 5 20.51 20.90 0.65 o
-5 20 6 14.60 14.95 0.59 o
-5 20 7 15.20 14.71 0.55 o
-5 20 9 3.24 3.32 0.28 o
-5 20 10 2.20 2.44 0.25 o
-5 20 11 23.70 23.40 0.74 o
-5 20 12 3.18 3.19 0.26 o
-5 20 13 2.78 2.49 0.24 o
-5 21 1 3.57 3.73 0.28 o
-5 21 2 31.21 32.66 1.30 o
-5 21 3 1.73 1.78 0.23 o
-5 21 4 165.60 164.27 5.09 o
-5 21 5 3.46 3.66 0.27 o
-5 21 6 18.90 19.51 0.66 o
-5 21 7 1.85 1.80 0.24 o
-5 21 8 7.13 7.21 0.41 o
-5 21 9 100.62 99.81 3.52 o
-5 21 10 30.19 30.26 0.96 o
-5 21 11 59.02 59.59 1.61 o
-5 21 12 32.36 31.11 0.92 o
-5 21 13 26.35 26.63 0.80 o
-5 21 14 58.67 59.08 1.54 o
-5 22 1 44.88 46.29 2.26 o
-5 22 2 25.25 25.61 0.93 o
-5 22 3 0.93 0.99 0.21 o
-5 22 4 4.30 4.81 0.31 o
-5 22 5 55.26 58.07 2.07 o
-5 22 6 13.19 13.80 0.58 o
-5 22 7 88.29 89.26 2.87 o
-5 22 9 0.68 0.68 0.21 o
-5 22 11 17.74 17.69 0.63 o
-5 22 12 0.48 0.62 0.20 o
-5 22 13 54.47 55.10 1.54 o
-5 23 1 1.62 1.53 0.27 o
-5 23 2 77.41 80.55 3.11 o
-5 23 3 6.84 7.45 0.40 o
-5 23 4 4.87 5.27 0.34 o
-5 23 5 0.89 1.17 0.21 o
-5 23 6 21.99 22.20 0.73 o
-5 23 7 4.69 4.85 0.31 o
-5 23 8 63.38 64.28 1.78 o
-5 23 10 27.80 28.21 0.83 o
-5 23 11 32.25 32.05 0.91 o
-5 23 12 4.68 5.14 0.38 o
-5 24 1 65.91 65.53 4.29 o
-5 24 2 13.53 13.62 0.55 o
-5 24 4 2.78 2.97 0.26 o
-5 24 5 20.59 21.77 0.92 o
-5 24 6 3.35 3.32 0.29 o
-5 24 8 7.10 7.46 0.38 o
-5 24 9 3.14 3.32 0.27 o
-5 24 10 1.08 1.15 0.21 o
-5 24 12 21.74 21.80 0.74 o
-5 25 1 3.08 3.07 0.36 o
-5 25 2 7.43 7.46 0.53 o
-5 25 3 54.05 57.23 3.33 o
-5 25 4 7.56 7.81 0.45 o
-5 25 5 53.43 53.65 1.66 o
-5 25 6 9.33 9.68 0.45 o
-5 25 7 56.45 57.24 1.58 o
-5 25 9 8.44 8.49 0.41 o
-5 25 11 10.98 10.49 1.09 o
-5 26 1 15.09 14.84 1.53 o
-5 26 2 15.48 15.51 1.06 o
-5 26 3 5.74 5.24 0.65 o
-5 26 4 0.82 0.77 0.24 o
-5 26 5 19.05 18.97 0.72 o
-5 26 6 114.08 117.41 5.87 o
-5 26 8 7.60 8.39 0.43 o
-5 26 9 2.62 2.47 0.28 o
-5 26 10 5.31 5.98 0.45 o
-5 27 1 9.21 8.56 1.19 o
-5 27 2 10.92 10.02 0.91 o
-5 27 3 17.97 17.14 1.12 o
-5 27 4 3.59 3.92 0.35 o
-5 27 5 0.81 0.82 0.24 o
-5 27 6 17.98 18.91 0.90 o
-5 27 7 2.43 2.11 0.26 o
-5 27 8 2.24 2.43 0.30 o
-5 28 1 18.48 18.98 1.97 o
-5 28 2 6.74 6.56 0.65 o
-5 28 3 5.69 5.78 0.49 o
-5 28 4 2.90 2.56 0.30 o
-5 28 5 10.80 11.51 0.53 o
-5 28 6 1.60 1.10 0.33 o
-5 29 3 11.39 11.37 0.59 o
-5 29 4 34.73 36.63 2.03 o
-4 0 2 192.12 190.53 5.25 o
-4 0 4 172.09 172.97 5.61 o
-4 0 6 188.90 196.07 8.33 o
-4 0 12 70.36 71.38 2.31 o
-4 0 14 63.61 63.94 1.91 o
-4 0 20 79.48 78.85 3.02 o
-4 1 1 397.32 389.73 9.84 o
-4 1 3 21.36 21.02 0.70 o
-4 1 4 311.08 307.85 7.76 o
-4 1 5 560.14 571.48 15.59 o
-4 1 6 4.67 4.74 0.42 o
-4 1 7 196.86 209.85 10.79 o
-4 1 8 49.59 50.37 1.92 o
-4 1 9 104.37 108.51 3.81 o
-4 1 10 14.80 15.37 1.03 o
-4 1 11 3.32 3.20 0.45 o
-4 1 12 147.63 148.54 4.04 o
-4 1 13 192.20 190.70 5.01 o
-4 1 14 79.78 82.78 2.89 o
-4 1 15 19.12 19.29 0.70 o
-4 1 16 45.71 46.32 1.32 o
-4 1 17 66.44 67.68 1.88 o
-4 1 18 48.59 49.84 1.58 o
-4 1 19 4.83 5.12 0.35 o
-4 1 20 32.94 33.87 1.21 o
-4 1 21 5.30 4.99 0.42 o
-4 2 1 55.92 55.95 1.53 o
-4 2 2 358.27 353.59 9.00 o
-4 2 3 782.65 773.78 20.93 o
-4 2 4 287.84 291.47 7.35 o
-4 2 5 16.96 17.23 0.66 o
-4 2 6 123.27 125.25 3.55 o
-4 2 7 192.86 203.01 5.59 o
-4 2 8 407.18 415.42 14.19 o
-4 2 9 107.21 111.05 3.78 o
-4 2 10 39.14 39.75 1.88 o
-4 2 12 3.64 3.69 0.31 o
-4 2 13 9.33 9.10 0.47 o
-4 2 14 106.28 104.00 2.81 o
-4 2 15 192.77 191.69 5.26 o
-4 2 16 63.38 62.16 1.84 o
-4 2 17 8.50 8.75 0.46 o
-4 2 19 29.91 30.26 1.23 o
-4 2 20 4.43 4.13 0.30 o
-4 3 1 204.63 199.72 4.95 o
-4 3 2 309.50 305.91 7.66 o
-4 3 3 518.31 516.19 13.66 o
-4 3 4 68.82 71.03 1.89 o
-4 3 5 66.68 67.18 2.00 o
-4 3 6 520.04 526.42 14.78 o
-4 3 7 8.59 8.65 0.53 o
-4 3 8 44.96 43.98 1.78 o
-4 3 9 105.43 109.49 3.75 o
-4 3 12 19.75 19.34 0.71 o
-4 3 14 8.14 8.75 0.49 o
-4 3 15 9.88 10.03 0.49 o
-4 3 16 2.69 2.94 0.31 o
-4 3 17 12.01 12.05 0.57 o
-4 3 18 39.90 39.12 1.20 o
-4 3 19 23.17 23.60 0.86 o
-4 3 20 16.66 16.41 0.71 o
-4 4 1 0.71 0.74 0.19 o
-4 4 2 2.18 2.31 0.26 o
-4 4 3 717.29 711.33 19.81 o
-4 4 4 11.49 11.11 0.49 o
-4 4 5 167.20 169.07 4.42 o
-4 4 6 3.14 3.01 0.35 o
-4 4 7 133.99 137.92 4.06 o
-4 4 8 33.49 34.80 1.26 o
-4 4 9 138.27 140.30 4.73 o
-4 4 12 37.76 38.19 1.15 o
-4 4 13 32.14 32.87 1.19 o
-4 4 15 19.45 18.83 0.73 o
-4 4 18 6.13 6.10 0.43 o
-4 4 19 27.71 27.37 1.13 o
-4 4 20 1.22 1.31 0.26 o
-4 5 1 323.84 316.96 8.08 o
-4 5 2 118.60 117.17 2.96 o
-4 5 3 444.62 439.89 11.55 o
-4 5 5 127.62 127.59 3.40 o
-4 5 6 254.82 248.95 6.74 o
-4 5 7 2.77 3.00 0.38 o
-4 5 8 116.27 116.24 3.34 o
-4 5 9 12.79 13.78 1.06 o
-4 5 11 86.07 86.45 2.45 o
-4 5 12 360.52 364.80 10.37 o
-4 5 13 53.13 51.79 1.46 o
-4 5 15 5.06 5.14 0.41 o
-4 5 16 104.45 104.67 3.09 o
-4 5 17 13.27 14.17 0.67 o
-4 5 18 2.02 2.23 0.30 o
-4 5 19 18.65 18.38 0.75 o
-4 5 20 6.86 7.17 0.42 o
-4 6 1 1375.09 1336.15 38.15 o
-4 6 2 33.61 32.76 0.98 o
-4 6 3 16.69 17.24 0.65 o
-4 6 4 14.71 15.07 0.65 o
-4 6 5 6.48 5.81 0.44 o
-4 6 6 21.00 20.22 0.82 o
-4 6 7 69.94 70.42 2.10 o
-4 6 8 169.68 167.44 4.78 o
-4 6 9 291.88 284.75 10.14 o
-4 6 11 147.74 145.91 3.77 o
-4 6 12 16.26 16.39 0.59 o
-4 6 13 162.46 162.80 4.61 o
-4 6 14 106.18 108.81 3.99 o
-4 6 15 124.16 121.64 3.33 o
-4 6 16 10.95 10.93 0.53 o
-4 7 1 143.32 140.65 3.58 o
-4 7 2 171.00 167.69 4.68 o
-4 7 3 43.77 42.67 1.34 o
-4 7 4 507.87 496.92 14.16 o
-4 7 5 211.40 207.81 5.72 o
-4 7 6 279.60 280.01 7.76 o
-4 7 7 138.87 136.16 4.07 o
-4 7 8 28.29 28.30 1.12 o
-4 7 11 183.95 183.11 5.12 o
-4 7 12 27.08 26.44 0.82 o
-4 7 13 4.07 3.87 0.30 o
-4 7 14 48.98 49.01 1.45 o
-4 7 15 2.70 2.37 0.27 o
-4 7 16 2.59 2.66 0.28 o
-4 7 17 40.39 39.79 1.53 o
-4 7 18 49.74 49.82 1.47 o
-4 8 1 180.53 177.60 4.58 o
-4 8 2 624.48 615.28 17.29 o
-4 8 3 66.64 65.13 1.89 o
-4 8 4 239.54 233.93 6.44 o
-4 8 5 71.91 75.08 2.23 o
-4 8 7 70.95 72.71 2.23 o
-4 8 8 61.65 60.32 1.98 o
-4 8 9 19.27 18.91 0.88 o
-4 8 10 225.87 220.86 6.44 o
-4 8 11 76.41 77.75 2.32 o
-4 8 12 215.20 216.00 6.17 o
-4 8 13 5.67 5.96 0.37 o
-4 8 14 5.15 5.41 0.35 o
-4 8 15 4.87 4.71 0.45 o
-4 8 16 16.47 16.94 0.75 o
-4 8 17 7.68 6.99 0.46 o
-4 8 19 2.58 2.56 0.31 o
-4 8 20 52.12 53.02 1.70 o
-4 9 1 310.24 302.68 7.94 o
-4 9 2 67.41 66.53 1.88 o
-4 9 3 6.70 7.06 0.52 o
-4 9 4 17.04 16.82 0.76 o
-4 9 5 389.59 380.19 11.10 o
-4 9 6 105.04 105.20 3.11 o
-4 9 7 138.38 134.15 3.91 o
-4 9 9 30.26 31.32 1.24 o
-4 9 10 34.51 33.96 0.97 o
-4 9 11 60.95 60.90 1.76 o
-4 9 12 36.48 36.27 1.16 o
-4 9 13 88.62 88.24 2.45 o
-4 9 14 5.41 5.51 0.36 o
-4 9 15 4.27 4.32 0.32 o
-4 9 16 1.76 1.53 0.25 o
-4 9 17 49.71 50.65 1.47 o
-4 9 18 3.56 3.67 0.30 o
-4 9 19 12.18 12.52 0.54 o
-4 9 20 23.94 23.55 0.81 o
-4 10 1 65.97 64.69 1.85 o
-4 10 2 191.64 190.00 5.03 o
-4 10 3 100.85 97.97 3.22 o
-4 10 4 294.84 284.15 8.07 o
-4 10 5 127.97 127.76 3.89 o
-4 10 6 138.15 136.87 4.23 o
-4 10 7 340.10 339.70 12.72 o
-4 10 8 303.23 305.06 10.33 o
-4 10 9 44.92 45.24 1.56 o
-4 10 10 1.30 1.21 0.18 o
-4 10 12 188.45 186.72 5.67 o
-4 10 13 3.27 2.96 0.28 o
-4 10 14 376.64 380.79 11.57 o
-4 10 15 25.33 25.00 0.89 o
-4 10 16 83.48 84.38 2.41 o
-4 10 17 6.91 6.87 0.41 o
-4 10 18 38.79 38.41 1.62 o
-4 10 19 4.23 4.53 0.30 o
-4 10 20 1.78 1.90 0.30 o
-4 11 1 11.11 10.93 0.56 o
-4 11 2 119.00 118.10 3.52 o
-4 11 3 69.41 70.38 2.15 o
-4 11 4 15.81 15.99 0.80 o
-4 11 5 30.03 28.47 1.13 o
-4 11 6 144.62 142.07 4.91 o
-4 11 7 200.78 202.76 6.16 o
-4 11 8 43.68 41.21 1.49 o
-4 11 9 8.02 8.21 0.35 o
-4 11 10 41.19 40.91 1.22 o
-4 11 11 182.28 178.99 5.27 o
-4 11 12 43.30 42.53 1.32 o
-4 11 13 33.30 33.99 1.05 o
-4 11 15 4.70 5.06 0.35 o
-4 11 16 13.29 12.81 0.54 o
-4 11 17 4.22 3.94 0.31 o
-4 11 18 18.47 18.74 0.65 o
-4 11 19 28.41 27.45 0.86 o
-4 12 1 4.26 4.11 0.40 o
-4 12 2 26.41 26.21 1.03 o
-4 12 3 445.50 430.55 14.08 o
-4 12 4 44.45 43.64 1.54 o
-4 12 5 8.72 8.75 0.60 o
-4 12 8 48.04 48.07 1.31 o
-4 12 9 139.56 137.56 4.06 o
-4 12 10 4.66 4.67 0.28 o
-4 12 11 7.87 7.66 0.34 o
-4 12 12 10.52 10.31 0.43 o
-4 12 13 19.60 19.80 0.68 o
-4 12 15 54.70 53.49 1.52 o
-4 12 16 6.38 6.55 0.41 o
-4 12 18 10.32 9.96 0.50 o
-4 12 19 86.40 84.81 2.71 o
-4 13 1 10.40 9.96 0.58 o
-4 13 2 229.65 225.58 8.56 o
-4 13 3 85.55 82.02 4.23 o
-4 13 4 404.60 403.95 20.87 o
-4 13 5 5.71 6.72 0.68 o
-4 13 6 211.86 214.44 6.63 o
-4 13 7 2.29 2.39 0.23 o
-4 13 8 3.24 3.60 0.24 o
-4 13 9 8.63 8.36 0.37 o
-4 13 10 12.54 12.39 0.46 o
-4 13 11 37.40 36.42 1.08 o
-4 13 12 61.18 61.42 1.79 o
-4 13 13 31.53 31.34 0.94 o
-4 13 14 63.40 62.51 2.43 o
-4 13 15 2.68 2.38 0.28 o
-4 13 16 58.02 59.19 1.93 o
-4 13 17 6.89 6.74 0.40 o
-4 13 18 42.11 42.67 1.54 o
-4 13 19 4.96 4.92 0.30 o
-4 14 1 344.22 339.61 14.73 o
-4 14 2 4.09 4.31 0.58 o
-4 14 3 156.33 153.62 7.86 o
-4 14 4 234.79 232.08 10.28 o
-4 14 5 4.58 4.36 0.49 o
-4 14 6 8.91 9.37 0.41 o
-4 14 7 84.79 84.47 2.76 o
-4 14 8 281.44 272.96 7.77 o
-4 14 9 369.57 358.08 9.76 o
-4 14 10 32.66 33.62 0.95 o
-4 14 11 1.87 1.83 0.20 o
-4 14 12 25.51 25.49 0.78 o
-4 14 13 87.49 87.12 2.29 o
-4 14 14 27.88 28.24 0.90 o
-4 14 15 10.12 10.37 0.49 o
-4 14 16 2.67 2.19 0.27 o
-4 14 17 30.48 29.92 0.92 o
-4 14 18 11.33 11.51 0.52 o
-4 15 1 53.13 51.96 2.92 o
-4 15 3 82.95 83.49 3.07 o
-4 15 4 65.79 64.40 3.23 o
-4 15 5 119.55 116.72 3.43 o
-4 15 6 83.85 82.51 2.41 o
-4 15 7 166.19 161.53 4.49 o
-4 15 8 34.31 33.48 1.13 o
-4 15 9 92.97 90.49 2.66 o
-4 15 10 77.03 76.66 1.99 o
-4 15 12 104.22 104.48 3.01 o
-4 15 13 7.73 7.60 0.40 o
-4 15 15 5.21 5.39 0.37 o
-4 15 16 2.42 2.64 0.28 o
-4 15 18 10.54 10.42 0.47 o
-4 16 1 37.21 35.97 1.46 o
-4 16 2 420.29 415.03 20.60 o
-4 16 3 34.59 34.41 1.80 o
-4 16 4 7.75 7.25 0.33 o
-4 16 5 95.89 94.01 2.61 o
-4 16 7 13.99 14.33 0.50 o
-4 16 9 2.91 2.70 0.24 o
-4 16 10 153.56 149.74 3.90 o
-4 16 11 3.20 3.23 0.25 o
-4 16 12 9.17 9.26 0.40 o
-4 16 13 11.41 11.52 0.46 o
-4 16 14 38.69 37.50 1.13 o
-4 16 15 7.54 7.22 0.41 o
-4 16 16 5.60 5.54 0.35 o
-4 16 17 17.90 17.28 0.70 o
-4 16 18 12.56 12.19 0.82 o
-4 17 1 25.58 25.09 0.77 o
-4 17 2 15.46 15.54 0.56 o
-4 17 3 94.06 93.77 3.00 o
-4 17 4 49.81 51.08 1.56 o
-4 17 5 5.26 5.52 0.29 o
-4 17 7 88.72 85.42 2.19 o
-4 17 8 8.08 7.90 0.36 o
-4 17 9 52.36 52.14 1.43 o
-4 17 10 12.18 11.96 0.49 o
-4 17 11 270.66 263.40 7.21 o
-4 17 12 7.05 6.79 0.38 o
-4 17 13 39.49 37.67 1.24 o
-4 17 14 7.06 6.74 0.37 o
-4 17 15 16.49 16.15 0.62 o
-4 17 16 1.82 1.59 0.25 o
-4 17 17 24.13 24.18 0.90 o
-4 18 1 64.62 64.26 2.19 o
-4 18 2 91.17 91.56 3.08 o
-4 18 3 46.08 46.87 1.48 o
-4 18 4 208.88 206.97 5.62 o
-4 18 5 78.75 78.11 2.05 o
-4 18 6 72.98 71.86 1.83 o
-4 18 8 172.70 168.32 4.51 o
-4 18 9 86.23 83.60 2.35 o
-4 18 10 46.55 46.30 1.41 o
-4 18 11 6.31 6.33 0.35 o
-4 18 12 3.47 3.71 0.27 o
-4 18 13 27.33 26.65 0.93 o
-4 18 14 33.04 33.30 1.10 o
-4 18 15 2.71 2.25 0.24 o
-4 18 16 55.47 55.08 1.70 o
-4 19 1 145.13 146.15 6.31 o
-4 19 2 1.22 1.20 0.19 o
-4 19 4 4.67 4.58 0.26 o
-4 19 5 264.88 264.75 7.86 o
-4 19 6 22.32 21.76 0.66 o
-4 19 7 33.23 32.40 0.91 o
-4 19 8 8.59 8.50 0.38 o
-4 19 9 33.30 33.35 1.30 o
-4 19 11 84.68 83.24 2.23 o
-4 19 12 28.05 27.39 0.81 o
-4 19 13 6.89 6.62 0.38 o
-4 19 14 1.84 1.78 0.22 o
-4 19 15 21.56 20.90 0.69 o
-4 19 16 4.29 3.99 0.37 o
-4 20 1 51.42 53.99 2.11 o
-4 20 2 10.00 10.14 0.45 o
-4 20 3 104.36 104.08 3.92 o
-4 20 4 7.90 8.13 0.35 o
-4 20 5 21.10 21.10 0.64 o
-4 20 6 2.70 2.74 0.23 o
-4 20 7 23.06 23.17 0.70 o
-4 20 8 14.44 14.43 0.52 o
-4 20 9 21.69 20.92 0.67 o
-4 20 11 0.92 0.81 0.21 o
-4 20 12 1.70 2.01 0.23 o
-4 20 13 6.62 6.52 0.34 o
-4 20 14 4.26 4.39 0.27 o
-4 20 15 5.74 6.00 0.34 o
-4 21 1 2.28 2.18 0.27 o
-4 21 2 20.19 20.74 1.05 o
-4 21 3 6.47 6.78 0.33 o
-4 21 4 28.98 29.06 0.90 o
-4 21 5 1.17 1.09 0.18 o
-4 21 6 231.69 230.14 6.12 o
-4 21 7 8.81 9.12 0.39 o
-4 21 8 12.01 12.53 0.48 o
-4 21 9 1.08 0.91 0.21 o
-4 21 10 3.95 3.88 0.29 o
-4 21 11 97.30 94.10 2.52 o
-4 21 12 33.41 32.37 0.94 o
-4 21 13 63.65 63.84 2.24 o
-4 21 14 39.94 39.52 1.61 o
-4 21 15 31.91 32.36 1.02 o
-4 22 1 26.24 27.02 1.68 o
-4 22 2 4.89 5.43 0.35 o
-4 22 3 90.09 91.49 2.76 o
-4 22 4 36.21 36.76 1.16 o
-4 22 5 4.35 4.69 0.29 o
-4 22 6 9.28 9.42 0.42 o
-4 22 7 48.80 48.85 1.41 o
-4 22 8 3.56 3.76 0.29 o
-4 22 9 107.58 106.67 3.01 o
-4 22 10 2.91 2.94 0.26 o
-4 22 11 9.76 9.38 0.46 o
-4 22 13 22.08 22.68 0.90 o
-4 22 15 46.66 45.66 1.28 o
-4 23 1 1.53 1.60 0.30 o
-4 23 2 32.96 33.27 1.46 o
-4 23 3 14.54 15.04 0.65 o
-4 23 4 76.56 77.58 2.60 o
-4 23 5 7.19 7.07 0.36 o
-4 23 6 12.04 12.47 0.50 o
-4 23 7 7.30 6.79 0.39 o
-4 23 8 44.61 43.61 1.24 o
-4 23 9 2.26 2.21 0.24 o
-4 23 10 79.27 80.95 2.21 o
-4 23 12 22.41 22.76 0.70 o
-4 23 13 26.16 26.01 1.24 o
-4 23 14 1.39 1.42 0.20 o
-4 24 1 3.71 3.15 0.33 o
-4 24 2 80.81 84.21 4.40 o
-4 24 3 90.94 92.74 3.22 o
-4 24 4 18.36 18.21 0.82 o
-4 24 7 19.60 19.63 0.69 o
-4 24 8 4.42 4.35 0.32 o
-4 24 10 9.02 9.01 0.47 o
-4 24 11 1.32 1.24 0.22 o
-4 24 12 2.11 2.08 0.23 o
-4 25 1 65.28 64.05 4.31 o
-4 25 2 20.66 20.12 1.35 o
-4 25 3 2.50 2.46 0.29 o
-4 25 4 9.15 8.95 0.49 o
-4 25 5 82.42 81.82 2.88 o
-4 25 6 5.46 5.02 0.34 o
-4 25 7 50.50 49.58 1.41 o
-4 25 8 4.86 4.86 0.36 o
-4 25 9 34.17 34.40 1.03 o
-4 25 11 7.11 7.32 0.48 o
-4 26 1 14.76 14.18 1.02 o
-4 26 2 11.60 12.22 0.81 o
-4 26 3 19.39 19.67 0.72 o
-4 26 4 38.11 36.73 1.58 o
-4 26 5 11.43 10.90 0.48 o
-4 26 7 26.41 25.84 0.81 o
-4 26 8 149.38 148.16 6.51 o
-4 26 10 10.69 10.88 0.57 o
-4 26 11 2.66 2.45 0.29 o
-4 26 12 2.97 3.44 0.68 o
-4 27 1 19.11 19.21 1.29 o
-4 27 2 13.19 13.04 0.88 o
-4 27 3 15.60 15.65 1.02 o
-4 27 4 17.47 16.94 0.93 o
-4 27 5 13.07 14.27 0.65 o
-4 27 6 5.96 5.55 0.35 o
-4 27 7 5.38 5.77 0.35 o
-4 27 8 19.29 20.07 1.06 o
-4 27 9 5.82 5.71 0.42 o
-4 27 11 48.44 46.85 2.07 o
-4 28 1 11.72 11.93 0.66 o
-4 28 2 17.48 17.68 1.03 o
-4 28 3 26.55 26.85 2.08 o
-4 28 4 3.12 3.35 0.39 o
-4 28 5 5.57 5.71 0.41 o
-4 28 6 2.80 2.48 0.28 o
-4 28 7 19.62 19.25 0.67 o
-4 28 8 1.92 2.06 0.30 o
-4 28 9 24.52 25.75 0.85 o
-4 29 1 10.30 10.94 0.67 o
-4 29 2 6.24 6.03 0.65 o
-4 29 3 5.47 5.46 0.59 o
-4 29 4 2.32 2.34 0.40 o
-4 29 5 17.55 18.21 1.17 o
-4 29 6 63.84 63.15 6.24 o
-4 29 7 4.95 5.44 0.35 o
-4 29 8 5.26 5.97 0.42 o
-4 30 3 32.00 32.24 3.31 o
-4 30 4 12.06 12.16 0.64 o
-4 30 5 12.05 13.16 0.81 o
-4 30 6 11.49 12.33 0.53 o
-4 31 3 1.21 1.04 0.31 o
-3 0 2 231.24 229.10 5.84 o
-3 0 4 99.17 106.40 3.53 o
-3 0 6 307.31 329.09 9.86 o
-3 0 8 317.48 322.98 10.89 o
-3 0 10 297.53 309.57 10.84 o
-3 0 14 37.10 38.39 1.58 o
-3 0 16 48.36 49.54 2.25 o
-3 1 1 531.10 536.07 13.18 o
-3 1 2 41.46 42.04 1.11 o
-3 1 3 651.10 671.09 16.77 o
-3 1 5 52.65 54.47 1.47 o
-3 1 6 240.00 247.56 6.29 o
-3 1 7 486.06 508.28 13.03 o
-3 1 8 33.61 33.63 1.07 o
-3 1 9 236.64 241.65 6.93 o
-3 1 10 81.77 85.87 2.70 o
-3 1 11 35.63 36.57 1.54 o
-3 1 12 31.74 32.06 2.26 o
-3 1 13 4.90 4.58 0.29 o
-3 1 14 63.34 63.03 2.00 o
-3 1 15 183.33 182.70 6.08 o
-3 1 16 96.56 99.28 2.89 o
-3 1 17 12.20 12.35 0.51 o
-3 1 18 23.91 25.26 1.04 o
-3 1 19 36.75 36.63 1.45 o
-3 1 20 41.06 41.47 1.35 o
-3 1 21 5.45 5.46 0.37 o
-3 2 1 1.16 1.07 0.19 o
-3 2 2 164.03 164.53 3.98 o
-3 2 3 54.47 57.07 1.47 o
-3 2 4 487.35 519.10 12.95 o
-3 2 5 1161.95 1201.22 33.31 o
-3 2 6 470.38 493.80 12.78 o
-3 2 7 16.22 16.95 0.59 o
-3 2 8 99.67 102.24 2.73 o
-3 2 9 120.44 124.27 3.73 o
-3 2 10 376.69 379.49 11.11 o
-3 2 11 83.17 82.91 2.51 o
-3 2 12 36.30 37.69 1.94 o
-3 2 13 117.67 116.50 3.59 o
-3 2 14 14.46 14.88 0.53 o
-3 2 15 10.89 10.70 0.46 o
-3 2 16 53.07 53.82 1.75 o
-3 2 17 135.29 138.31 4.43 o
-3 2 18 67.33 66.58 1.86 o
-3 2 19 5.68 5.54 0.38 o
-3 2 21 11.02 10.71 0.47 o
-3 3 1 118.39 113.93 2.95 o
-3 3 2 238.68 242.24 6.03 o
-3 3 3 440.42 456.55 11.40 o
-3 3 4 769.94 797.58 20.73 o
-3 3 5 612.79 611.22 15.36 o
-3 3 6 60.50 65.22 1.70 o
-3 3 7 91.98 95.46 2.55 o
-3 3 8 606.95 625.56 17.41 o
-3 3 9 17.72 20.12 0.84 o
-3 3 10 45.31 46.73 1.56 o
-3 3 11 118.46 121.32 4.05 o
-3 3 12 185.57 193.84 7.45 o
-3 3 13 448.95 443.72 13.10 o
-3 3 14 16.36 16.03 0.56 o
-3 3 16 0.93 1.11 0.23 o
-3 3 17 14.50 15.11 0.60 o
-3 3 18 4.70 4.76 0.40 o
-3 3 19 9.14 9.31 0.61 o
-3 3 20 33.27 33.47 1.41 o
-3 3 21 12.12 13.22 0.52 o
-3 4 1 887.87 874.39 24.34 o
-3 4 2 7.45 7.50 0.46 o
-3 4 3 10.90 11.66 0.64 o
-3 4 4 3.79 3.52 0.28 o
-3 4 5 602.71 613.99 15.76 o
-3 4 6 21.62 22.04 0.73 o
-3 4 7 279.56 283.22 7.20 o
-3 4 8 8.37 8.21 0.51 o
-3 4 9 49.59 52.03 1.65 o
-3 4 10 42.53 43.84 1.49 o
-3 4 11 203.04 204.31 7.47 o
-3 4 12 138.74 144.49 6.16 o
-3 4 14 38.96 39.02 1.53 o
-3 4 15 14.68 15.45 0.59 o
-3 4 16 1.31 1.47 0.22 o
-3 4 17 19.73 19.49 0.64 o
-3 4 19 1.82 1.87 0.27 o
-3 4 20 3.45 3.83 0.31 o
-3 4 21 15.77 15.91 0.57 o
-3 5 1 11.79 11.17 0.55 o
-3 5 2 1476.15 1478.42 43.70 o
-3 5 3 669.40 660.60 17.17 o
-3 5 4 52.62 49.73 1.34 o
-3 5 5 712.93 720.29 19.58 o
-3 5 6 13.29 11.91 0.52 o
-3 5 7 125.35 124.43 3.31 o
-3 5 8 316.81 309.52 8.13 o
-3 5 9 4.03 4.94 0.44 o
-3 5 10 154.01 155.53 4.65 o
-3 5 11 36.98 37.15 1.53 o
-3 5 12 13.25 12.89 0.75 o
-3 5 13 59.29 59.53 1.81 o
-3 5 14 326.81 327.58 10.02 o
-3 5 15 64.54 63.82 2.11 o
-3 5 16 0.81 0.76 0.21 o
-3 5 17 3.23 3.06 0.28 o
-3 5 18 59.30 58.31 1.94 o
-3 5 19 7.52 7.68 0.44 o
-3 5 20 1.46 1.45 0.26 o
-3 5 21 7.91 7.78 0.40 o
-3 6 1 241.44 243.68 6.13 o
-3 6 2 583.38 573.12 14.90 o
-3 6 3 1469.52 1473.80 42.65 o
-3 6 4 8.36 8.92 0.41 o
-3 6 5 93.72 95.01 2.56 o
-3 6 6 87.78 88.89 2.46 o
-3 6 7 29.72 29.96 1.01 o
-3 6 8 40.58 39.57 1.52 o
-3 6 9 72.77 73.11 2.20 o
-3 6 10 189.09 189.81 6.54 o
-3 6 11 224.08 223.34 7.39 o
-3 6 12 245.76 245.78 7.17 o
-3 6 13 206.48 207.26 5.34 o
-3 6 14 8.87 8.76 0.39 o
-3 6 15 114.59 113.51 3.23 o
-3 6 16 61.29 61.50 1.70 o
-3 6 17 87.61 86.70 2.35 o
-3 6 18 9.84 9.62 0.45 o
-3 6 21 1.42 1.13 0.25 o
-3 7 1 350.31 350.17 8.82 o
-3 7 2 227.58 226.30 5.61 o
-3 7 3 204.76 199.56 4.96 o
-3 7 4 138.89 141.10 3.58 o
-3 7 5 95.81 95.21 2.50 o
-3 7 6 519.41 511.50 13.97 o
-3 7 7 134.39 133.42 3.57 o
-3 7 8 263.24 265.60 7.41 o
-3 7 9 205.72 206.36 5.82 o
-3 7 10 2.84 2.66 0.54 o
-3 7 11 14.66 13.76 0.87 o
-3 7 12 47.80 48.46 1.31 o
-3 7 13 191.53 190.49 4.89 o
-3 7 14 15.37 14.94 0.53 o
-3 7 15 3.97 3.83 0.28 o
-3 7 16 61.08 61.35 1.64 o
-3 7 17 1.20 1.08 0.22 o
-3 7 18 1.10 1.05 0.23 o
-3 7 19 21.66 21.82 0.74 o
-3 7 20 35.15 35.19 1.11 o
-3 8 1 137.42 135.99 3.56 o
-3 8 2 607.32 602.88 15.73 o
-3 8 3 305.68 312.88 8.38 o
-3 8 4 793.72 794.57 22.73 o
-3 8 5 67.99 67.05 1.85 o
-3 8 6 277.42 280.95 7.43 o
-3 8 7 123.16 126.26 4.11 o
-3 8 8 2.13 2.11 0.35 o
-3 8 9 89.56 91.98 2.75 o
-3 8 10 42.96 40.86 1.63 o
-3 8 12 217.64 214.02 5.64 o
-3 8 13 85.16 86.85 2.56 o
-3 8 14 128.59 128.30 3.29 o
-3 8 15 10.92 11.20 0.46 o
-3 8 16 3.35 3.36 0.28 o
-3 8 17 2.98 2.96 0.28 o
-3 8 18 19.94 20.00 0.67 o
-3 8 19 10.15 9.98 0.51 o
-3 8 21 3.57 3.81 0.31 o
-3 9 1 498.17 495.26 12.62 o
-3 9 2 134.37 131.79 3.30 o
-3 9 3 556.97 557.64 14.89 o
-3 9 4 104.52 103.77 2.90 o
-3 9 5 4.13 4.38 0.38 o
-3 9 6 4.46 5.71 0.44 o
-3 9 7 501.30 493.21 14.74 o
-3 9 8 173.26 173.12 4.90 o
-3 9 9 147.55 146.65 4.25 o
-3 9 10 1.18 1.10 0.35 o
-3 9 11 13.94 15.14 0.69 o
-3 9 12 45.35 44.69 1.23 o
-3 9 13 30.99 30.47 0.93 o
-3 9 14 5.55 5.43 0.36 o
-3 9 15 90.55 88.41 2.33 o
-3 9 16 17.18 17.32 0.63 o
-3 9 18 4.03 4.36 0.31 o
-3 9 19 34.62 34.69 1.03 o
-3 9 20 6.81 6.68 0.39 o
-3 9 21 14.05 13.89 0.76 o
-3 10 1 82.34 82.70 2.13 o
-3 10 2 134.47 131.40 3.34 o
-3 10 3 72.31 71.49 2.13 o
-3 10 4 243.56 245.22 7.79 o
-3 10 5 156.93 154.38 4.60 o
-3 10 6 382.53 368.06 10.44 o
-3 10 7 147.22 149.04 4.26 o
-3 10 8 73.53 73.55 2.69 o
-3 10 9 271.85 272.77 8.34 o
-3 10 10 263.23 255.38 8.01 o
-3 10 11 35.40 35.00 0.98 o
-3 10 12 12.17 12.29 0.48 o
-3 10 13 9.57 9.26 0.43 o
-3 10 14 180.82 178.76 4.82 o
-3 10 15 4.16 3.98 0.31 o
-3 10 16 271.17 269.32 7.80 o
-3 10 17 14.67 13.56 0.53 o
-3 10 18 61.36 62.06 1.95 o
-3 10 19 6.14 6.29 0.36 o
-3 10 20 17.66 17.63 0.71 o
-3 11 1 125.42 123.68 3.44 o
-3 11 2 142.64 145.85 4.16 o
-3 11 3 22.67 21.63 0.83 o
-3 11 4 249.09 245.73 7.40 o
-3 11 5 32.00 32.99 1.14 o
-3 11 6 9.33 10.06 0.62 o
-3 11 7 36.80 37.21 1.32 o
-3 11 8 137.62 133.75 3.91 o
-3 11 9 304.22 304.54 9.86 o
-3 11 10 64.49 65.30 2.30 o
-3 11 11 9.72 9.90 0.39 o
-3 11 12 17.87 18.16 0.59 o
-3 11 13 132.07 129.38 4.28 o
-3 11 14 59.80 58.82 1.62 o
-3 11 15 29.55 30.24 1.03 o
-3 11 18 9.73 9.44 0.43 o
-3 11 19 3.39 3.47 0.27 o
-3 11 20 8.04 8.04 0.37 o
-3 12 1 11.51 12.27 0.55 o
-3 12 2 59.95 59.35 1.79 o
-3 12 3 20.99 20.19 0.96 o
-3 12 4 48.04 45.54 1.76 o
-3 12 5 435.76 417.86 12.60 o
-3 12 6 34.78 35.42 1.28 o
-3 12 7 62.86 59.75 2.10 o
-3 12 9 1.29 2.44 0.62 o
-3 12 10 21.55 20.86 0.63 o
-3 12 11 177.73 172.57 4.53 o
-3 12 13 1.23 1.09 0.22 o
-3 12 14 6.03 5.90 0.36 o
-3 12 15 2.40 4.41 0.35 o
-3 12 16 0.79 0.83 0.24 o
-3 12 17 51.36 50.71 1.61 o
-3 12 18 8.44 7.95 0.47 o
-3 12 19 1.22 1.11 0.24 o
-3 12 20 8.72 8.54 0.40 o
-3 13 1 8.98 9.67 0.52 o
-3 13 2 449.63 441.28 15.12 o
-3 13 3 28.05 28.67 1.44 o
-3 13 4 357.18 352.43 11.22 o
-3 13 5 109.15 108.16 3.18 o
-3 13 6 435.82 422.57 13.15 o
-3 13 7 4.62 4.50 0.47 o
-3 13 8 188.19 182.16 7.88 o
-3 13 9 6.04 6.49 0.40 o
-3 13 11 13.15 13.18 0.46 o
-3 13 12 1.46 1.47 0.20 o
-3 13 13 29.77 29.47 0.87 o
-3 13 14 64.97 64.18 1.91 o
-3 13 15 30.49 29.87 1.16 o
-3 13 16 60.92 60.45 1.78 o
-3 13 17 1.22 1.04 0.24 o
-3 13 18 32.21 32.57 1.37 o
-3 13 19 3.17 3.15 0.28 o
-3 13 20 32.19 32.39 1.02 o
-3 14 1 68.88 64.32 2.12 o
-3 14 3 262.88 256.74 8.17 o
-3 14 4 3.44 3.60 0.44 o
-3 14 5 322.49 311.09 10.20 o
-3 14 6 292.61 290.86 11.59 o
-3 14 7 17.92 16.78 0.88 o
-3 14 8 7.62 7.88 0.95 o
-3 14 9 93.05 91.58 2.40 o
-3 14 10 210.45 210.34 5.33 o
-3 14 11 285.20 280.44 7.87 o
-3 14 12 14.89 15.41 0.52 o
-3 14 13 13.47 13.81 0.51 o
-3 14 14 30.05 30.09 1.00 o
-3 14 15 50.26 49.87 1.90 o
-3 14 16 25.54 25.29 0.82 o
-3 14 17 8.24 8.72 0.45 o
-3 14 19 29.95 30.18 0.94 o
-3 15 1 159.01 156.40 6.33 o
-3 15 2 216.46 211.51 6.69 o
-3 15 3 66.35 69.19 2.17 o
-3 15 4 2.77 2.70 0.44 o
-3 15 5 163.68 165.41 7.67 o
-3 15 6 38.79 40.35 1.77 o
-3 15 7 112.69 113.76 4.35 o
-3 15 8 86.10 84.58 2.13 o
-3 15 9 212.33 212.27 6.09 o
-3 15 10 82.82 82.60 2.24 o
-3 15 11 91.56 90.67 2.70 o
-3 15 12 72.10 71.86 2.06 o
-3 15 13 0.90 1.08 0.21 o
-3 15 14 90.26 90.98 2.39 o
-3 15 15 5.20 5.36 0.37 o
-3 15 18 1.46 2.34 0.26 o
-3 16 2 88.04 84.97 3.20 o
-3 16 3 40.73 40.56 1.47 o
-3 16 4 567.92 562.19 22.95 o
-3 16 5 60.76 62.13 2.31 o
-3 16 6 3.93 3.06 0.44 o
-3 16 7 146.65 144.97 4.00 o
-3 16 8 7.75 7.87 0.34 o
-3 16 9 10.35 10.20 0.39 o
-3 16 10 2.62 2.76 0.23 o
-3 16 11 8.98 9.03 0.38 o
-3 16 12 168.52 164.16 4.25 o
-3 16 13 1.89 1.82 0.22 o
-3 16 14 3.23 3.35 0.37 o
-3 16 15 10.96 11.07 0.47 o
-3 16 16 35.46 33.30 1.40 o
-3 16 17 4.43 4.32 0.31 o
-3 16 18 5.01 4.93 0.33 o
-3 16 19 10.28 10.14 0.60 o
-3 17 1 581.46 570.23 22.86 o
-3 17 2 35.37 37.10 2.20 o
-3 17 3 61.53 61.31 1.99 o
-3 17 4 2.61 3.03 0.43 o
-3 17 5 32.11 32.37 1.43 o
-3 17 6 35.11 36.23 1.01 o
-3 17 7 19.34 19.36 0.59 o
-3 17 9 102.67 100.29 2.81 o
-3 17 10 22.60 22.83 0.77 o
-3 17 11 63.06 63.19 1.76 o
-3 17 12 18.16 17.62 0.58 o
-3 17 13 208.77 208.44 5.60 o
-3 17 14 3.07 3.22 0.28 o
-3 17 15 40.40 40.15 1.20 o
-3 17 16 6.77 6.71 0.47 o
-3 17 17 7.67 7.28 0.40 o
-3 17 18 1.56 1.63 0.24 o
-3 18 1 52.28 53.84 2.80 o
-3 18 2 22.54 22.32 0.99 o
-3 18 3 34.01 33.76 1.65 o
-3 18 4 109.68 109.26 3.13 o
-3 18 5 48.47 48.44 1.28 o
-3 18 6 262.11 259.99 7.21 o
-3 18 7 135.72 134.11 3.89 o
-3 18 8 37.94 38.40 1.25 o
-3 18 9 0.75 1.19 0.18 o
-3 18 10 155.41 154.78 4.97 o
-3 18 11 87.69 88.24 2.68 o
-3 18 12 65.71 66.80 1.81 o
-3 18 13 6.62 6.56 0.35 o
-3 18 14 1.03 1.06 0.20 o
-3 18 15 23.21 23.47 1.00 o
-3 18 16 19.15 19.86 0.67 o
-3 18 18 44.70 45.05 1.44 o
-3 19 1 4.51 4.95 0.35 o
-3 19 2 468.07 462.07 18.35 o
-3 19 3 221.89 221.43 7.03 o
-3 19 4 7.56 7.35 0.32 o
-3 19 6 8.05 8.43 0.35 o
-3 19 7 233.70 235.54 6.52 o
-3 19 8 9.50 9.17 0.41 o
-3 19 9 54.62 53.51 1.68 o
-3 19 10 13.29 13.40 0.47 o
-3 19 11 20.83 21.24 0.67 o
-3 19 12 3.07 2.91 0.24 o
-3 19 13 65.85 65.88 1.79 o
-3 19 14 42.65 42.47 1.43 o
-3 19 15 3.28 3.11 0.26 o
-3 19 16 1.90 1.61 0.22 o
-3 19 17 24.27 24.23 0.99 o
-3 20 1 266.28 271.88 12.24 o
-3 20 2 5.32 5.37 0.32 o
-3 20 3 49.77 50.11 1.57 o
-3 20 4 6.44 6.56 0.32 o
-3 20 5 118.33 116.60 3.22 o
-3 20 6 25.12 25.08 0.81 o
-3 20 7 45.34 44.43 1.17 o
-3 20 8 0.88 0.95 0.18 o
-3 20 9 24.26 24.51 0.76 o
-3 20 10 11.04 11.45 0.43 o
-3 20 11 19.40 19.22 0.61 o
-3 20 16 4.92 4.90 0.30 o
-3 20 17 9.00 8.91 0.52 o
-3 21 1 33.37 33.50 1.70 o
-3 21 2 112.36 113.92 3.71 o
-3 21 3 4.05 7.65 0.35 o
-3 21 4 39.44 39.25 1.46 o
-3 21 5 7.14 7.23 0.37 o
-3 21 6 18.53 18.51 0.60 o
-3 21 7 1.84 2.19 0.22 o
-3 21 8 251.76 253.81 8.25 o
-3 21 9 11.97 12.15 0.45 o
-3 21 10 3.57 3.53 0.25 o
-3 21 12 1.45 1.91 0.22 o
-3 21 13 68.03 66.46 1.78 o
-3 21 14 29.69 30.34 0.92 o
-3 21 15 51.71 54.23 1.49 o
-3 21 16 36.97 39.11 1.94 o
-3 22 1 4.79 4.94 0.40 o
-3 22 2 8.77 9.16 0.44 o
-3 22 3 15.32 15.69 0.61 o
-3 22 4 7.99 8.21 0.39 o
-3 22 5 137.67 135.08 4.12 o
-3 22 6 39.83 39.83 1.35 o
-3 22 7 10.82 11.11 0.45 o
-3 22 8 11.89 12.71 0.51 o
-3 22 9 31.71 33.35 1.13 o
-3 22 11 105.13 107.90 2.82 o
-3 22 12 9.57 9.65 0.45 o
-3 22 13 24.60 24.06 0.84 o
-3 22 15 21.27 21.95 0.69 o
-3 22 16 1.26 1.15 0.21 o
-3 23 1 47.24 46.86 1.85 o
-3 23 2 3.55 3.70 0.30 o
-3 23 3 1.09 0.96 0.25 o
-3 23 4 53.31 54.81 1.77 o
-3 23 5 40.12 40.17 1.37 o
-3 23 6 59.62 59.68 1.64 o
-3 23 7 6.23 6.31 0.35 o
-3 23 8 22.18 23.49 0.82 o
-3 23 9 16.32 16.87 0.59 o
-3 23 10 58.21 57.06 2.41 o
-3 23 11 0.70 0.88 0.21 o
-3 23 12 74.33 76.43 2.76 o
-3 23 14 13.32 13.83 0.65 o
-3 23 15 17.56 17.09 0.94 o
-3 24 1 32.05 31.67 1.29 o
-3 24 2 29.59 28.50 1.09 o
-3 24 4 96.41 95.97 3.16 o
-3 24 5 92.57 92.40 3.27 o
-3 24 6 21.21 21.46 0.84 o
-3 24 9 10.58 11.47 0.67 o
-3 24 10 5.13 5.10 0.38 o
-3 24 12 7.87 8.90 0.40 o
-3 24 14 3.57 3.52 0.39 o
-3 25 1 58.38 58.23 4.50 o
-3 25 2 34.60 35.22 1.53 o
-3 25 3 113.78 113.54 7.41 o
-3 25 4 8.61 8.04 0.73 o
-3 25 5 0.90 1.11 0.25 o
-3 25 6 6.57 6.41 0.59 o
-3 25 7 98.14 95.63 4.21 o
-3 25 8 3.01 3.41 0.32 o
-3 25 9 39.20 39.98 2.23 o
-3 25 11 13.16 13.19 0.59 o
-3 25 13 4.52 5.07 0.51 o
-3 26 1 5.96 6.02 0.65 o
-3 26 2 47.68 46.87 5.99 o
-3 26 3 23.85 25.32 1.77 o
-3 26 4 6.94 7.66 0.68 o
-3 26 5 24.22 24.08 1.14 o
-3 26 6 66.49 65.88 3.12 o
-3 26 7 14.16 14.00 0.58 o
-3 26 8 2.72 2.78 0.34 o
-3 26 9 27.77 26.64 1.38 o
-3 26 10 152.62 150.63 11.08 o
-3 26 12 11.77 12.54 0.59 o
-3 26 13 2.11 2.00 0.25 o
-3 27 1 31.98 32.91 2.94 o
-3 27 2 43.50 44.33 2.13 o
-3 27 3 32.23 33.11 2.81 o
-3 27 4 29.44 29.51 2.62 o
-3 27 5 21.42 21.84 1.55 o
-3 27 6 22.93 22.64 0.77 o
-3 27 7 3.74 4.31 0.42 o
-3 27 8 7.58 7.81 0.74 o
-3 27 9 15.74 15.97 0.71 o
-3 27 10 15.87 16.82 0.69 o
-3 27 11 9.79 9.65 0.59 o
-3 28 1 26.33 26.08 2.84 o
-3 28 3 14.57 14.40 1.55 o
-3 28 4 15.90 15.98 1.17 o
-3 28 5 26.34 27.22 1.58 o
-3 28 7 3.46 3.25 0.30 o
-3 28 8 1.24 1.11 0.28 o
-3 28 9 28.27 27.46 1.92 o
-3 28 10 2.33 2.06 0.29 o
-3 28 11 27.61 26.85 1.23 o
-3 29 2 15.31 15.77 1.43 o
-3 29 3 14.00 12.84 1.65 o
-3 29 4 2.59 2.58 0.38 o
-3 29 5 6.55 6.39 0.54 o
-3 29 6 9.38 8.95 0.52 o
-3 29 7 21.50 22.58 1.22 o
-3 29 8 85.53 86.89 4.73 o
-3 29 9 8.17 8.44 0.73 o
-3 29 10 8.50 8.47 0.73 o
-3 30 1 35.80 35.99 4.50 o
-3 30 2 12.63 12.37 0.97 o
-3 30 3 26.27 25.20 2.14 o
-3 30 5 43.52 45.67 2.76 o
-3 30 6 6.95 7.83 0.46 o
-3 30 7 12.63 13.44 0.91 o
-3 30 8 7.28 8.03 0.50 o
-3 31 2 42.18 43.09 4.27 o
-3 31 3 29.05 30.15 3.12 o
-3 31 4 6.28 6.09 0.49 o
-3 31 6 13.16 13.56 0.91 o
-2 0 2 240.72 238.96 6.57 o
-2 0 4 665.07 695.51 17.94 o
-2 0 6 36.50 39.31 1.76 o
-2 0 8 411.02 436.70 13.69 o
-2 0 10 333.97 335.40 15.78 o
-2 0 12 255.97 248.58 16.58 o
-2 0 14 96.04 95.94 4.65 o
-2 0 16 6.97 6.75 0.83 o
-2 0 18 35.91 36.13 2.64 o
-2 0 20 1.42 1.29 0.38 o
-2 1 1 505.47 508.69 11.82 o
-2 1 2 1775.80 1805.94 44.88 o
-2 1 3 759.97 794.26 18.96 o
-2 1 4 22.22 22.26 0.64 o
-2 1 5 716.34 765.24 20.21 o
-2 1 6 1.83 2.32 0.23 o
-2 1 7 111.44 115.75 3.51 o
-2 1 8 142.88 145.79 4.28 o
-2 1 9 310.40 322.09 8.54 o
-2 1 10 60.31 59.64 2.23 o
-2 1 11 237.72 233.81 7.14 o
-2 1 12 89.09 86.14 2.70 o
-2 1 13 3.72 4.52 0.51 o
-2 1 14 35.49 35.30 1.07 o
-2 1 15 6.05 5.62 0.34 o
-2 1 16 16.58 16.63 0.59 o
-2 1 17 129.07 129.47 3.98 o
-2 1 18 88.42 90.28 3.18 o
-2 1 19 5.71 5.62 0.42 o
-2 1 20 10.74 10.52 0.71 o
-2 1 21 14.77 14.92 0.57 o
-2 1 22 26.91 26.07 1.22 o
-2 2 1 583.70 591.13 13.78 o
-2 2 2 1005.87 1033.76 24.80 o
-2 2 3 2.51 2.53 0.18 o
-2 2 4 126.85 126.14 3.16 o
-2 2 5 10.25 11.25 0.42 o
-2 2 6 576.22 608.07 16.45 o
-2 2 7 1267.02 1318.28 37.79 o
-2 2 8 544.89 553.48 14.45 o
-2 2 9 7.94 7.69 0.48 o
-2 2 10 60.23 61.34 1.86 o
-2 2 11 47.37 49.04 1.70 o
-2 2 12 248.37 245.45 7.97 o
-2 2 13 53.98 54.86 2.64 o
-2 2 14 29.02 29.21 0.90 o
-2 2 15 141.04 143.50 4.12 o
-2 2 16 21.82 22.26 0.70 o
-2 2 17 8.61 8.77 0.41 o
-2 2 18 17.78 17.07 0.65 o
-2 2 19 73.20 73.24 2.69 o
-2 2 20 54.78 55.30 2.27 o
-2 2 21 3.89 3.85 0.31 o
-2 2 22 1.99 1.89 0.25 o
-2 3 1 28.01 28.32 0.81 o
-2 3 2 50.31 49.46 1.29 o
-2 3 3 125.12 130.72 3.13 o
-2 3 4 194.28 209.56 5.33 o
-2 3 5 656.71 686.54 17.47 o
-2 3 6 1194.14 1217.07 36.44 o
-2 3 7 508.74 509.72 13.57 o
-2 3 8 50.68 52.85 1.48 o
-2 3 9 84.39 84.74 2.73 o
-2 3 10 552.09 550.90 17.62 o
-2 3 11 22.00 22.62 0.95 o
-2 3 12 30.17 29.70 1.21 o
-2 3 13 101.17 98.14 5.58 o
-2 3 14 79.12 79.50 2.69 o
-2 3 15 250.83 250.50 7.67 o
-2 3 16 10.58 10.43 0.52 o
-2 3 17 1.28 1.11 0.22 o
-2 3 19 14.17 14.37 0.78 o
-2 3 20 4.16 4.62 0.36 o
-2 3 21 6.22 6.17 0.39 o
-2 3 22 22.22 22.62 0.78 o
-2 4 1 1416.04 1416.03 36.22 o
-2 4 3 1989.10 2008.15 56.18 o
-2 4 4 9.65 9.50 0.41 o
-2 4 5 21.93 23.55 0.77 o
-2 4 7 323.56 330.03 8.41 o
-2 4 8 28.06 29.22 0.90 o
-2 4 9 359.50 358.57 9.48 o
-2 4 10 19.99 19.71 0.84 o
-2 4 11 3.24 3.64 0.45 o
-2 4 12 35.98 38.03 2.29 o
-2 4 13 236.80 236.80 11.71 o
-2 4 14 142.90 142.12 4.44 o
-2 4 16 37.65 37.24 1.14 o
-2 4 17 4.94 4.38 0.29 o
-2 4 18 2.30 2.14 0.26 o
-2 4 19 12.96 13.37 0.53 o
-2 4 20 2.86 2.66 0.26 o
-2 4 21 2.87 2.87 0.33 o
-2 4 22 1.35 1.29 0.24 o
-2 5 1 143.97 146.40 3.50 o
-2 5 2 233.01 234.11 5.59 o
-2 5 3 29.03 30.11 0.88 o
-2 5 4 1601.16 1669.46 49.81 o
-2 5 5 869.99 891.28 25.40 o
-2 5 6 6.58 6.83 0.44 o
-2 5 7 712.68 707.18 18.76 o
-2 5 8 34.80 33.83 1.00 o
-2 5 9 84.86 87.39 2.36 o
-2 5 10 299.47 291.36 8.19 o
-2 5 11 1.94 2.18 0.41 o
-2 5 12 156.10 161.56 6.17 o
-2 5 13 45.80 46.70 1.56 o
-2 5 14 1.98 1.98 0.20 o
-2 5 15 28.15 28.18 0.89 o
-2 5 16 242.47 243.18 6.84 o
-2 5 17 57.30 56.58 1.76 o
-2 5 18 1.04 0.82 0.23 o
-2 5 19 1.80 1.73 0.25 o
-2 5 20 26.56 26.37 0.81 o
-2 5 21 3.39 3.08 0.26 o
-2 6 1 495.41 500.96 12.69 o
-2 6 2 154.72 152.99 3.75 o
-2 6 3 340.56 355.25 8.77 o
-2 6 4 509.98 495.89 12.65 o
-2 6 5 1073.88 1092.47 31.89 o
-2 6 6 1.31 1.65 0.24 o
-2 6 7 222.38 227.47 5.69 o
-2 6 8 180.42 178.77 4.50 o
-2 6 9 54.50 54.09 1.57 o
-2 6 10 47.17 47.11 1.45 o
-2 6 11 55.53 55.60 1.82 o
-2 6 12 140.58 143.02 6.45 o
-2 6 13 122.06 122.12 3.39 o
-2 6 14 194.68 198.95 5.24 o
-2 6 15 213.94 216.44 6.13 o
-2 6 16 3.50 3.40 0.25 o
-2 6 17 62.24 63.08 1.66 o
-2 6 18 28.40 28.71 0.85 o
-2 6 19 52.39 53.53 1.61 o
-2 6 20 6.80 7.05 0.38 o
-2 6 21 0.69 0.84 0.22 o
-2 7 1 1.78 1.82 0.19 o
-2 7 2 18.68 20.47 0.67 o
-2 7 3 419.97 435.05 10.97 o
-2 7 4 542.49 540.47 14.73 o
-2 7 5 196.15 193.18 4.81 o
-2 7 6 70.32 69.91 1.86 o
-2 7 7 140.21 138.39 3.52 o
-2 7 8 341.11 334.54 8.61 o
-2 7 9 43.00 44.04 1.29 o
-2 7 10 202.37 203.05 5.47 o
-2 7 11 239.24 232.33 7.07 o
-2 7 12 3.23 2.93 0.44 o
-2 7 13 36.05 35.86 1.13 o
-2 7 14 35.89 36.41 1.00 o
-2 7 15 174.09 173.32 4.76 o
-2 7 16 5.31 5.18 0.31 o
-2 7 17 1.41 1.39 0.22 o
-2 7 18 53.59 53.88 1.46 o
-2 7 21 7.80 8.00 0.38 o
-2 8 1 72.21 74.27 2.06 o
-2 8 2 785.60 807.06 22.40 o
-2 8 3 183.42 187.81 5.53 o
-2 8 4 1038.79 1026.42 28.53 o
-2 8 5 380.27 386.98 10.49 o
-2 8 6 761.39 764.73 20.80 o
-2 8 7 73.16 72.08 1.93 o
-2 8 8 267.93 264.88 6.88 o
-2 8 9 126.48 128.84 3.46 o
-2 8 10 11.48 12.26 0.59 o
-2 8 11 85.50 88.38 2.76 o
-2 8 12 24.30 24.88 1.53 o
-2 8 13 14.93 14.71 0.50 o
-2 8 14 157.88 157.95 4.84 o
-2 8 15 68.77 69.84 2.27 o
-2 8 16 53.28 52.89 1.51 o
-2 8 17 13.62 13.89 0.51 o
-2 8 18 1.65 1.68 0.23 o
-2 8 19 1.01 0.96 0.21 o
-2 8 20 18.26 18.76 0.61 o
-2 8 21 8.85 8.71 0.47 o
-2 9 1 182.08 183.95 5.00 o
-2 9 2 2.11 2.32 0.24 o
-2 9 3 409.70 419.02 11.08 o
-2 9 4 244.60 243.48 6.03 o
-2 9 5 781.38 793.61 21.98 o
-2 9 6 122.03 124.41 3.22 o
-2 9 7 44.49 44.25 1.30 o
-2 9 9 507.92 502.07 14.42 o
-2 9 10 185.78 187.85 5.16 o
-2 9 11 110.67 105.31 3.21 o
-2 9 12 1.36 1.46 0.24 o
-2 9 13 3.04 3.12 0.24 o
-2 9 14 37.93 37.23 1.08 o
-2 9 15 7.90 8.24 0.39 o
-2 9 17 75.17 74.97 2.28 o
-2 9 18 24.68 24.97 0.79 o
-2 9 19 1.58 1.75 0.23 o
-2 9 20 4.21 4.43 0.33 o
-2 9 21 20.99 21.71 0.82 o
-2 10 1 64.66 63.83 1.98 o
-2 10 2 431.90 431.75 11.90 o
-2 10 3 116.89 121.32 3.95 o
-2 10 4 132.93 133.07 3.50 o
-2 10 5 52.15 53.13 1.50 o
-2 10 6 229.77 230.67 6.00 o
-2 10 7 169.78 166.95 4.33 o
-2 10 8 370.34 368.48 10.07 o
-2 10 9 140.23 144.76 3.94 o
-2 10 10 14.39 14.74 0.70 o
-2 10 11 161.28 166.74 5.04 o
-2 10 12 184.44 181.30 5.30 o
-2 10 13 23.26 23.14 0.70 o
-2 10 14 26.77 26.36 0.79 o
-2 10 15 20.87 20.85 0.67 o
-2 10 16 127.31 128.97 3.83 o
-2 10 17 3.95 3.50 0.29 o
-2 10 18 150.30 149.84 4.08 o
-2 10 19 5.69 5.33 0.34 o
-2 10 20 35.61 35.99 1.40 o
-2 10 21 4.91 4.85 0.29 o
-2 11 1 161.94 156.72 4.01 o
-2 11 2 38.32 38.72 1.14 o
-2 11 3 114.22 114.87 3.40 o
-2 11 4 108.46 110.29 3.40 o
-2 11 5 41.73 42.91 1.30 o
-2 11 6 377.89 374.36 10.29 o
-2 11 7 3.01 2.88 0.35 o
-2 11 8 2.19 2.45 0.34 o
-2 11 9 41.32 40.57 1.33 o
-2 11 10 112.14 110.77 3.34 o
-2 11 11 319.88 325.49 10.68 o
-2 11 12 68.92 68.04 1.71 o
-2 11 13 9.69 9.90 0.40 o
-2 11 14 4.19 4.46 0.29 o
-2 11 15 62.92 61.57 1.64 o
-2 11 16 57.62 56.65 1.53 o
-2 11 17 27.30 26.80 0.83 o
-2 11 20 6.06 5.89 0.34 o
-2 11 21 2.59 2.61 0.23 o
-2 12 1 1015.57 1029.86 29.34 o
-2 12 2 85.45 85.63 2.27 o
-2 12 3 71.10 74.32 2.72 o
-2 12 4 64.36 66.16 1.86 o
-2 12 5 54.17 54.09 1.59 o
-2 12 6 49.62 48.43 1.73 o
-2 12 7 346.67 344.38 9.88 o
-2 12 8 21.40 22.11 0.94 o
-2 12 9 127.75 125.86 3.57 o
-2 12 11 2.99 3.34 0.25 o
-2 12 12 7.16 6.96 0.32 o
-2 12 13 160.89 156.56 3.97 o
-2 12 14 1.15 1.04 0.21 o
-2 12 16 3.08 2.75 0.27 o
-2 12 17 0.66 0.69 0.22 o
-2 12 18 2.50 2.41 0.26 o
-2 12 19 40.65 39.74 1.23 o
-2 12 20 7.82 7.62 0.37 o
-2 13 1 93.28 95.06 2.55 o
-2 13 2 35.64 36.55 1.17 o
-2 13 3 10.56 10.20 0.53 o
-2 13 4 586.71 576.17 16.52 o
-2 13 5 37.28 38.07 1.29 o
-2 13 6 418.51 414.78 12.37 o
-2 13 7 87.66 88.39 2.74 o
-2 13 8 345.69 348.39 10.58 o
-2 13 9 3.50 3.80 0.52 o
-2 13 10 127.73 127.75 5.13 o
-2 13 11 10.44 10.69 0.39 o
-2 13 12 7.62 7.64 0.35 o
-2 13 13 11.07 10.55 0.41 o
-2 13 15 15.21 14.74 0.54 o
-2 13 16 51.38 51.12 1.99 o
-2 13 17 25.43 24.52 0.82 o
-2 13 18 43.52 43.53 1.22 o
-2 13 20 11.59 12.05 0.45 o
-2 14 1 289.79 288.01 7.76 o
-2 14 2 38.76 38.76 1.27 o
-2 14 3 97.94 95.97 2.76 o
-2 14 5 120.51 117.06 3.81 o
-2 14 6 1.72 1.82 0.36 o
-2 14 7 499.20 488.58 15.70 o
-2 14 8 290.32 291.18 8.95 o
-2 14 9 27.18 26.94 1.58 o
-2 14 10 4.05 4.12 0.26 o
-2 14 11 80.03 79.83 2.39 o
-2 14 12 125.22 122.78 3.10 o
-2 14 13 156.29 157.50 4.23 o
-2 14 14 4.27 4.68 0.29 o
-2 14 15 28.05 29.15 0.87 o
-2 14 16 26.05 25.63 1.01 o
-2 14 17 19.96 21.11 0.69 o
-2 14 18 17.53 17.56 0.67 o
-2 14 19 6.66 6.86 0.38 o
-2 15 1 68.47 68.43 2.05 o
-2 15 2 17.43 17.27 0.89 o
-2 15 3 157.20 161.32 5.15 o
-2 15 4 342.89 339.91 10.14 o
-2 15 5 82.10 82.63 2.49 o
-2 15 6 11.33 11.96 0.72 o
-2 15 7 212.02 208.38 6.67 o
-2 15 8 6.38 6.96 0.64 o
-2 15 9 82.72 79.90 5.45 o
-2 15 10 75.08 74.92 2.37 o
-2 15 11 195.71 196.56 5.47 o
-2 15 12 124.13 124.49 3.16 o
-2 15 13 67.58 67.31 2.39 o
-2 15 14 57.25 59.56 2.00 o
-2 15 15 2.60 2.65 0.24 o
-2 15 16 62.66 62.91 1.82 o
-2 15 17 3.34 3.78 0.29 o
-2 15 19 1.00 1.05 0.21 o
-2 16 1 167.11 168.49 5.00 o
-2 16 2 752.42 741.99 25.45 o
-2 16 4 146.03 147.21 4.25 o
-2 16 5 38.18 39.69 1.53 o
-2 16 6 549.57 541.07 19.48 o
-2 16 7 82.42 86.45 2.87 o
-2 16 9 166.92 164.38 5.06 o
-2 16 10 28.82 29.19 0.82 o
-2 16 11 3.95 3.78 0.25 o
-2 16 12 3.78 4.22 0.27 o
-2 16 13 15.92 16.51 0.55 o
-2 16 14 143.15 143.77 3.82 o
-2 16 15 1.06 1.06 0.22 o
-2 16 17 9.90 9.62 0.49 o
-2 16 18 25.36 25.07 0.76 o
-2 16 19 1.64 1.79 0.22 o
-2 17 1 1.72 1.90 0.42 o
-2 17 2 42.58 44.04 1.51 o
-2 17 3 429.46 423.24 13.26 o
-2 17 4 11.92 12.98 0.74 o
-2 17 5 112.46 113.32 4.55 o
-2 17 6 1.69 1.34 0.35 o
-2 17 8 14.31 14.69 0.48 o
-2 17 9 36.20 36.71 1.09 o
-2 17 11 83.29 83.23 2.13 o
-2 17 12 39.73 39.66 1.09 o
-2 17 13 64.84 64.93 1.89 o
-2 17 14 22.19 22.36 0.72 o
-2 17 15 126.22 124.65 4.07 o
-2 17 17 34.54 34.52 1.02 o
-2 17 18 4.27 4.33 0.30 o
-2 17 19 2.55 2.40 0.27 o
-2 18 1 264.66 267.02 8.32 o
-2 18 2 144.49 146.53 5.09 o
-2 18 3 77.22 79.07 2.43 o
-2 18 4 18.93 19.82 0.91 o
-2 18 5 7.31 8.09 0.61 o
-2 18 6 104.00 101.70 6.53 o
-2 18 7 36.05 37.29 1.20 o
-2 18 8 250.49 253.13 8.56 o
-2 18 9 155.11 156.18 3.95 o
-2 18 10 8.42 9.02 0.37 o
-2 18 12 108.63 110.36 3.04 o
-2 18 13 68.97 69.65 1.85 o
-2 18 14 74.52 75.08 2.03 o
-2 18 15 6.95 6.86 0.38 o
-2 18 17 17.45 16.88 1.03 o
-2 18 18 7.08 7.18 0.62 o
-2 19 2 81.84 83.09 2.75 o
-2 19 4 508.34 518.87 26.82 o
-2 19 5 260.07 255.08 8.29 o
-2 19 6 14.00 13.81 0.49 o
-2 19 8 5.41 5.51 0.33 o
-2 19 9 162.43 164.14 5.30 o
-2 19 10 2.52 2.29 0.23 o
-2 19 11 65.95 66.34 2.09 o
-2 19 12 16.04 16.37 0.57 o
-2 19 13 10.18 11.06 0.47 o
-2 19 14 8.27 7.94 0.40 o
-2 19 15 39.03 40.42 1.17 o
-2 19 16 43.43 43.13 1.88 o
-2 19 17 0.98 0.83 0.22 o
-2 19 18 1.61 1.50 0.25 o
-2 20 2 7.45 7.36 0.61 o
-2 20 3 433.82 436.76 14.48 o
-2 20 4 23.98 24.93 0.90 o
-2 20 5 37.50 38.92 1.35 o
-2 20 6 2.36 2.61 0.24 o
-2 20 7 109.39 109.88 3.76 o
-2 20 8 49.67 49.67 1.76 o
-2 20 9 62.90 62.22 2.08 o
-2 20 11 22.17 22.51 0.76 o
-2 20 12 5.97 6.19 0.35 o
-2 20 13 10.48 10.22 0.59 o
-2 20 17 3.48 3.53 0.27 o
-2 21 1 50.22 53.61 2.86 o
-2 21 2 51.45 54.11 2.65 o
-2 21 3 44.91 47.19 2.03 o
-2 21 4 136.49 140.05 5.77 o
-2 21 5 7.29 7.23 0.37 o
-2 21 6 56.48 56.61 1.89 o
-2 21 7 6.06 6.02 0.38 o
-2 21 8 7.03 7.07 0.41 o
-2 21 9 3.82 3.92 0.32 o
-2 21 10 213.77 214.29 7.45 o
-2 21 11 9.50 9.20 0.41 o
-2 21 15 33.82 34.04 1.14 o
-2 21 16 21.20 22.05 0.77 o
-2 21 17 31.32 32.43 0.96 o
-2 22 2 3.17 2.87 0.53 o
-2 22 3 3.57 3.86 0.52 o
-2 22 4 9.56 10.10 0.53 o
-2 22 5 2.50 2.44 0.24 o
-2 22 6 7.01 7.09 0.41 o
-2 22 7 160.60 164.40 7.78 o
-2 22 8 35.87 35.31 1.31 o
-2 22 9 19.17 20.24 0.96 o
-2 22 10 9.73 9.66 0.48 o
-2 22 11 14.49 15.24 0.92 o
-2 22 12 2.38 2.47 0.25 o
-2 22 13 83.69 85.01 2.33 o
-2 22 14 15.75 16.31 0.59 o
-2 22 15 33.47 32.71 1.45 o
-2 23 3 35.12 35.11 2.69 o
-2 23 4 5.00 5.38 0.36 o
-2 23 5 1.49 1.47 0.22 o
-2 23 6 73.37 76.14 3.28 o
-2 23 7 63.76 64.23 3.05 o
-2 23 8 36.45 38.18 1.70 o
-2 23 9 4.20 4.61 0.35 o
-2 23 10 29.12 28.56 1.11 o
-2 23 11 20.32 19.63 0.94 o
-2 23 12 54.63 53.10 2.86 o
-2 23 14 52.11 53.75 2.36 o
-2 23 16 5.98 6.58 0.65 o
-2 24 3 58.33 57.18 4.30 o
-2 24 4 50.60 47.95 1.89 o
-2 24 5 0.61 0.82 0.23 o
-2 24 6 86.23 86.47 3.62 o
-2 24 7 69.77 71.12 3.38 o
-2 24 8 21.06 21.47 1.31 o
-2 24 10 4.27 4.12 0.35 o
-2 24 11 2.27 2.09 0.29 o
-2 24 12 5.18 5.52 0.51 o
-2 24 14 4.60 4.96 0.44 o
-2 25 3 56.99 56.98 3.04 o
-2 25 4 19.46 19.75 1.60 o
-2 25 5 146.09 146.01 7.22 o
-2 25 8 1.82 1.87 0.28 o
-2 25 9 91.79 94.48 5.88 o
-2 25 10 1.60 1.18 0.26 o
-2 25 11 25.64 26.04 1.94 o
-2 25 13 2.39 2.33 0.37 o
-2 26 2 59.73 58.77 5.66 o
-2 26 3 6.98 7.50 0.79 o
-2 26 4 36.59 36.89 2.18 o
-2 26 5 31.17 32.06 2.68 o
-2 26 6 3.90 3.98 0.51 o
-2 26 7 28.73 29.03 1.42 o
-2 26 8 83.07 83.58 5.62 o
-2 26 9 10.78 11.39 0.59 o
-2 26 10 6.53 6.58 0.47 o
-2 26 11 21.56 21.56 1.72 o
-2 26 14 11.04 11.06 1.26 o
-2 27 2 2.13 2.23 0.37 o
-2 27 3 52.54 51.79 7.58 o
-2 27 4 38.46 39.97 3.60 o
-2 27 5 35.33 37.43 2.24 o
-2 27 6 48.33 49.94 2.38 o
-2 27 7 21.72 21.39 0.81 o
-2 27 8 24.71 24.89 0.99 o
-2 27 10 7.58 7.32 0.70 o
-2 27 11 29.43 28.70 1.36 o
-2 28 1 57.28 54.40 5.04 o
-2 28 2 26.64 27.03 2.82 o
-2 28 3 48.81 50.23 5.62 o
-2 28 4 2.26 1.98 0.33 o
-2 28 5 14.94 16.06 0.93 o
-2 28 6 11.84 12.17 0.65 o
-2 28 7 17.14 17.01 1.01 o
-2 28 8 1.88 1.97 0.64 o
-2 29 1 8.52 8.91 1.61 o
-2 29 2 80.00 74.33 3.93 o
-2 29 5 15.90 14.78 1.62 o
-2 29 7 6.26 5.92 0.49 o
-2 29 8 15.66 15.05 0.70 o
-2 30 1 1.99 2.45 0.37 o
-2 30 5 27.25 26.71 1.47 o
-1 0 2 4254.68 4309.32 104.58 o
-1 0 4 216.60 223.45 8.27 o
-1 0 6 823.94 842.34 24.62 o
-1 0 8 3.27 2.92 0.39 o
-1 0 10 445.91 460.80 17.07 o
-1 0 12 261.48 258.08 13.78 o
-1 0 14 168.91 165.82 8.50 o
-1 0 16 41.13 41.40 2.07 o
-1 0 20 25.89 27.86 1.69 o
-1 0 22 1.43 1.78 0.36 o
-1 1 1 1801.75 1832.40 43.91 o
-1 1 2 38.38 37.96 0.92 o
-1 1 3 1137.64 1183.78 28.41 o
-1 1 4 1422.38 1468.16 36.15 o
-1 1 5 565.61 592.98 14.57 o
-1 1 6 0.41 0.77 0.20 o
-1 1 7 583.78 609.13 16.33 o
-1 1 8 9.36 8.97 0.43 o
-1 1 9 134.85 137.95 3.60 o
-1 1 10 58.18 58.09 1.99 o
-1 1 11 141.36 141.00 5.10 o
-1 1 12 59.67 57.43 2.48 o
-1 1 13 197.21 197.21 11.79 o
-1 1 14 72.94 72.31 2.39 o
-1 1 16 26.17 26.08 0.82 o
-1 1 17 5.35 5.29 0.32 o
-1 1 18 1.91 2.06 0.24 o
-1 1 19 69.00 72.18 2.00 o
-1 1 20 61.77 62.53 2.12 o
-1 1 21 1.69 1.47 0.26 o
-1 1 22 4.29 3.81 0.29 o
-1 2 1 23.02 22.31 0.82 o
-1 2 2 57.21 60.24 1.52 o
-1 2 3 920.89 958.86 27.23 o
-1 2 4 1441.77 1522.43 38.99 o
-1 2 5 6.05 6.04 0.31 o
-1 2 6 30.78 30.26 0.93 o
-1 2 7 2.45 2.66 0.36 o
-1 2 8 466.81 489.16 12.69 o
-1 2 9 1049.94 1067.29 31.43 o
-1 2 10 478.32 481.69 14.05 o
-1 2 11 1.71 1.70 0.36 o
-1 2 12 29.16 28.84 1.26 o
-1 2 13 11.26 12.06 0.72 o
-1 2 14 111.23 111.18 3.48 o
-1 2 15 29.53 29.73 0.97 o
-1 2 16 21.08 21.22 0.72 o
-1 2 17 110.03 113.87 3.63 o
-1 2 18 20.11 20.51 0.66 o
-1 2 19 4.25 3.82 0.30 o
-1 2 20 3.29 3.18 0.28 o
-1 2 21 31.20 31.15 1.06 o
-1 2 22 35.13 36.81 1.11 o
-1 3 1 2.37 2.53 0.14 o
-1 3 2 950.84 931.91 27.23 o
-1 3 3 38.29 41.03 1.03 o
-1 3 4 6.06 6.62 0.30 o
-1 3 5 99.37 102.02 3.03 o
-1 3 6 129.33 134.42 3.52 o
-1 3 7 658.08 676.32 18.10 o
-1 3 8 1270.50 1272.94 36.08 o
-1 3 9 296.71 293.69 7.96 o
-1 3 10 33.16 32.94 1.12 o
-1 3 11 54.38 54.57 2.14 o
-1 3 12 378.41 367.73 11.18 o
-1 3 13 19.19 18.99 1.01 o
-1 3 14 14.75 14.66 0.51 o
-1 3 15 65.51 66.64 2.39 o
-1 3 16 17.90 17.64 0.57 o
-1 3 17 103.41 102.79 3.10 o
-1 3 18 5.77 5.69 0.45 o
-1 3 19 2.72 2.77 0.27 o
-1 3 20 3.49 3.80 0.29 o
-1 3 21 10.12 10.07 0.43 o
-1 3 22 2.34 2.29 0.24 o
-1 4 1 157.89 155.95 4.26 o
-1 4 2 559.50 558.41 14.15 o
-1 4 3 1766.34 1787.32 45.35 o
-1 4 5 2338.48 2340.11 75.32 o
-1 4 6 12.98 14.06 0.64 o
-1 4 7 37.64 38.29 1.17 o
-1 4 8 0.64 1.00 0.22 o
-1 4 9 94.48 97.85 2.76 o
-1 4 10 27.59 27.37 1.04 o
-1 4 11 359.44 353.41 10.87 o
-1 4 12 31.74 32.31 1.39 o
-1 4 13 5.01 5.50 0.71 o
-1 4 14 21.32 21.16 0.83 o
-1 4 15 209.07 207.43 5.43 o
-1 4 16 116.61 115.49 3.40 o
-1 4 18 31.94 31.65 1.14 o
-1 4 19 1.14 0.87 0.23 o
-1 4 20 1.77 1.47 0.24 o
-1 4 21 6.02 6.30 0.35 o
-1 4 22 3.37 3.52 0.25 o
-1 5 1 1932.81 1917.54 54.38 o
-1 5 2 1558.06 1550.79 40.10 o
-1 5 3 287.10 284.93 6.74 o
-1 5 4 101.51 101.28 2.49 o
-1 5 5 55.66 56.19 1.84 o
-1 5 6 1293.19 1326.03 41.87 o
-1 5 7 738.93 745.10 20.46 o
-1 5 8 7.24 7.53 0.46 o
-1 5 9 474.34 477.09 12.48 o
-1 5 10 48.20 48.33 1.78 o
-1 5 11 44.24 44.69 1.60 o
-1 5 12 211.82 208.40 9.69 o
-1 5 14 127.78 129.27 3.94 o
-1 5 15 30.68 31.01 0.87 o
-1 5 17 7.11 7.28 0.36 o
-1 5 18 148.35 150.44 4.25 o
-1 5 19 39.22 39.55 1.11 o
-1 5 21 1.11 1.04 0.22 o
-1 5 22 9.21 9.14 0.51 o
-1 6 1 23.04 22.68 0.64 o
-1 6 2 2076.10 2127.40 62.21 o
-1 6 3 425.39 434.95 10.58 o
-1 6 4 102.23 101.63 2.86 o
-1 6 5 334.34 353.63 9.32 o
-1 6 6 236.51 235.97 6.41 o
-1 6 7 466.98 469.94 12.05 o
-1 6 9 298.75 300.85 7.69 o
-1 6 10 211.92 209.54 6.16 o
-1 6 11 61.49 62.01 2.04 o
-1 6 12 41.68 41.14 1.47 o
-1 6 13 32.44 33.12 1.70 o
-1 6 14 67.63 67.29 1.88 o
-1 6 15 45.65 45.11 1.27 o
-1 6 16 137.23 138.21 3.82 o
-1 6 17 169.86 170.41 5.34 o
-1 6 18 1.23 0.95 0.21 o
-1 6 19 26.14 25.67 0.78 o
-1 6 20 10.86 11.25 0.45 o
-1 6 21 26.57 27.16 0.88 o
-1 6 22 3.39 3.48 0.25 o
-1 7 1 3933.83 3853.40 112.28 o
-1 7 2 8.18 7.57 0.35 o
-1 7 3 42.42 43.08 1.35 o
-1 7 4 47.59 49.70 1.55 o
-1 7 5 366.28 374.72 11.69 o
-1 7 6 782.31 774.19 21.19 o
-1 7 7 138.86 139.05 3.96 o
-1 7 8 19.42 19.99 0.70 o
-1 7 9 130.43 131.56 3.41 o
-1 7 10 139.99 140.00 3.95 o
-1 7 11 1.95 2.31 0.35 o
-1 7 12 130.17 135.30 6.03 o
-1 7 13 216.43 225.70 9.53 o
-1 7 14 15.01 15.45 0.51 o
-1 7 15 49.15 49.12 1.36 o
-1 7 16 23.39 24.04 0.76 o
-1 7 17 135.60 136.21 3.62 o
-1 7 20 36.45 36.34 1.14 o
-1 8 1 184.54 177.45 4.50 o
-1 8 2 211.57 222.60 5.69 o
-1 8 3 92.55 93.90 2.72 o
-1 8 4 993.43 1013.16 28.47 o
-1 8 5 158.56 155.69 4.43 o
-1 8 6 1109.30 1100.61 30.96 o
-1 8 7 354.52 364.26 9.50 o
-1 8 8 511.96 510.62 13.72 o
-1 8 9 71.99 73.94 2.28 o
-1 8 10 222.40 226.06 6.00 o
-1 8 11 86.11 92.02 2.58 o
-1 8 12 20.16 20.34 1.04 o
-1 8 13 58.98 60.13 1.63 o
-1 8 14 10.47 10.26 0.39 o
-1 8 15 6.72 6.72 0.33 o
-1 8 16 85.55 85.71 2.20 o
-1 8 17 39.92 40.51 1.11 o
-1 8 18 13.02 12.65 0.49 o
-1 8 19 11.22 11.41 0.46 o
-1 9 1 861.70 900.43 23.92 o
-1 9 2 24.79 24.72 0.76 o
-1 9 3 284.47 291.64 8.56 o
-1 9 5 198.30 199.17 4.91 o
-1 9 6 361.41 358.75 8.94 o
-1 9 7 826.01 842.75 23.62 o
-1 9 8 106.13 105.84 2.78 o
-1 9 9 87.78 88.65 2.44 o
-1 9 11 399.49 410.09 12.44 o
-1 9 12 138.41 140.54 4.47 o
-1 9 13 58.10 57.59 1.67 o
-1 9 14 0.93 0.89 0.18 o
-1 9 16 20.74 20.43 0.71 o
-1 9 18 3.33 3.67 0.27 o
-1 9 19 51.07 51.69 1.56 o
-1 9 20 22.10 21.87 0.76 o
-1 9 21 3.77 3.56 0.24 o
-1 10 1 5.51 6.03 0.38 o
-1 10 2 189.87 192.40 5.64 o
-1 10 3 102.93 102.71 2.76 o
-1 10 4 626.10 642.06 17.41 o
-1 10 5 112.52 115.86 3.05 o
-1 10 6 90.20 88.10 2.26 o
-1 10 7 24.74 25.27 0.84 o
-1 10 8 155.15 154.47 4.02 o
-1 10 9 134.60 136.72 3.68 o
-1 10 10 285.68 288.82 7.91 o
-1 10 11 107.73 112.30 3.32 o
-1 10 13 71.39 71.66 1.99 o
-1 10 14 105.80 104.36 3.24 o
-1 10 15 12.67 12.62 0.46 o
-1 10 16 32.22 33.25 1.03 o
-1 10 17 22.59 22.57 0.70 o
-1 10 18 67.44 68.41 2.40 o
-1 10 19 2.71 2.84 0.25 o
-1 10 20 63.24 63.78 2.35 o
-1 10 21 1.36 1.17 0.19 o
-1 11 1 22.43 23.61 0.85 o
-1 11 2 165.34 169.79 5.40 o
-1 11 3 153.84 151.98 4.56 o
-1 11 4 14.55 15.15 0.59 o
-1 11 5 56.24 57.32 1.52 o
-1 11 6 49.62 51.95 1.42 o
-1 11 7 65.20 66.04 1.82 o
-1 11 8 431.87 426.78 11.67 o
-1 11 9 3.69 3.60 0.38 o
-1 11 11 34.76 36.07 1.37 o
-1 11 12 78.04 76.47 2.10 o
-1 11 13 251.79 256.63 6.52 o
-1 11 14 56.09 55.93 1.51 o
-1 11 15 7.56 7.69 0.36 o
-1 11 17 18.01 18.73 0.62 o
-1 11 18 40.58 41.26 1.25 o
-1 11 19 24.01 25.02 0.86 o
-1 12 1 166.53 168.58 4.88 o
-1 12 2 19.46 20.71 0.76 o
-1 12 3 865.45 893.37 25.06 o
-1 12 4 109.63 108.12 3.29 o
-1 12 5 147.95 153.14 3.88 o
-1 12 6 43.69 44.31 1.32 o
-1 12 7 83.32 82.51 2.31 o
-1 12 8 29.39 29.50 1.04 o
-1 12 9 224.09 228.87 6.52 o
-1 12 10 11.95 12.11 0.69 o
-1 12 11 148.52 143.68 4.35 o
-1 12 13 4.50 4.65 0.27 o
-1 12 14 2.04 1.93 0.21 o
-1 12 15 109.06 109.19 2.90 o
-1 12 16 2.60 2.94 0.24 o
-1 12 18 1.35 1.55 0.22 o
-1 12 19 4.21 4.41 0.28 o
-1 12 20 2.61 2.61 0.23 o
-1 12 21 26.76 26.83 1.68 o
-1 13 1 149.22 155.56 3.97 o
-1 13 2 1025.31 1041.87 30.80 o
-1 13 3 105.01 105.57 2.78 o
-1 13 4 11.42 11.49 0.54 o
-1 13 5 9.67 10.04 0.49 o
-1 13 6 575.53 570.92 16.36 o
-1 13 7 27.06 27.47 0.98 o
-1 13 8 388.24 396.31 11.44 o
-1 13 9 40.74 41.46 1.41 o
-1 13 10 206.53 208.46 6.32 o
-1 13 11 3.08 3.02 0.33 o
-1 13 12 66.03 66.03 1.68 o
-1 13 13 13.16 13.31 0.48 o
-1 13 14 18.29 18.16 0.58 o
-1 13 15 5.09 5.21 0.33 o
-1 13 16 1.24 1.35 0.21 o
-1 13 17 4.22 4.07 0.28 o
-1 13 18 29.80 30.51 1.04 o
-1 13 19 18.02 17.27 0.63 o
-1 13 20 24.93 26.07 0.79 o
-1 14 1 5.95 6.50 0.41 o
-1 14 2 12.78 13.86 0.59 o
-1 14 3 253.84 252.82 6.86 o
-1 14 4 49.32 51.17 1.48 o
-1 14 5 123.32 122.67 3.54 o
-1 14 6 1.13 1.07 0.31 o
-1 14 7 22.29 21.88 0.98 o
-1 14 9 567.43 573.90 20.92 o
-1 14 10 231.02 242.47 8.21 o
-1 14 11 23.94 24.46 0.68 o
-1 14 12 1.00 1.08 0.16 o
-1 14 13 52.54 52.97 1.41 o
-1 14 14 59.73 60.44 1.60 o
-1 14 15 58.38 59.93 2.01 o
-1 14 17 34.62 35.88 1.11 o
-1 14 18 17.41 16.97 0.64 o
-1 14 19 5.05 4.99 0.36 o
-1 14 20 9.04 8.94 0.43 o
-1 15 1 419.24 425.24 13.07 o
-1 15 2 16.63 15.27 0.66 o
-1 15 3 153.74 156.19 4.95 o
-1 15 4 11.05 11.19 0.64 o
-1 15 5 111.77 112.38 3.11 o
-1 15 6 390.31 392.28 11.24 o
-1 15 7 91.50 92.49 2.70 o
-1 15 8 23.55 24.13 1.04 o
-1 15 9 186.88 191.75 6.28 o
-1 15 10 2.71 3.02 0.27 o
-1 15 11 45.14 46.70 1.23 o
-1 15 12 56.80 57.81 1.50 o
-1 15 13 131.46 132.30 3.41 o
-1 15 14 130.08 133.58 3.47 o
-1 15 15 35.13 35.02 1.00 o
-1 15 16 38.46 39.13 1.16 o
-1 15 17 3.31 3.46 0.30 o
-1 15 18 35.05 35.75 1.10 o
-1 15 19 2.20 1.88 0.27 o
-1 16 1 14.52 13.58 0.73 o
-1 16 2 15.90 16.78 0.79 o
-1 16 3 169.47 177.23 5.46 o
-1 16 4 897.20 886.27 30.22 o
-1 16 5 2.13 2.14 0.40 o
-1 16 6 156.76 158.85 4.61 o
-1 16 7 30.86 33.38 1.90 o
-1 16 8 377.15 381.14 21.11 o
-1 16 9 89.63 90.29 2.81 o
-1 16 11 146.16 149.43 4.08 o
-1 16 12 51.49 51.25 1.35 o
-1 16 14 2.20 2.07 0.24 o
-1 16 15 19.16 19.38 0.68 o
-1 16 16 91.85 90.22 3.40 o
-1 16 19 8.29 8.41 0.43 o
-1 17 1 766.11 782.06 35.56 o
-1 17 2 6.66 7.47 0.73 o
-1 17 3 1.75 1.99 0.50 o
-1 17 4 49.08 49.83 2.33 o
-1 17 5 214.07 227.74 11.00 o
-1 17 7 154.68 156.72 12.38 o
-1 17 8 14.54 15.77 0.92 o
-1 17 9 7.54 7.76 0.35 o
-1 17 10 1.58 1.79 0.19 o
-1 17 11 41.94 43.80 1.18 o
-1 17 13 48.86 50.63 1.41 o
-1 17 14 47.49 48.89 1.38 o
-1 17 15 56.74 58.08 1.69 o
-1 17 16 21.24 21.28 0.72 o
-1 17 17 61.80 61.27 1.96 o
-1 17 19 24.14 23.89 0.92 o
-1 18 2 214.26 221.48 6.92 o
-1 18 3 227.65 244.38 8.08 o
-1 18 4 214.41 216.50 9.03 o
-1 18 8 76.83 78.27 3.08 o
-1 18 9 19.03 20.38 0.82 o
-1 18 10 185.15 189.42 5.05 o
-1 18 11 123.07 124.55 3.55 o
-1 18 14 58.18 58.99 1.60 o
-1 18 15 44.18 44.17 1.34 o
-1 18 16 67.55 67.89 1.92 o
-1 18 17 6.92 6.69 0.39 o
-1 18 19 12.30 12.29 0.65 o
-1 19 2 176.55 187.45 7.33 o
-1 19 3 2.45 2.83 0.60 o
-1 19 6 416.02 436.47 23.91 o
-1 19 7 235.31 241.58 9.54 o
-1 19 8 15.75 16.07 0.71 o
-1 19 10 0.72 0.83 0.22 o
-1 19 11 88.03 89.63 2.72 o
-1 19 13 60.30 61.72 1.88 o
-1 19 14 14.16 14.39 0.61 o
-1 19 15 3.93 3.49 0.29 o
-1 19 16 9.32 8.73 0.43 o
-1 19 17 17.04 17.58 0.76 o
-1 19 18 31.20 31.19 1.08 o
-1 20 5 566.30 587.30 31.86 o
-1 20 6 49.77 50.93 2.42 o
-1 20 7 23.89 24.46 0.83 o
-1 20 9 80.59 78.29 4.27 o
-1 20 10 66.90 67.23 4.83 o
-1 20 11 60.72 61.00 2.03 o
-1 20 12 2.02 2.08 0.27 o
-1 20 13 16.78 16.38 0.58 o
-1 20 14 2.09 2.20 0.26 o
-1 20 15 2.85 2.71 0.27 o
-1 20 18 1.62 1.65 0.25 o
-1 21 3 59.67 64.41 3.34 o
-1 21 4 29.85 30.92 1.83 o
-1 21 5 44.63 45.78 2.23 o
-1 21 6 128.86 133.73 6.81 o
-1 21 7 10.60 10.39 0.56 o
-1 21 8 63.03 62.73 4.01 o
-1 21 9 4.68 4.76 0.42 o
-1 21 11 5.98 5.82 0.44 o
-1 21 12 142.36 142.70 5.14 o
-1 21 13 4.40 4.32 0.39 o
-1 21 14 1.53 1.28 0.27 o
-1 21 17 11.54 10.90 0.85 o
-1 22 4 2.80 2.94 0.39 o
-1 22 5 3.51 4.04 0.37 o
-1 22 6 7.45 7.14 0.44 o
-1 22 7 1.71 1.62 0.23 o
-1 22 8 2.71 2.87 0.33 o
-1 22 9 144.02 145.18 6.63 o
-1 22 10 27.90 27.60 2.06 o
-1 22 11 25.94 25.28 1.76 o
-1 22 12 5.19 4.96 0.51 o
-1 22 13 4.26 4.31 0.44 o
-1 22 14 4.62 4.70 0.39 o
-1 22 15 54.99 54.23 3.17 o
-1 22 16 16.38 16.39 0.71 o
-1 22 17 30.35 31.24 1.60 o
-1 23 5 15.49 14.76 1.17 o
-1 23 6 5.28 5.10 0.35 o
-1 23 7 2.86 2.69 0.28 o
-1 23 8 80.65 82.04 4.56 o
-1 23 9 68.01 67.65 3.85 o
-1 23 10 17.14 17.12 1.03 o
-1 23 11 2.05 2.05 0.32 o
-1 23 12 27.57 27.91 1.72 o
-1 23 13 16.76 16.13 2.11 o
-1 23 14 39.55 39.53 2.87 o
-1 23 16 27.30 27.35 1.85 o
-1 24 5 74.43 73.34 2.17 o
-1 24 6 63.04 65.39 3.51 o
-1 24 7 4.04 4.30 0.34 o
-1 24 8 56.78 55.52 1.78 o
-1 24 9 39.50 38.47 1.57 o
-1 24 10 18.33 19.45 1.41 o
-1 24 12 7.48 5.92 1.01 o
-1 24 14 4.50 4.62 0.52 o
-1 25 5 43.50 42.61 3.45 o
-1 25 6 8.62 8.72 0.48 o
-1 25 7 140.65 138.41 6.85 o
-1 25 8 2.27 2.56 0.33 o
-1 25 9 1.69 1.73 0.30 o
-1 25 12 1.20 1.04 0.34 o
-1 25 13 14.46 14.71 0.97 o
-1 25 14 1.66 1.47 0.33 o
-1 26 4 65.76 63.10 3.37 o
-1 26 5 4.52 4.22 0.86 o
-1 26 6 17.26 17.45 1.03 o
-1 26 7 31.94 30.52 1.67 o
-1 26 8 2.84 2.86 0.39 o
-1 26 9 31.05 29.40 1.83 o
-1 26 10 74.66 72.41 7.64 o
-1 26 11 4.31 4.57 0.92 o
-1 26 12 8.84 9.04 0.59 o
-1 26 13 11.74 10.82 1.37 o
-1 27 4 5.86 6.12 0.51 o
-1 27 5 68.43 67.08 5.70 o
-1 27 6 24.98 24.09 0.96 o
-1 27 7 25.83 26.32 1.29 o
-1 27 8 59.77 58.39 2.62 o
-1 28 5 59.70 58.44 2.73 o
-1 28 6 12.99 13.08 0.68 o
-1 28 7 11.63 10.77 0.61 o
-1 31 4 15.81 15.24 0.71 o
-1 32 2 21.01 20.81 1.09 o
-1 32 3 35.20 34.94 1.19 o
-1 32 4 3.41 2.73 0.35 o
-1 33 1 26.82 25.84 1.07 o
-1 33 2 14.98 15.10 0.68 o
-1 33 3 7.33 7.03 0.48 o
-1 34 1 5.06 5.20 0.41 o
0 0 2 1518.57 1603.78 66.61 o
0 0 4 1775.13 1867.41 53.47 o
0 0 6 149.35 155.60 3.94 o
0 0 8 704.96 714.08 20.42 o
0 0 10 3.23 4.26 0.56 o
0 0 12 367.82 370.17 21.10 o
0 0 16 88.91 91.41 2.92 o
0 0 18 11.57 11.95 0.59 o
0 0 20 5.60 6.45 0.61 o
0 1 1 937.34 931.77 25.81 o
0 1 2 406.46 414.10 10.18 o
0 1 3 2134.96 2205.02 54.14 o
0 1 4 79.15 80.30 1.99 o
0 1 5 793.06 812.30 19.45 o
0 1 6 374.58 391.72 9.31 o
0 1 7 314.52 325.28 8.79 o
0 1 8 20.49 21.07 0.67 o
0 1 9 358.17 362.44 11.11 o
0 1 10 18.29 17.70 0.69 o
0 1 11 126.32 126.91 3.47 o
0 1 12 16.61 16.84 0.85 o
0 1 13 43.68 46.54 1.61 o
0 1 14 39.63 41.65 2.30 o
0 1 15 133.28 134.68 3.33 o
0 1 16 46.87 47.67 1.40 o
0 1 17 3.37 3.75 0.26 o
0 1 18 13.74 14.47 0.51 o
0 1 19 3.37 3.30 0.30 o
0 1 21 28.94 29.36 1.18 o
0 1 22 33.24 33.16 0.99 o
0 2 0 2934.05 2792.70 86.64 o
0 2 1 52.72 54.21 1.36 o
0 2 2 1188.34 1230.92 27.65 o
0 2 3 20.15 20.16 0.54 o
0 2 4 0.32 0.46 0.12 o
0 2 5 849.14 862.30 20.79 o
0 2 6 1155.58 1203.15 31.94 o
0 2 8 3.73 3.59 0.27 o
0 2 9 23.12 23.14 0.76 o
0 2 10 300.51 304.63 9.13 o
0 2 11 678.59 660.50 20.80 o
0 2 12 305.54 311.99 11.03 o
0 2 14 12.64 12.06 0.58 o
0 2 15 1.30 1.28 0.17 o
0 2 16 30.61 30.59 0.86 o
0 2 17 13.82 13.83 0.48 o
0 2 18 14.01 13.87 0.50 o
0 2 19 60.53 61.02 2.73 o
0 2 20 13.08 12.52 0.70 o
0 3 1 116.64 121.94 3.85 o
0 3 2 3762.01 3805.59 95.79 o
0 3 4 801.18 817.58 19.65 o
0 3 5 7.78 7.65 0.34 o
0 3 6 11.61 11.58 0.49 o
0 3 7 60.74 60.51 1.65 o
0 3 8 55.15 56.20 1.54 o
0 3 9 485.37 507.10 13.21 o
0 3 10 1057.25 1056.06 31.91 o
0 3 11 123.96 122.05 3.49 o
0 3 12 21.33 21.02 0.95 o
0 3 13 29.42 30.59 2.38 o
0 3 14 186.28 184.91 6.13 o
0 3 15 12.44 13.67 0.45 o
0 3 16 5.57 5.98 0.30 o
0 3 17 32.79 34.64 1.01 o
0 3 18 0.73 0.83 0.22 o
0 3 19 30.33 31.36 1.13 o
0 3 20 2.84 2.79 0.31 o
0 3 21 3.05 3.15 0.31 o
0 3 22 4.73 4.94 0.39 o
0 4 0 62.92 63.55 2.07 o
0 4 1 3062.35 3035.24 84.32 o
0 4 2 741.07 719.19 16.59 o
0 4 3 626.76 622.02 18.44 o
0 4 4 498.89 493.66 11.77 o
0 4 5 1259.15 1276.05 33.74 o
0 4 7 1707.68 1725.33 54.60 o
0 4 8 23.42 23.92 0.74 o
0 4 9 60.79 62.21 1.76 o
0 4 10 5.75 5.95 0.44 o
0 4 11 5.19 5.38 0.50 o
0 4 12 20.61 20.93 1.25 o
0 4 13 292.13 293.75 18.90 o
0 4 14 36.00 35.74 1.41 o
0 4 15 18.03 18.70 0.58 o
0 4 16 8.63 8.97 0.38 o
0 4 17 139.27 141.25 3.90 o
0 4 18 75.29 76.93 2.40 o
0 4 20 22.63 23.26 0.81 o
0 4 22 0.79 0.90 0.24 o
0 5 1 2.40 2.39 0.15 o
0 5 2 2662.80 2565.28 80.93 o
0 5 3 1158.55 1185.83 30.23 o
0 5 4 1422.22 1459.93 38.01 o
0 5 5 200.31 203.41 6.09 o
0 5 6 8.63 8.62 0.53 o
0 5 7 86.76 85.59 2.26 o
0 5 8 737.89 755.80 19.72 o
0 5 9 420.41 432.68 11.81 o
0 5 10 39.21 39.22 1.18 o
0 5 11 212.24 215.40 8.12 o
0 5 12 48.72 49.33 2.53 o
0 5 13 20.67 21.95 1.76 o
0 5 14 110.73 110.14 3.06 o
0 5 15 0.67 0.88 0.18 o
0 5 16 86.27 88.69 2.25 o
0 5 17 10.98 11.09 0.44 o
0 5 18 1.48 1.58 0.31 o
0 5 20 75.70 75.90 3.12 o
0 5 21 21.68 20.48 0.71 o
0 6 0 224.97 234.53 9.70 o
0 6 1 146.65 151.17 3.75 o
0 6 2 463.81 482.31 14.57 o
0 6 3 90.00 89.34 2.47 o
0 6 4 1251.48 1284.53 33.94 o
0 6 5 209.59 210.20 5.48 o
0 6 6 59.83 61.14 1.88 o
0 6 7 301.06 316.89 8.38 o
0 6 8 33.94 35.83 1.23 o
0 6 9 121.61 121.02 3.23 o
0 6 11 264.50 270.48 8.33 o
0 6 12 155.78 158.04 6.27 o
0 6 13 50.81 50.09 2.37 o
0 6 14 29.76 29.83 0.85 o
0 6 15 15.14 16.11 0.56 o
0 6 16 19.29 19.59 0.61 o
0 6 17 11.15 11.66 0.47 o
0 6 18 87.74 91.35 2.63 o
0 6 19 104.90 109.08 3.39 o
0 6 21 8.35 8.21 0.44 o
0 6 22 3.46 3.42 0.39 o
0 7 1 46.45 48.28 1.32 o
0 7 2 196.55 195.46 4.61 o
0 7 3 3807.61 3819.78 106.60 o
0 7 4 48.84 50.84 1.37 o
0 7 5 91.61 93.04 2.40 o
0 7 6 27.38 28.69 1.05 o
0 7 7 274.14 283.95 7.14 o
0 7 8 693.98 697.01 18.92 o
0 7 9 78.44 79.37 2.11 o
0 7 10 2.05 2.15 0.32 o
0 7 11 95.44 97.00 2.82 o
0 7 12 32.15 32.83 1.47 o
0 7 13 5.96 6.09 0.66 o
0 7 14 72.58 73.54 2.15 o
0 7 15 153.31 153.43 4.55 o
0 7 16 18.00 18.93 0.60 o
0 7 17 46.76 48.65 1.41 o
0 7 18 12.26 11.84 0.49 o
0 7 19 89.34 89.58 3.33 o
0 7 22 20.38 19.99 0.71 o
0 8 0 2657.84 2711.97 87.37 o
0 8 1 338.11 344.47 9.86 o
0 8 2 527.99 531.98 13.01 o
0 8 3 161.00 159.18 3.82 o
0 8 4 68.33 70.91 1.87 o
0 8 5 28.12 28.12 0.96 o
0 8 6 847.65 867.90 24.07 o
0 8 7 65.03 64.50 1.70 o
0 8 8 818.84 826.74 23.40 o
0 8 9 250.59 252.34 6.45 o
0 8 10 238.86 240.60 6.41 o
0 8 11 62.14 63.45 2.32 o
0 8 12 149.06 155.12 4.70 o
0 8 13 37.80 38.49 2.28 o
0 8 14 20.97 21.86 0.64 o
0 8 15 28.55 29.15 0.87 o
0 8 16 3.35 2.90 0.24 o
0 8 17 1.94 1.74 0.23 o
0 8 18 34.00 34.57 1.04 o
0 8 19 16.44 16.56 0.59 o
0 8 21 6.33 5.88 0.49 o
0 9 1 127.64 134.68 3.35 o
0 9 2 226.02 220.92 5.96 o
0 9 3 805.07 821.16 24.18 o
0 9 4 12.69 12.44 0.55 o
0 9 5 266.13 271.65 6.90 o
0 9 6 25.87 31.64 1.09 o
0 9 7 51.20 51.63 1.42 o
0 9 8 421.05 424.05 11.12 o
0 9 9 697.23 700.54 20.23 o
0 9 10 78.31 80.62 2.28 o
0 9 11 95.03 95.47 2.77 o
0 9 12 0.72 1.85 0.38 o
0 9 13 251.54 254.69 7.61 o
0 9 14 74.72 75.11 2.00 o
0 9 15 20.17 20.35 0.63 o
0 9 17 0.99 1.18 0.22 o
0 9 18 6.98 7.03 0.41 o
0 9 19 0.87 0.97 0.23 o
0 9 20 3.70 3.71 0.37 o
0 9 21 28.46 29.13 1.33 o
0 10 0 230.54 247.23 6.75 o
0 10 1 21.43 22.52 0.70 o
0 10 2 34.97 36.42 1.20 o
0 10 3 9.48 9.22 0.48 o
0 10 4 116.59 113.53 2.92 o
0 10 5 132.74 128.36 3.26 o
0 10 6 655.49 650.58 17.00 o
0 10 7 79.28 81.10 2.15 o
0 10 8 36.20 35.75 1.11 o
0 10 9 6.39 6.74 0.47 o
0 10 10 71.37 72.58 2.13 o
0 10 11 83.25 84.90 2.58 o
0 10 12 179.35 179.80 6.26 o
0 10 13 67.66 67.56 1.82 o
0 10 14 11.04 11.85 0.45 o
0 10 15 22.92 22.43 0.70 o
0 10 16 50.89 51.64 1.57 o
0 10 17 5.76 5.39 0.36 o
0 10 18 25.54 25.93 0.83 o
0 10 19 16.21 16.02 0.88 o
0 10 20 27.84 27.01 1.65 o
0 11 1 1725.52 1763.89 53.28 o
0 11 2 1891.12 1899.94 57.60 o
0 11 3 2.80 2.99 0.31 o
0 11 4 188.65 185.93 4.95 o
0 11 5 83.40 83.21 2.17 o
0 11 6 3.81 3.78 0.31 o
0 11 7 10.22 10.48 0.50 o
0 11 8 5.51 5.59 0.41 o
0 11 9 71.96 72.55 2.07 o
0 11 10 374.48 379.63 10.68 o
0 11 11 17.71 18.32 0.90 o
0 11 12 5.29 5.37 0.53 o
0 11 13 21.91 21.79 0.65 o
0 11 14 45.88 46.18 1.29 o
0 11 15 154.65 152.76 5.16 o
0 11 16 35.59 36.08 1.29 o
0 11 17 4.53 4.16 0.35 o
0 11 19 2.21 2.31 0.29 o
0 11 20 21.49 21.87 1.51 o
0 11 21 18.23 17.83 1.07 o
0 12 0 103.16 106.61 3.66 o
0 12 1 1516.87 1524.01 45.40 o
0 12 2 5.65 5.66 0.42 o
0 12 3 63.29 64.58 2.00 o
0 12 4 2.68 2.86 0.27 o
0 12 5 490.08 498.90 13.20 o
0 12 6 93.76 94.98 2.81 o
0 12 7 209.45 209.74 5.69 o
0 12 8 17.22 17.55 0.80 o
0 12 9 85.56 87.83 2.61 o
0 12 10 8.58 9.25 0.67 o
0 12 11 118.66 120.97 5.24 o
0 12 12 6.49 7.31 0.35 o
0 12 13 118.73 118.36 3.22 o
0 12 14 1.44 1.64 0.21 o
0 12 15 5.09 6.62 0.39 o
0 12 16 0.76 0.94 0.24 o
0 12 17 57.47 57.10 2.40 o
0 12 18 2.09 1.89 0.28 o
0 12 21 5.08 6.68 0.47 o
0 13 1 415.87 429.30 11.78 o
0 13 2 13.93 14.25 0.59 o
0 13 3 132.00 134.63 3.92 o
0 13 4 1229.24 1213.34 35.66 o
0 13 5 110.07 110.13 2.93 o
0 13 6 2.23 2.29 0.34 o
0 13 7 6.91 6.45 0.50 o
0 13 8 403.61 406.08 11.84 o
0 13 9 10.71 11.38 0.72 o
0 13 10 299.49 295.84 9.72 o
0 13 12 96.07 97.31 2.89 o
0 13 13 2.95 3.67 0.26 o
0 13 14 25.65 26.33 0.79 o
0 13 15 13.31 13.23 0.50 o
0 13 16 20.75 21.07 0.76 o
0 13 18 1.45 1.67 0.28 o
0 13 20 12.58 12.13 0.92 o
0 13 21 10.79 9.96 0.53 o
0 14 0 256.19 255.45 7.83 o
0 14 1 113.49 118.23 3.62 o
0 14 2 2.18 1.94 0.31 o
0 14 3 5.46 5.68 0.46 o
0 14 4 23.24 24.75 0.89 o
0 14 5 163.94 161.67 4.70 o
0 14 6 42.93 43.29 1.37 o
0 14 7 138.99 139.11 3.99 o
0 14 8 2.95 2.72 0.43 o
0 14 11 483.12 480.79 14.76 o
0 14 12 147.51 149.35 3.80 o
0 14 13 13.31 13.54 0.49 o
0 14 15 25.35 25.64 0.86 o
0 14 16 22.81 23.28 1.11 o
0 14 17 13.86 14.19 0.64 o
0 14 19 29.62 30.04 1.55 o
0 14 20 9.31 9.35 0.77 o
0 15 1 121.66 124.94 4.21 o
0 15 2 169.24 168.13 4.85 o
0 15 3 315.69 323.78 9.33 o
0 15 4 55.68 52.98 2.00 o
0 15 5 235.93 241.82 7.89 o
0 15 6 7.30 9.99 0.68 o
0 15 7 58.20 55.10 2.04 o
0 15 8 321.92 316.91 10.13 o
0 15 10 30.78 30.21 1.26 o
0 15 11 113.35 115.49 2.94 o
0 15 12 24.16 26.22 0.76 o
0 15 13 16.96 17.12 0.58 o
0 15 14 37.92 38.30 1.23 o
0 15 15 64.85 65.78 1.79 o
0 15 16 100.66 102.75 4.52 o
0 15 17 11.55 11.36 0.59 o
0 15 18 21.30 21.39 0.95 o
0 15 19 2.47 2.19 0.31 o
0 15 20 16.17 15.69 0.61 o
0 16 0 571.35 581.10 38.90 o
0 16 1 151.19 149.43 4.64 o
0 16 2 161.31 165.95 4.75 o
0 16 3 4.37 3.93 0.52 o
0 16 4 2.17 2.03 0.38 o
0 16 5 117.11 118.76 3.74 o
0 16 6 806.55 803.30 31.69 o
0 16 7 6.47 6.10 0.71 o
0 16 10 173.76 176.17 5.34 o
0 16 11 80.39 81.94 2.11 o
0 16 13 100.16 102.11 2.64 o
0 16 14 57.72 57.70 1.59 o
0 16 17 16.94 17.51 0.86 o
0 16 18 43.82 43.41 1.77 o
0 17 1 45.25 44.37 2.18 o
0 17 2 16.14 17.74 1.00 o
0 17 3 677.68 692.11 27.55 o
0 17 5 4.46 5.10 0.64 o
0 17 6 45.68 48.24 1.90 o
0 17 9 160.24 159.73 5.35 o
0 17 10 27.87 28.45 0.93 o
0 17 11 21.95 21.93 0.70 o
0 17 12 0.73 0.55 0.18 o
0 17 13 32.51 32.38 0.98 o
0 17 15 21.71 22.18 1.14 o
0 17 16 40.33 40.31 1.61 o
0 17 17 41.99 42.41 1.76 o
0 17 18 15.54 15.05 0.63 o
0 17 19 25.78 25.07 1.02 o
0 18 2 279.13 286.65 10.38 o
0 18 3 23.44 24.12 1.36 o
0 18 4 162.73 161.46 5.30 o
0 18 5 141.73 144.03 4.94 o
0 18 8 2.44 2.53 0.28 o
0 18 9 4.09 4.65 0.36 o
0 18 10 45.55 44.89 1.57 o
0 18 11 6.93 7.41 0.41 o
0 18 12 106.39 108.35 3.33 o
0 18 13 69.29 69.33 1.99 o
0 18 14 4.35 4.75 0.34 o
0 18 15 1.32 1.64 0.27 o
0 18 16 23.23 23.46 0.85 o
0 18 17 24.60 24.61 0.81 o
0 18 18 49.24 49.14 1.46 o
0 18 19 5.94 5.98 0.59 o
0 19 3 63.30 65.29 2.77 o
0 19 4 227.23 223.79 7.95 o
0 19 7 3.48 4.11 0.33 o
0 19 8 250.29 243.82 7.19 o
0 19 9 161.68 166.81 6.22 o
0 19 10 12.47 12.36 0.56 o
0 19 11 1.64 1.99 0.26 o
0 19 12 0.82 0.79 0.24 o
0 19 13 37.63 37.21 1.11 o
0 19 15 42.22 44.37 1.32 o
0 19 16 8.96 9.10 0.47 o
0 19 17 1.16 1.16 0.25 o
0 19 18 6.68 6.40 0.38 o
0 20 5 25.79 27.02 1.01 o
0 20 6 1.06 1.21 0.24 o
0 20 7 591.59 611.39 21.15 o
0 20 8 65.15 67.14 2.80 o
0 20 9 14.66 15.04 0.70 o
0 20 11 46.65 45.32 1.55 o
0 20 12 64.34 63.82 1.84 o
0 20 13 42.99 41.65 1.57 o
0 20 14 4.14 4.14 0.41 o
0 20 15 10.26 10.49 0.56 o
0 21 4 198.36 208.26 8.75 o
0 21 5 46.84 48.06 2.16 o
0 21 6 8.73 8.70 0.46 o
0 21 7 30.02 31.27 1.29 o
0 21 8 93.60 94.64 3.69 o
0 21 9 11.86 14.98 0.62 o
0 21 10 57.17 56.88 1.68 o
0 21 11 3.80 4.15 0.37 o
0 21 13 5.99 6.03 0.47 o
0 21 14 74.74 76.92 2.81 o
0 21 15 1.05 1.00 0.29 o
0 21 16 3.72 3.85 0.35 o
0 22 5 98.20 100.47 4.66 o
0 22 7 4.76 4.98 0.39 o
0 22 8 4.43 4.33 0.41 o
0 22 9 15.01 15.38 0.65 o
0 22 11 100.38 101.70 4.59 o
0 22 12 19.47 18.88 1.11 o
0 22 13 27.42 27.34 1.01 o
0 22 14 1.81 1.79 0.37 o
0 22 16 4.12 3.88 0.34 o
0 22 17 30.38 30.80 1.84 o
0 23 5 1.94 1.63 0.39 o
0 23 6 6.64 7.79 0.47 o
0 23 7 2.47 2.43 0.36 o
0 23 8 4.61 4.26 0.45 o
0 23 9 5.05 5.35 0.42 o
0 23 10 68.72 70.97 3.02 o
0 23 11 51.90 51.71 3.37 o
0 23 12 5.71 5.75 0.51 o
0 23 14 19.35 19.48 1.87 o
0 23 15 9.99 10.24 0.86 o
0 23 16 23.25 23.37 1.58 o
0 24 6 120.91 119.55 4.62 o
0 24 7 70.10 71.24 3.72 o
0 24 8 59.77 61.03 4.47 o
0 24 9 6.15 5.78 0.47 o
0 24 10 26.11 25.90 1.47 o
0 24 11 17.69 18.45 0.89 o
0 24 12 14.44 14.80 0.88 o
0 24 14 7.63 8.29 0.55 o
0 24 15 1.30 1.24 0.36 o
0 24 16 3.32 3.27 0.35 o
0 25 6 2.91 2.79 0.36 o
0 25 7 25.54 26.53 1.44 o
0 25 8 3.67 3.99 0.40 o
0 25 9 103.30 106.54 6.98 o
0 25 10 7.93 8.65 0.70 o
0 25 11 5.02 5.30 0.46 o
0 25 12 2.36 2.56 0.34 o
0 25 13 40.78 40.88 3.59 o
0 25 14 1.32 1.25 0.33 o
0 25 15 7.24 7.56 0.97 o
0 27 7 67.33 63.97 2.22 o
0 29 4 42.44 41.06 1.40 o
0 30 1 10.66 10.55 0.62 o
0 30 2 2.71 3.03 0.38 o
0 31 1 32.65 31.70 1.14 o
0 31 2 53.46 50.35 2.82 o
0 31 3 23.15 21.51 0.87 o
0 31 4 1.50 1.21 0.31 o
0 32 1 20.00 19.76 0.81 o
0 32 2 8.01 7.92 0.53 o
0 32 4 7.12 6.65 0.92 o
0 33 1 12.83 12.46 0.56 o
0 33 2 5.95 5.75 0.47 o
1 0 0 1340.35 1413.98 36.54 o
1 0 4 277.09 284.31 7.27 o
1 0 6 341.18 356.49 10.89 o
1 0 8 93.35 92.86 3.22 o
1 0 10 458.99 473.30 14.61 o
1 0 12 18.21 20.32 1.42 o
1 0 14 225.02 237.49 7.26 o
1 0 16 93.02 92.19 3.56 o
1 0 18 39.61 39.45 1.70 o
1 0 20 1.92 1.84 0.36 o
1 1 0 897.85 889.28 22.54 o
1 1 1 1833.33 1846.59 50.52 o
1 1 2 471.67 485.13 12.41 o
1 1 3 387.80 384.58 9.75 o
1 1 4 10.47 10.90 0.38 o
1 1 5 1329.08 1353.64 34.70 o
1 1 6 33.93 33.47 0.93 o
1 1 7 397.22 409.68 10.25 o
1 1 8 32.72 34.79 0.98 o
1 1 9 136.25 139.92 3.53 o
1 1 10 34.01 35.55 1.13 o
1 1 11 170.27 170.41 4.97 o
1 1 12 17.04 17.61 0.88 o
1 1 13 103.97 106.67 4.97 o
1 1 14 3.55 3.41 0.29 o
1 1 15 8.37 8.44 0.37 o
1 1 16 19.78 19.77 0.69 o
1 1 17 72.33 73.17 1.97 o
1 1 18 23.91 23.93 0.77 o
1 1 19 3.62 4.02 0.31 o
1 1 20 5.20 4.54 0.32 o
1 1 21 1.45 1.32 0.26 o
1 2 0 1130.86 1113.02 31.26 o
1 2 1 74.75 79.07 2.11 o
1 2 2 1844.33 1914.63 44.65 o
1 2 3 518.18 519.19 12.45 o
1 2 4 559.25 576.01 13.59 o
1 2 5 0.41 0.57 0.14 o
1 2 6 12.30 12.01 0.47 o
1 2 7 506.03 515.18 13.37 o
1 2 8 687.17 694.56 18.22 o
1 2 9 0.63 0.96 0.21 o
1 2 10 47.35 47.81 1.47 o
1 2 11 62.42 62.51 2.04 o
1 2 12 188.61 193.17 5.89 o
1 2 13 365.40 371.90 20.46 o
1 2 14 139.06 141.03 4.17 o
1 2 15 1.84 1.92 0.21 o
1 2 16 5.19 4.98 0.31 o
1 2 18 3.48 3.76 0.31 o
1 2 19 5.48 5.26 0.36 o
1 2 20 8.50 8.61 0.46 o
1 2 21 24.29 24.25 0.79 o
1 2 22 6.45 6.61 0.41 o
1 3 0 3547.60 3497.04 96.83 o
1 3 1 119.19 125.77 3.17 o
1 3 2 62.82 64.88 1.74 o
1 3 3 72.98 74.41 1.92 o
1 3 4 1182.36 1197.03 29.81 o
1 3 5 3.19 3.44 0.25 o
1 3 6 523.97 529.49 13.34 o
1 3 7 12.63 13.02 0.56 o
1 3 8 39.81 40.01 1.11 o
1 3 9 37.31 38.00 1.10 o
1 3 10 24.20 24.81 0.87 o
1 3 11 269.19 276.64 7.74 o
1 3 12 669.38 675.39 23.38 o
1 3 13 36.01 37.45 2.36 o
1 3 14 13.17 12.90 0.48 o
1 3 15 14.04 14.25 0.50 o
1 3 16 64.02 63.15 2.21 o
1 3 17 6.41 6.49 0.35 o
1 3 18 2.02 2.05 0.27 o
1 3 19 12.90 13.10 0.68 o
1 3 20 0.78 0.86 0.25 o
1 3 21 5.74 5.35 0.41 o
1 3 22 1.31 1.18 0.27 o
1 4 0 477.78 467.39 11.39 o
1 4 1 2397.50 2400.45 68.83 o
1 4 2 13.35 13.21 0.38 o
1 4 3 2165.69 2155.31 53.89 o
1 4 4 452.73 457.48 10.79 o
1 4 5 449.08 461.05 11.18 o
1 4 6 331.76 330.13 8.11 o
1 4 7 698.04 705.07 18.79 o
1 4 8 0.87 0.96 0.18 o
1 4 9 1022.24 1049.16 29.83 o
1 4 10 24.92 24.55 0.82 o
1 4 11 50.09 50.83 1.81 o
1 4 12 12.94 14.42 0.87 o
1 4 13 6.56 7.50 1.06 o
1 4 14 10.79 10.97 0.44 o
1 4 15 189.10 190.32 5.70 o
1 4 16 29.79 30.21 0.91 o
1 4 17 19.84 20.90 0.70 o
1 4 18 2.16 2.29 0.28 o
1 4 19 70.43 70.87 2.64 o
1 4 20 38.82 37.64 1.21 o
1 4 22 13.13 13.20 0.55 o
1 5 0 2847.43 2746.70 75.59 o
1 5 1 39.52 38.81 0.99 o
1 5 2 18.27 19.34 0.56 o
1 5 3 0.30 0.52 0.11 o
1 5 4 1013.90 1021.28 26.24 o
1 5 5 194.28 195.76 4.77 o
1 5 6 869.57 868.47 23.24 o
1 5 7 89.81 90.60 2.33 o
1 5 8 5.57 6.19 0.34 o
1 5 9 67.98 69.25 1.88 o
1 5 10 346.73 353.99 9.55 o
1 5 11 170.42 173.76 4.78 o
1 5 12 44.66 46.13 1.69 o
1 5 13 56.86 56.89 3.07 o
1 5 14 40.82 42.19 1.36 o
1 5 15 10.69 10.93 0.56 o
1 5 16 44.32 44.35 1.59 o
1 5 17 2.09 2.30 0.28 o
1 5 18 48.86 49.83 1.75 o
1 5 19 1.40 1.29 0.30 o
1 5 20 1.81 1.90 0.31 o
1 5 21 1.07 1.35 0.29 o
1 5 22 32.63 31.89 1.07 o
1 6 0 689.15 698.22 16.85 o
1 6 1 55.66 57.50 1.47 o
1 6 2 88.46 90.19 2.29 o
1 6 3 195.86 206.52 5.46 o
1 6 4 183.21 197.34 5.33 o
1 6 5 43.62 44.65 1.28 o
1 6 6 394.15 403.06 10.15 o
1 6 7 101.48 96.92 2.52 o
1 6 8 39.38 38.38 1.09 o
1 6 9 243.16 245.21 6.25 o
1 6 11 14.60 14.68 0.93 o
1 6 14 73.92 76.45 2.35 o
1 6 15 32.75 33.24 1.46 o
1 6 16 18.68 19.73 0.70 o
1 6 17 5.33 4.72 0.35 o
1 6 18 2.32 2.57 0.30 o
1 6 19 1.67 1.61 0.28 o
1 6 20 50.91 48.78 1.97 o
1 6 21 50.65 48.69 2.39 o
1 7 0 63.07 62.23 1.74 o
1 7 1 6.35 7.42 0.30 o
1 7 2 1.23 1.27 0.15 o
1 7 3 45.22 49.61 1.70 o
1 7 4 87.29 87.44 2.24 o
1 7 5 2280.47 2291.70 65.54 o
1 7 6 139.35 142.10 3.52 o
1 7 7 114.34 114.16 2.93 o
1 7 8 13.40 13.94 0.59 o
1 7 9 148.16 148.76 4.09 o
1 7 10 437.29 447.62 13.34 o
1 7 11 35.01 36.91 1.64 o
1 7 14 2.15 2.19 0.28 o
1 7 15 18.79 18.99 0.96 o
1 7 16 36.87 36.19 1.17 o
1 7 17 85.51 82.86 3.47 o
1 7 18 11.22 11.33 0.86 o
1 7 19 33.85 34.03 1.48 o
1 7 20 4.56 4.07 0.43 o
1 7 21 49.18 48.07 1.82 o
1 8 0 225.80 228.81 5.62 o
1 8 1 297.93 300.98 7.56 o
1 8 2 1875.66 1838.10 51.44 o
1 8 3 146.52 152.41 3.76 o
1 8 4 679.19 679.29 20.05 o
1 8 5 58.59 58.60 1.71 o
1 8 6 20.42 20.56 0.67 o
1 8 7 1.54 1.85 0.27 o
1 8 8 539.40 544.45 14.84 o
1 8 9 12.05 12.53 0.67 o
1 8 10 466.07 459.67 13.80 o
1 8 11 131.92 130.50 4.26 o
1 8 12 75.31 79.56 3.07 o
1 8 13 44.38 42.99 2.02 o
1 8 14 80.03 78.08 2.70 o
1 8 15 8.92 8.82 0.78 o
1 8 16 14.96 14.09 0.74 o
1 8 17 8.66 8.76 0.53 o
1 8 20 9.85 9.85 0.61 o
1 8 21 4.66 4.35 0.41 o
1 9 0 119.64 119.90 3.11 o
1 9 1 191.09 196.32 5.01 o
1 9 2 54.01 54.87 1.52 o
1 9 3 63.89 65.57 1.86 o
1 9 4 289.54 298.61 8.68 o
1 9 5 532.27 531.32 14.41 o
1 9 6 0.46 0.67 0.22 o
1 9 7 254.74 260.43 6.69 o
1 9 8 75.66 74.24 2.18 o
1 9 9 5.28 5.73 0.57 o
1 9 10 400.20 390.71 11.67 o
1 9 11 474.85 459.27 16.61 o
1 9 13 69.67 69.05 2.56 o
1 9 15 126.41 120.68 3.93 o
1 9 16 29.21 27.72 1.44 o
1 9 17 4.18 4.04 0.42 o
1 9 19 2.06 1.91 0.31 o
1 9 20 1.10 1.28 0.34 o
1 9 21 1.94 1.97 0.35 o
1 10 0 3.82 4.41 0.33 o
1 10 2 233.07 234.02 5.77 o
1 10 3 121.30 120.38 3.58 o
1 10 4 75.67 74.49 2.07 o
1 10 5 4.54 4.93 0.36 o
1 10 6 68.22 68.02 1.91 o
1 10 7 119.91 116.43 3.15 o
1 10 8 414.48 405.72 11.26 o
1 10 9 46.87 46.29 1.66 o
1 10 10 3.54 3.67 0.48 o
1 10 13 40.96 40.83 1.43 o
1 10 14 95.80 93.53 4.03 o
1 10 15 34.60 33.91 1.12 o
1 10 16 17.17 16.77 0.75 o
1 10 17 4.82 4.72 0.41 o
1 10 18 20.70 19.89 0.80 o
1 10 19 2.17 2.19 0.33 o
1 10 20 14.47 14.11 1.22 o
1 11 0 1825.13 1867.69 56.52 o
1 11 1 1397.18 1409.84 41.61 o
1 11 2 54.67 56.62 1.82 o
1 11 3 1346.93 1312.61 40.06 o
1 11 4 1392.65 1383.49 41.32 o
1 11 5 1.35 1.94 0.27 o
1 11 6 141.88 140.09 4.04 o
1 11 7 13.33 13.97 0.67 o
1 11 8 1.65 1.57 0.35 o
1 11 10 3.50 3.50 0.48 o
1 11 11 48.65 47.24 2.16 o
1 11 12 250.55 243.24 9.20 o
1 11 13 24.23 25.28 0.85 o
1 11 14 11.13 11.28 0.47 o
1 11 15 10.10 10.09 0.54 o
1 11 16 23.57 23.60 0.88 o
1 11 17 77.60 76.56 2.87 o
1 11 18 18.29 17.98 0.75 o
1 11 19 2.11 2.14 0.32 o
1 12 0 11.77 11.60 0.52 o
1 12 1 1622.43 1629.23 48.35 o
1 12 2 101.92 101.43 2.70 o
1 12 3 963.97 934.18 28.00 o
1 12 4 53.22 53.89 1.62 o
1 12 5 3.48 3.56 0.36 o
1 12 6 4.03 4.10 0.41 o
1 12 7 194.48 188.41 5.12 o
1 12 8 53.32 54.18 1.89 o
1 12 9 215.88 207.29 6.56 o
1 12 10 3.97 3.85 0.56 o
1 12 11 67.89 65.70 2.30 o
1 12 13 50.16 49.91 1.90 o
1 12 14 3.44 3.75 0.29 o
1 12 15 70.61 68.50 3.15 o
1 12 16 2.05 2.10 0.33 o
1 12 17 4.47 4.87 0.41 o
1 12 19 24.17 23.77 1.35 o
1 13 0 27.74 27.28 0.82 o
1 13 1 351.65 355.88 9.88 o
1 13 2 40.04 40.92 1.42 o
1 13 3 362.09 357.75 9.58 o
1 13 4 13.05 13.25 0.86 o
1 13 5 63.56 63.81 1.84 o
1 13 6 1019.83 989.90 29.62 o
1 13 7 91.18 91.41 2.68 o
1 13 9 4.17 3.44 0.54 o
1 13 10 198.56 192.00 6.79 o
1 13 12 200.88 200.62 6.03 o
1 13 14 37.15 36.06 1.47 o
1 13 15 2.70 2.70 0.26 o
1 13 16 7.58 7.27 0.50 o
1 13 17 10.80 10.35 0.57 o
1 13 18 14.71 14.67 0.72 o
1 14 0 40.22 40.54 1.28 o
1 14 1 55.17 54.33 1.56 o
1 14 2 237.51 240.35 6.39 o
1 14 3 140.58 140.19 3.81 o
1 14 4 6.52 7.00 0.53 o
1 14 6 30.94 31.11 1.13 o
1 14 7 91.80 88.14 2.66 o
1 14 8 22.71 22.04 1.00 o
1 14 10 3.85 3.87 0.54 o
1 14 11 7.57 8.04 0.46 o
1 14 12 1.57 1.71 0.22 o
1 14 13 313.16 309.36 10.60 o
1 14 14 76.21 76.51 2.33 o
1 14 15 4.68 5.02 0.34 o
1 14 17 8.01 7.55 0.56 o
1 14 18 6.93 6.05 0.51 o
1 14 19 1.81 1.47 0.33 o
1 15 0 223.80 223.15 6.19 o
1 15 1 145.04 146.09 4.16 o
1 15 3 71.70 72.42 2.15 o
1 15 4 104.35 101.95 3.06 o
1 15 5 165.62 160.93 4.48 o
1 15 6 82.43 80.21 2.47 o
1 15 7 278.47 266.55 8.00 o
1 15 8 3.98 4.04 0.65 o
1 15 9 23.46 23.26 2.15 o
1 15 10 198.94 192.21 5.98 o
1 15 11 79.89 80.76 2.33 o
1 15 12 29.05 29.36 1.06 o
1 15 13 45.80 46.21 1.31 o
1 15 14 42.25 43.93 1.29 o
1 15 15 3.36 2.88 0.29 o
1 15 16 22.61 21.94 0.88 o
1 15 17 23.61 23.01 0.94 o
1 15 18 59.07 58.47 1.88 o
1 15 19 1.74 1.59 0.34 o
1 16 0 66.88 66.12 2.22 o
1 16 1 155.87 153.33 4.70 o
1 16 2 503.77 512.27 15.47 o
1 16 3 108.96 108.07 3.18 o
1 16 4 225.96 224.73 6.63 o
1 16 7 56.59 56.73 2.04 o
1 16 8 540.79 521.65 25.37 o
1 16 9 9.55 9.61 0.75 o
1 16 10 65.35 65.64 2.14 o
1 16 11 15.20 15.89 0.64 o
1 16 12 47.11 46.78 1.42 o
1 16 13 57.92 57.78 2.20 o
1 16 15 54.36 54.88 2.01 o
1 16 16 44.41 44.80 1.33 o
1 16 17 1.98 1.99 0.31 o
1 16 19 11.63 11.31 0.85 o
1 17 0 6.72 7.24 0.80 o
1 17 1 50.90 50.34 2.23 o
1 17 2 2.88 2.47 0.59 o
1 17 3 18.91 18.73 0.95 o
1 17 4 19.06 20.03 1.00 o
1 17 5 460.83 452.15 14.18 o
1 17 7 10.97 10.54 1.00 o
1 17 8 36.15 34.86 1.45 o
1 17 9 7.66 8.05 0.56 o
1 17 10 3.27 3.43 0.35 o
1 17 11 124.87 125.25 3.96 o
1 17 12 28.40 28.07 0.90 o
1 17 13 23.64 23.76 0.97 o
1 17 14 3.84 3.94 0.35 o
1 17 15 16.73 17.66 0.80 o
1 17 17 8.12 7.80 0.48 o
1 17 18 25.24 23.87 1.21 o
1 17 19 26.00 25.49 1.03 o
1 18 3 67.09 67.45 2.65 o
1 18 4 294.01 288.53 9.74 o
1 18 5 15.20 14.40 0.83 o
1 18 6 99.43 91.86 3.03 o
1 18 7 65.76 66.78 2.35 o
1 18 8 162.06 165.27 5.04 o
1 18 9 18.57 19.64 0.77 o
1 18 11 5.87 6.56 0.47 o
1 18 12 22.91 22.63 0.77 o
1 18 13 2.02 1.94 0.27 o
1 18 14 47.96 49.00 2.57 o
1 18 15 28.17 28.81 1.00 o
1 18 16 7.82 8.56 0.56 o
1 18 17 3.87 3.51 0.40 o
1 18 18 6.41 5.99 0.47 o
1 19 6 209.13 204.20 6.61 o
1 19 7 11.57 11.55 0.95 o
1 19 8 32.57 33.27 1.62 o
1 19 9 5.87 6.17 0.46 o
1 19 10 107.47 105.51 3.31 o
1 19 11 83.91 80.74 3.57 o
1 19 12 7.75 7.61 0.46 o
1 19 13 2.80 3.15 0.35 o
1 19 14 4.62 4.79 0.41 o
1 19 15 13.08 13.23 0.89 o
1 19 17 22.89 22.25 0.87 o
1 19 18 4.09 4.60 0.41 o
1 20 5 38.20 39.20 1.36 o
1 20 6 31.64 32.20 1.70 o
1 20 7 5.72 5.35 0.50 o
1 20 8 3.68 4.22 0.41 o
1 20 9 494.89 477.01 24.62 o
1 20 10 58.33 58.50 2.74 o
1 20 11 9.56 8.59 0.90 o
1 20 12 0.82 1.00 0.30 o
1 20 13 20.51 21.45 1.37 o
1 20 14 45.52 47.60 2.92 o
1 20 15 23.62 23.47 1.39 o
1 20 16 3.89 3.75 0.35 o
1 20 17 5.03 5.15 0.45 o
1 21 5 17.43 18.43 0.74 o
1 21 6 153.37 156.31 6.06 o
1 21 7 22.82 22.99 1.06 o
1 21 9 11.33 11.89 0.64 o
1 21 10 52.31 54.39 2.22 o
1 21 11 9.27 9.40 0.59 o
1 21 12 43.41 44.14 1.92 o
1 21 13 3.20 2.98 0.40 o
1 21 15 3.71 3.47 0.60 o
1 22 5 98.94 100.16 3.11 o
1 22 6 66.26 68.63 3.21 o
1 22 7 69.51 73.78 2.40 o
1 22 9 6.68 6.41 0.51 o
1 22 10 2.39 2.58 0.38 o
1 22 11 29.54 30.61 1.55 o
1 22 13 55.35 57.78 2.22 o
1 22 14 12.28 12.72 1.41 o
1 22 15 23.07 24.06 1.39 o
1 23 4 135.53 137.91 5.85 o
1 23 5 90.14 91.13 3.11 o
1 23 6 1.81 1.68 0.34 o
1 23 7 8.15 8.86 0.61 o
1 23 10 3.46 3.14 0.41 o
1 23 11 6.66 7.58 0.59 o
1 23 12 44.55 46.42 2.10 o
1 23 13 29.83 28.92 1.73 o
1 23 14 0.98 1.13 0.34 o
1 23 16 10.40 10.50 0.86 o
1 24 4 1.45 1.39 0.35 o
1 24 5 201.53 196.36 6.79 o
1 24 6 2.75 2.50 0.37 o
1 24 7 103.23 99.87 4.21 o
1 24 8 88.88 88.66 2.92 o
1 24 9 50.90 52.84 2.00 o
1 24 11 4.63 4.48 0.74 o
1 24 12 7.33 7.29 0.56 o
1 24 13 7.27 7.84 0.60 o
1 24 14 10.56 10.29 1.01 o
1 25 5 49.70 52.69 2.86 o
1 25 6 27.81 27.01 2.21 o
1 25 7 45.11 45.67 1.66 o
1 26 4 9.54 9.90 0.77 o
1 26 5 16.81 18.12 1.02 o
1 32 0 9.98 10.01 0.59 o
1 32 1 21.01 20.46 0.84 o
1 32 3 16.09 15.77 0.70 o
1 33 0 4.94 4.85 0.49 o
1 33 1 22.58 21.61 0.76 o
1 33 2 0.68 0.84 0.26 o
2 0 0 2948.36 2943.91 85.60 o
2 0 2 378.57 387.51 15.95 o
2 0 4 10809.98 10430.84 348.63 o
2 0 6 3.74 3.46 0.39 o
2 0 8 64.85 67.04 2.22 o
2 0 10 56.37 58.43 2.38 o
2 1 0 3.44 3.49 0.18 o
2 1 1 824.38 831.29 24.44 o
2 1 2 489.75 493.29 13.56 o
2 1 3 1472.08 1478.15 43.67 o
2 1 4 416.33 421.44 12.34 o
2 1 5 135.86 135.62 3.95 o
2 1 6 1.56 1.93 0.23 o
2 1 7 690.96 690.43 18.86 o
2 1 8 6.13 6.71 0.43 o
2 1 9 206.70 207.63 5.56 o
2 1 11 31.42 33.74 1.43 o
2 1 12 25.89 25.79 1.50 o
2 1 14 12.19 12.80 0.57 o
2 1 15 67.59 71.32 2.74 o
2 1 17 0.76 0.87 0.27 o
2 1 18 8.16 8.76 0.74 o
2 1 19 31.46 31.89 1.07 o
2 1 20 9.62 10.05 0.53 o
2 1 21 2.22 2.32 0.29 o
2 1 22 1.38 1.42 0.30 o
2 2 0 82.81 83.77 2.09 o
2 2 1 2.31 2.30 0.18 o
2 2 2 383.60 398.83 10.54 o
2 2 3 40.70 40.85 1.14 o
2 2 4 445.80 462.08 12.96 o
2 2 5 528.88 528.37 14.45 o
2 2 6 296.78 293.23 7.59 o
2 2 7 1.23 1.18 0.26 o
2 2 8 17.46 17.56 0.66 o
2 2 9 221.05 226.20 6.49 o
2 2 10 366.69 369.73 11.34 o
2 2 12 69.88 72.12 2.70 o
2 2 14 112.64 114.36 4.04 o
2 2 15 170.24 163.96 4.68 o
2 2 16 45.70 45.37 1.56 o
2 2 17 2.71 2.99 0.34 o
2 2 18 1.94 1.97 0.31 o
2 2 21 1.79 1.72 0.34 o
2 2 22 4.59 4.75 0.39 o
2 3 0 576.74 554.41 13.43 o
2 3 2 1197.77 1196.44 32.00 o
2 3 3 62.16 62.80 1.76 o
2 3 4 171.69 170.50 4.22 o
2 3 5 45.80 46.05 1.27 o
2 3 6 427.22 421.72 11.03 o
2 3 7 10.62 10.14 0.50 o
2 3 8 336.47 328.87 8.57 o
2 3 9 41.72 41.61 1.48 o
2 3 10 42.30 42.65 2.04 o
2 3 11 22.27 22.68 1.21 o
2 3 12 10.90 11.91 1.10 o
2 3 14 321.75 320.92 10.10 o
2 3 15 6.31 6.51 0.53 o
2 3 16 6.39 6.32 0.52 o
2 3 17 5.61 5.53 0.44 o
2 3 18 14.55 14.30 0.74 o
2 3 19 2.83 2.95 0.40 o
2 3 20 1.01 1.17 0.33 o
2 3 21 4.04 4.55 0.58 o
2 4 0 348.03 345.15 8.28 o
2 4 1 77.81 79.32 2.42 o
2 4 2 154.19 152.94 4.11 o
2 4 3 1265.97 1243.83 31.59 o
2 4 5 1051.30 1029.94 28.93 o
2 4 6 187.51 185.66 5.78 o
2 4 7 339.35 336.20 8.76 o
2 4 8 183.24 177.59 4.70 o
2 4 9 327.73 319.65 9.07 o
2 4 10 3.59 3.55 0.48 o
2 4 11 526.63 522.22 18.15 o
2 4 14 15.38 15.40 0.66 o
2 4 15 19.40 19.78 0.76 o
2 4 16 3.87 4.10 0.34 o
2 4 17 96.06 96.06 3.28 o
2 4 18 18.30 18.14 0.75 o
2 4 19 12.90 12.84 0.65 o
2 4 21 26.94 27.41 0.98 o
2 5 0 1096.54 1079.59 31.68 o
2 5 1 880.92 872.55 22.98 o
2 5 2 1278.29 1289.90 33.62 o
2 5 3 43.02 43.12 1.16 o
2 5 4 49.52 48.84 1.30 o
2 5 6 363.31 356.87 10.04 o
2 5 7 17.02 17.07 0.70 o
2 5 8 435.89 417.34 11.42 o
2 5 9 43.81 42.59 1.40 o
2 5 10 27.10 27.46 1.16 o
2 5 11 35.80 35.80 1.52 o
2 5 13 48.57 46.64 1.57 o
2 5 14 27.18 27.83 0.93 o
2 5 15 5.91 5.94 0.44 o
2 5 16 28.39 28.96 1.08 o
2 5 17 6.56 6.46 0.47 o
2 5 18 14.10 14.47 0.66 o
2 5 19 2.14 2.15 0.32 o
2 5 20 23.96 23.66 0.84 o
2 6 0 1366.62 1356.10 36.35 o
2 6 1 5.14 4.87 0.30 o
2 6 2 400.30 406.03 10.11 o
2 6 3 21.50 21.02 0.72 o
2 6 4 27.63 27.62 0.88 o
2 6 5 187.22 183.34 5.40 o
2 6 6 99.28 99.06 2.72 o
2 6 7 1.57 2.09 0.29 o
2 6 8 108.10 103.77 2.88 o
2 6 9 45.13 43.53 1.40 o
2 6 10 23.00 23.75 1.15 o
2 6 11 150.08 153.19 4.94 o
2 6 14 1.09 1.11 0.26 o
2 6 15 78.68 77.09 2.22 o
2 6 16 22.80 22.50 0.78 o
2 6 17 17.75 17.84 0.77 o
2 6 18 11.24 11.53 0.77 o
2 6 19 1.27 1.00 0.29 o
2 7 0 49.02 49.22 1.32 o
2 7 1 2350.62 2364.17 69.20 o
2 7 2 1.75 1.89 0.21 o
2 7 3 104.93 105.81 3.11 o
2 7 4 1.90 1.88 0.23 o
2 7 5 35.00 34.93 1.20 o
2 7 6 18.58 18.83 0.78 o
2 7 7 1131.39 1115.89 33.68 o
2 7 8 126.80 120.91 3.25 o
2 7 9 88.41 89.34 2.61 o
2 7 10 11.12 11.62 0.72 o
2 7 11 47.80 47.86 1.91 o
2 7 13 12.60 12.33 0.54 o
2 7 15 30.12 29.74 1.01 o
2 7 17 20.30 20.95 0.76 o
2 7 18 16.94 16.63 0.71 o
2 7 19 37.86 37.69 1.32 o
2 7 20 4.11 3.84 0.41 o
2 8 0 351.43 349.99 8.80 o
2 8 1 125.61 124.74 3.08 o
2 8 2 55.05 55.29 1.48 o
2 8 3 145.90 147.00 3.65 o
2 8 4 922.21 887.86 23.88 o
2 8 5 50.27 50.99 1.46 o
2 8 6 581.62 561.06 15.19 o
2 8 7 13.14 13.19 0.62 o
2 8 8 3.42 3.47 0.39 o
2 8 10 303.53 295.51 8.66 o
2 8 13 53.30 54.39 1.55 o
2 8 14 12.75 12.27 0.58 o
2 8 15 24.76 25.03 1.01 o
2 8 16 35.95 35.82 1.17 o
2 8 18 8.06 8.85 0.71 o
2 8 19 1.23 1.17 0.35 o
2 9 0 17.27 18.67 0.70 o
2 9 1 632.70 630.70 16.41 o
2 9 2 35.15 36.44 1.20 o
2 9 3 229.06 229.38 6.55 o
2 9 4 112.07 112.94 2.88 o
2 9 5 10.70 10.58 0.52 o
2 9 6 257.84 252.19 6.59 o
2 9 7 295.50 289.00 7.66 o
2 9 8 3.28 3.37 0.40 o
2 9 9 206.61 198.04 5.63 o
2 9 10 88.27 84.59 2.64 o
2 9 12 302.99 290.28 9.09 o
2 9 13 260.21 256.68 7.28 o
2 9 14 37.91 38.50 1.48 o
2 9 15 36.81 36.48 1.17 o
2 9 17 49.92 48.82 2.54 o
2 9 18 8.11 8.27 0.60 o
2 10 0 235.30 239.09 6.61 o
2 10 1 1.16 1.07 0.22 o
2 10 3 5.67 5.92 0.35 o
2 10 4 235.07 229.26 5.86 o
2 10 5 201.24 196.58 5.61 o
2 10 6 55.87 54.08 1.54 o
2 10 7 2.83 3.04 0.35 o
2 10 8 26.11 25.11 1.01 o
2 10 9 69.77 65.76 2.10 o
2 10 10 168.31 162.14 5.00 o
2 10 11 23.52 23.89 1.13 o
2 10 12 2.02 2.48 0.28 o
2 10 13 0.60 0.75 0.24 o
2 10 14 4.25 3.93 0.35 o
2 10 15 16.01 15.25 0.67 o
2 10 16 46.05 44.35 1.58 o
2 10 17 14.12 14.24 0.66 o
2 10 18 12.65 13.62 0.72 o
2 11 0 98.57 101.88 2.55 o
2 11 1 43.22 41.19 1.20 o
2 11 2 1232.33 1211.91 35.61 o
2 11 3 826.42 812.86 22.81 o
2 11 4 133.18 130.76 3.42 o
2 11 5 733.56 709.87 20.48 o
2 11 6 842.37 812.83 24.20 o
2 11 7 3.96 4.10 0.38 o
2 11 8 80.95 78.13 2.40 o
2 11 12 17.70 17.84 0.66 o
2 11 13 19.32 19.75 0.73 o
2 11 14 133.34 129.38 3.75 o
2 11 15 20.93 21.24 0.82 o
2 11 16 12.19 12.25 0.67 o
2 11 17 3.18 2.82 0.34 o
2 12 0 24.81 25.42 0.77 o
2 12 1 264.45 265.41 6.51 o
2 12 2 57.98 57.54 1.58 o
2 12 3 1215.51 1187.55 36.58 o
2 12 4 83.90 80.15 2.26 o
2 12 5 457.25 435.12 12.16 o
2 12 6 85.76 82.36 2.47 o
2 12 7 9.27 9.16 0.56 o
2 12 8 14.34 14.00 0.71 o
2 12 9 55.51 54.72 1.99 o
2 12 10 23.40 22.58 1.19 o
2 12 11 153.00 150.22 4.26 o
2 12 13 45.30 45.00 1.35 o
2 12 15 16.60 16.80 0.64 o
2 12 16 1.66 1.61 0.30 o
2 12 17 33.42 32.87 1.20 o
2 13 0 648.95 655.19 17.67 o
2 13 1 94.48 95.44 2.56 o
2 13 2 46.33 45.34 1.44 o
2 13 3 233.24 226.83 6.06 o
2 13 4 96.51 93.55 2.64 o
2 13 5 233.62 227.21 6.21 o
2 13 6 13.81 13.46 0.66 o
2 13 7 22.32 21.63 0.89 o
2 13 8 596.37 559.67 17.69 o
2 13 9 58.83 56.12 1.85 o
2 13 10 3.08 3.12 0.44 o
2 13 11 1.81 1.47 0.36 o
2 13 12 69.66 67.15 2.03 o
2 13 14 120.34 116.11 4.10 o
2 13 15 5.56 5.80 0.41 o
2 13 16 13.47 12.89 0.62 o
2 13 17 2.26 1.41 0.45 o
2 14 0 4.17 4.16 0.39 o
2 14 1 2.19 2.03 0.30 o
2 14 2 91.81 89.58 2.53 o
2 14 3 9.91 8.62 0.55 o
2 14 4 194.68 192.37 5.28 o
2 14 5 125.13 118.75 3.45 o
2 14 6 18.26 17.50 0.78 o
2 14 7 8.98 8.80 0.59 o
2 14 8 28.95 28.69 1.12 o
2 14 9 49.46 47.01 1.92 o
2 14 10 7.46 7.48 0.76 o
2 14 11 89.95 88.77 2.65 o
2 14 12 3.79 3.65 0.37 o
2 14 13 9.59 10.27 0.60 o
2 14 14 1.84 2.15 0.38 o
2 14 15 153.79 148.44 4.16 o
2 14 16 31.71 31.97 1.55 o
2 15 1 371.49 370.71 11.04 o
2 15 2 228.87 226.56 6.33 o
2 15 3 141.75 139.37 3.95 o
2 15 4 2.92 2.69 0.43 o
2 15 5 24.96 24.27 1.03 o
2 15 6 49.32 46.70 1.54 o
2 15 7 63.32 60.12 1.94 o
2 15 8 74.71 70.84 2.26 o
2 15 9 249.19 240.44 8.90 o
2 15 10 1.71 1.93 0.51 o
2 15 11 7.67 7.38 0.55 o
2 15 12 94.80 92.16 2.75 o
2 15 13 54.71 53.08 1.71 o
2 15 14 20.40 20.33 0.81 o
2 15 15 11.33 11.20 0.66 o
2 15 16 40.32 41.11 1.31 o
2 16 0 45.70 46.17 1.64 o
2 16 1 26.42 26.36 1.21 o
2 16 2 15.48 15.65 0.93 o
2 16 3 127.12 125.63 3.66 o
2 16 4 341.53 330.63 9.80 o
2 16 5 60.70 57.80 1.94 o
2 16 6 204.97 196.00 5.87 o
2 16 8 2.13 2.09 0.41 o
2 16 9 18.72 17.61 0.89 o
2 16 10 279.21 266.84 8.90 o
2 16 11 9.30 8.64 0.69 o
2 16 12 29.00 28.54 1.01 o
2 16 13 8.39 8.27 0.48 o
2 16 14 4.73 4.23 0.44 o
2 16 15 33.18 33.41 1.49 o
2 17 0 17.21 18.09 1.35 o
2 17 1 649.75 629.72 24.46 o
2 17 3 35.24 34.26 1.31 o
2 17 4 10.67 10.64 0.72 o
2 17 6 15.08 14.25 0.75 o
2 17 7 253.15 243.63 7.70 o
2 17 9 15.36 14.86 0.97 o
2 17 10 24.10 21.09 1.02 o
2 17 12 2.53 2.53 0.41 o
2 17 13 73.65 72.83 2.32 o
2 17 14 18.04 18.57 1.09 o
2 17 15 15.88 15.81 0.77 o
2 17 16 4.30 4.08 0.43 o
2 18 0 225.82 231.36 11.14 o
2 18 1 11.00 10.46 0.88 o
2 18 2 86.74 87.42 3.12 o
2 18 3 64.79 64.06 2.22 o
2 18 4 1.26 1.62 0.43 o
2 18 5 39.21 36.02 1.88 o
2 18 6 227.69 223.10 6.99 o
2 18 7 6.04 5.80 0.48 o
2 18 8 47.62 46.95 1.84 o
2 18 9 22.85 23.18 1.40 o
2 18 10 85.24 79.29 4.11 o
2 18 11 4.04 4.25 0.57 o
2 18 12 2.61 2.75 0.37 o
2 18 13 3.54 3.77 0.41 o
2 18 14 10.48 10.68 0.66 o
2 18 16 17.18 16.86 0.88 o
2 19 4 88.32 90.69 3.02 o
2 19 5 12.69 13.01 0.74 o
2 19 6 59.26 56.87 1.83 o
2 19 7 45.29 44.50 1.55 o
2 19 8 142.96 137.32 6.16 o
2 19 9 16.73 17.07 0.80 o
2 19 10 13.66 12.54 0.94 o
2 19 11 6.00 6.49 0.55 o
2 19 12 32.64 31.85 1.13 o
2 20 2 10.16 10.94 0.71 o
2 20 3 171.97 179.36 8.84 o
2 20 4 267.41 268.70 12.66 o
2 20 5 47.48 47.44 2.39 o
2 20 7 70.80 70.20 3.14 o
2 20 8 15.61 15.41 0.76 o
2 20 10 3.62 3.46 0.47 o
2 20 11 329.62 328.92 11.31 o
2 21 0 109.71 112.27 5.34 o
2 21 1 9.41 9.21 0.57 o
2 21 2 132.44 135.40 5.09 o
2 21 3 7.91 8.38 0.56 o
2 21 4 12.59 13.07 0.61 o
2 21 5 1.39 1.22 0.34 o
2 21 6 51.42 51.61 1.76 o
2 21 7 8.32 8.42 0.59 o
2 21 8 82.66 84.66 3.19 o
2 21 9 6.03 6.16 0.48 o
2 21 10 2.69 2.87 0.38 o
2 22 3 54.89 55.41 3.99 o
2 22 5 245.78 240.54 8.90 o
2 22 6 93.16 97.26 2.96 o
2 22 7 63.92 63.20 2.65 o
2 22 8 70.13 71.00 2.26 o
2 22 9 38.01 38.71 1.77 o
2 22 10 3.52 3.71 0.41 o
2 23 3 34.49 37.87 4.43 o
2 23 6 55.45 58.89 2.01 o
2 23 7 29.21 30.47 1.24 o
2 23 8 5.76 6.00 0.59 o
2 23 9 11.49 11.15 0.74 o
2 24 4 233.68 227.62 8.44 o
2 24 7 138.04 139.01 4.85 o
2 24 8 9.25 10.32 0.72 o
3 0 0 275.26 277.99 11.00 o
3 0 2 1477.97 1434.69 58.24 o
3 0 4 118.43 117.78 3.87 o
3 0 6 3371.10 3303.15 132.69 o
3 0 8 9.07 9.06 0.97 o
3 1 0 1073.83 1073.19 30.17 o
3 1 1 57.48 55.80 2.02 o
3 1 2 1.93 2.14 0.26 o
3 1 3 337.92 330.35 12.15 o
3 1 4 305.10 291.74 10.45 o
3 1 5 896.12 867.72 26.81 o
3 1 6 249.26 248.06 7.15 o
3 1 7 30.74 29.83 0.97 o
3 1 8 7.24 7.94 0.62 o
3 1 16 8.46 9.10 0.65 o
3 1 17 34.17 33.81 1.23 o
3 2 0 567.78 557.13 14.30 o
3 2 1 255.93 251.51 7.35 o
3 2 2 75.91 72.41 2.39 o
3 2 3 20.87 20.34 0.80 o
3 2 4 99.65 99.10 2.86 o
3 2 5 17.00 17.45 0.76 o
3 2 6 64.96 65.20 2.10 o
3 2 7 379.34 365.43 12.01 o
3 2 8 158.18 148.92 5.13 o
3 2 16 59.52 59.25 3.18 o
3 2 17 69.64 68.39 2.83 o
3 2 18 10.61 10.43 0.64 o
3 2 19 2.00 2.10 0.36 o
3 3 0 92.08 94.65 2.49 o
3 3 1 12.45 12.60 0.57 o
3 3 2 255.51 253.70 7.96 o
3 3 3 19.09 20.07 0.89 o
3 3 4 497.61 476.60 14.58 o
3 3 5 32.90 33.03 1.21 o
3 3 6 192.51 185.95 5.45 o
3 3 7 47.42 46.90 1.59 o
3 3 8 158.84 151.08 4.44 o
3 3 18 2.08 1.70 0.36 o
3 3 19 1.81 1.42 0.34 o
3 3 20 1.80 1.72 0.34 o
3 4 0 1.34 1.16 0.23 o
3 4 1 745.11 738.27 20.09 o
3 4 2 122.91 121.20 3.51 o
3 4 3 303.59 297.31 8.28 o
3 4 4 30.68 30.30 1.01 o
3 4 5 517.50 504.91 13.95 o
3 4 7 466.19 439.30 12.64 o
3 4 8 84.11 81.32 2.57 o
3 4 9 239.22 232.82 7.62 o
3 4 17 16.85 16.80 0.80 o
3 4 19 38.73 39.32 1.35 o
3 5 0 254.38 250.37 7.07 o
3 5 1 42.01 41.27 1.29 o
3 5 2 598.54 585.69 15.43 o
3 5 3 268.55 264.55 7.21 o
3 5 4 577.93 557.78 14.53 o
3 5 5 24.52 24.49 0.77 o
3 5 6 55.74 54.46 1.85 o
3 5 8 121.46 117.24 3.75 o
3 5 10 189.04 189.89 9.15 o
3 5 18 16.40 16.39 0.78 o
3 5 19 4.11 3.47 0.51 o
3 6 0 199.95 196.79 4.88 o
3 6 1 421.04 408.60 10.47 o
3 6 2 656.81 645.21 16.55 o
3 6 3 1.84 1.89 0.23 o
3 6 4 175.38 171.68 4.41 o
3 6 5 3.95 3.47 0.29 o
3 6 6 14.86 16.41 0.67 o
3 6 7 133.90 127.70 3.54 o
3 6 8 57.51 55.73 1.88 o
3 6 9 2.04 2.22 0.47 o
3 6 10 23.06 22.62 1.17 o
3 6 12 9.84 11.10 0.65 o
3 6 17 26.70 26.16 1.04 o
3 6 18 4.16 3.67 0.42 o
3 7 0 1.38 1.64 0.21 o
3 7 1 12.42 13.19 0.47 o
3 7 2 52.98 53.01 1.40 o
3 7 3 1066.12 1056.18 29.75 o
3 7 4 39.30 37.87 1.11 o
3 7 5 135.40 130.99 3.53 o
3 7 6 2.05 1.84 0.30 o
3 7 7 34.52 33.64 1.19 o
3 7 8 6.49 6.64 0.61 o
3 7 9 498.86 482.21 15.77 o
3 7 10 76.50 74.49 2.75 o
3 7 12 7.97 8.50 0.51 o
3 7 13 7.69 7.89 0.58 o
3 7 14 86.10 88.28 2.91 o
3 7 17 11.65 12.16 0.68 o
3 8 0 489.62 493.00 12.36 o
3 8 1 41.99 41.37 1.14 o
3 8 2 347.62 336.85 8.40 o
3 8 3 76.64 75.45 1.99 o
3 8 4 4.12 4.18 0.32 o
3 8 5 65.25 60.20 1.80 o
3 8 6 372.13 353.44 9.54 o
3 8 7 20.62 19.72 0.80 o
3 8 8 426.03 407.25 12.72 o
3 8 9 1.52 1.45 0.46 o
3 8 12 151.98 152.53 4.15 o
3 8 14 67.58 68.02 2.09 o
3 8 15 16.69 17.36 0.79 o
3 8 17 10.55 10.50 0.64 o
3 9 0 6.94 11.76 0.46 o
3 9 1 55.28 55.80 1.49 o
3 9 2 2.60 2.89 0.27 o
3 9 3 366.56 355.76 9.23 o
3 9 4 3.05 3.32 0.31 o
3 9 5 182.72 176.86 4.81 o
3 9 6 114.82 109.70 3.02 o
3 9 8 193.08 185.56 5.35 o
3 9 9 129.98 124.83 3.74 o
3 9 10 9.20 8.88 0.70 o
3 9 11 127.37 126.45 3.58 o
3 9 12 63.75 67.24 2.26 o
3 9 13 4.63 5.03 0.40 o
3 9 14 179.40 180.89 5.35 o
3 9 15 115.68 117.10 4.23 o
3 9 17 14.95 15.18 0.82 o
3 10 0 240.20 236.11 5.86 o
3 10 1 25.82 26.31 0.82 o
3 10 2 210.01 207.01 5.52 o
3 10 3 13.70 13.91 0.57 o
3 10 4 8.63 8.73 0.56 o
3 10 5 15.89 15.54 0.78 o
3 10 6 220.40 213.29 5.78 o
3 10 7 186.33 177.74 5.10 o
3 10 8 16.48 16.28 0.76 o
3 10 9 1.18 1.34 0.41 o
3 10 10 5.01 4.75 0.50 o
3 10 11 27.79 26.53 1.06 o
3 10 12 42.04 41.67 1.42 o
3 10 13 10.54 10.51 0.58 o
3 10 14 10.77 11.37 0.75 o
3 10 15 0.93 1.34 0.41 o
3 11 0 54.27 56.18 1.52 o
3 11 1 135.17 132.97 3.43 o
3 11 2 37.02 38.14 1.14 o
3 11 3 56.79 53.80 1.57 o
3 11 4 682.12 647.53 20.11 o
3 11 5 394.19 373.46 10.91 o
3 11 6 156.37 147.30 4.25 o
3 11 7 304.49 288.70 8.18 o
3 11 8 424.82 403.41 12.34 o
3 11 9 3.69 3.91 0.47 o
3 11 10 38.83 37.40 1.40 o
3 11 11 5.97 5.81 0.49 o
3 11 14 21.88 21.78 0.90 o
3 11 15 3.71 3.48 0.43 o
3 12 0 46.32 47.07 1.34 o
3 12 1 875.49 864.72 25.02 o
3 12 2 23.52 23.78 0.82 o
3 12 3 275.77 274.29 7.73 o
3 12 4 91.06 85.50 2.59 o
3 12 5 705.12 662.91 22.84 o
3 12 6 53.13 48.86 1.58 o
3 12 7 168.30 158.74 4.52 o
3 12 8 76.27 74.15 3.05 o
3 12 9 26.85 28.26 1.39 o
3 12 10 14.54 14.18 0.70 o
3 12 11 10.06 10.02 0.61 o
3 12 12 9.12 9.72 0.55 o
3 12 13 76.11 74.63 2.29 o
3 12 15 26.67 27.21 1.23 o
3 13 0 61.31 61.38 1.98 o
3 13 1 74.07 74.74 2.06 o
3 13 2 300.34 292.56 7.95 o
3 13 3 42.06 42.04 1.57 o
3 13 4 55.43 52.22 1.73 o
3 13 5 121.38 118.98 4.16 o
3 13 6 106.56 101.68 3.01 o
3 13 7 121.85 117.44 3.51 o
3 13 8 9.93 9.78 0.66 o
3 13 9 6.97 7.15 0.59 o
3 13 10 258.31 243.48 7.87 o
3 13 11 31.60 30.21 1.11 o
3 13 12 7.55 7.61 0.51 o
3 13 14 17.21 16.55 0.89 o
3 14 0 21.91 21.21 0.87 o
3 14 1 253.53 244.80 6.55 o
3 14 4 120.60 119.34 3.54 o
3 14 5 0.98 1.32 0.39 o
3 14 6 142.41 137.79 4.09 o
3 14 7 83.22 78.29 2.74 o
3 14 8 17.75 16.94 0.86 o
3 14 9 24.01 23.16 1.05 o
3 14 10 18.52 18.32 0.94 o
3 14 11 25.43 24.01 1.10 o
3 14 12 1.48 1.52 0.32 o
3 14 13 49.92 50.42 1.70 o
3 14 14 3.05 3.09 0.51 o
3 15 0 24.15 25.76 0.98 o
3 15 1 17.87 18.12 0.82 o
3 15 2 3.67 4.05 0.53 o
3 15 3 223.31 218.84 6.56 o
3 15 4 181.58 173.28 5.13 o
3 15 5 113.62 111.01 3.74 o
3 15 6 2.73 2.60 0.42 o
3 15 7 4.21 4.23 0.49 o
3 15 8 15.74 15.02 0.82 o
3 15 9 17.02 16.67 0.89 o
3 15 10 49.85 47.18 1.74 o
3 15 11 168.82 159.11 5.20 o
3 15 12 0.73 1.47 0.36 o
3 15 13 2.22 1.95 0.41 o
3 16 0 486.09 479.45 15.36 o
3 16 1 118.82 116.69 4.82 o
3 16 2 76.42 74.77 2.67 o
3 16 3 32.76 32.73 1.36 o
3 16 4 1.49 1.54 0.46 o
3 16 5 83.23 77.78 3.77 o
3 16 6 175.94 167.28 5.14 o
3 16 7 29.29 27.25 1.15 o
3 16 8 136.41 131.79 4.16 o
3 16 10 4.36 4.82 0.57 o
3 16 11 3.19 3.46 0.53 o
3 16 12 114.20 109.05 3.55 o
3 16 13 6.87 7.13 0.59 o
3 17 0 31.80 32.16 2.16 o
3 17 1 2.86 3.47 0.71 o
3 17 3 424.65 412.99 20.21 o
3 17 4 1.71 2.04 0.45 o
3 17 5 14.85 14.07 0.86 o
3 17 6 15.84 14.49 0.79 o
3 17 7 3.84 3.44 0.56 o
3 17 8 8.82 8.41 0.67 o
3 17 9 113.65 103.54 4.00 o
3 17 11 13.78 13.46 0.83 o
3 17 12 13.01 13.64 0.79 o
3 18 4 22.90 22.79 1.37 o
3 18 5 28.04 27.99 2.04 o
3 18 7 19.85 18.84 0.95 o
3 18 8 133.25 124.53 4.11 o
3 18 10 17.81 16.46 1.05 o
3 18 11 5.96 6.23 0.65 o
3 18 12 32.77 33.56 1.28 o
3 19 0 53.70 55.71 4.30 o
3 19 1 48.94 50.41 2.59 o
3 19 2 42.08 41.63 1.67 o
3 19 3 22.28 22.60 1.24 o
3 19 4 27.06 27.78 1.23 o
3 19 5 80.77 78.44 3.63 o
3 19 6 99.67 97.70 4.99 o
3 19 8 33.96 31.43 1.32 o
3 19 9 30.26 28.32 1.26 o
3 19 11 14.14 14.07 0.87 o
3 19 15 9.75 9.52 0.58 o
3 20 0 17.77 17.56 1.10 o
3 20 1 102.67 95.97 5.57 o
3 20 2 26.59 27.76 1.18 o
3 20 3 17.23 18.29 0.90 o
3 20 4 10.52 10.84 0.52 o
3 20 5 98.23 93.20 3.82 o
3 20 6 131.07 130.64 6.53 o
3 20 7 13.44 13.14 0.80 o
3 20 8 2.34 2.48 0.48 o
3 20 9 79.13 74.28 3.13 o
3 20 10 6.05 7.01 0.79 o
3 20 15 3.65 3.25 0.39 o
3 21 0 58.45 55.92 1.80 o
3 21 1 27.87 28.54 1.77 o
3 21 2 42.20 43.74 2.24 o
3 21 3 5.26 5.41 0.40 o
3 21 4 109.77 107.77 5.01 o
3 21 5 17.26 18.04 0.90 o
3 21 6 15.93 17.20 0.91 o
3 21 7 7.65 7.16 0.58 o
3 21 8 28.97 29.88 1.51 o
3 21 9 1.38 1.63 0.47 o
3 21 15 1.00 2.25 0.34 o
3 22 0 1.41 1.36 0.28 o
3 22 1 69.56 70.95 3.99 o
3 22 2 1.13 1.12 0.28 o
3 22 3 105.01 108.41 4.20 o
3 22 4 4.11 4.26 0.36 o
3 22 5 17.04 16.33 0.88 o
3 22 7 177.17 172.71 6.09 o
3 22 8 65.92 59.96 2.60 o
3 22 9 35.15 34.11 1.56 o
3 22 14 1.28 1.17 0.33 o
3 22 15 25.08 25.11 1.03 o
3 23 0 60.04 62.51 3.35 o
3 23 1 11.61 12.46 0.70 o
3 23 3 227.74 227.09 11.86 o
3 23 4 136.74 132.76 3.98 o
3 23 5 22.86 23.47 1.08 o
3 23 7 18.95 19.22 0.81 o
3 23 15 4.25 3.94 0.38 o
3 24 0 67.43 63.90 2.25 o
3 24 1 52.17 52.82 3.97 o
3 24 2 44.62 46.83 2.12 o
3 24 3 25.38 25.73 1.30 o
3 24 5 2.94 3.34 0.51 o
3 24 6 130.49 126.34 4.14 o
3 24 12 23.79 23.06 1.37 o
3 24 13 15.96 16.66 0.75 o
3 24 14 12.26 11.71 0.53 o
3 25 1 39.80 39.71 3.32 o
3 25 2 79.29 79.92 7.96 o
3 25 4 5.08 4.71 0.51 o
3 25 12 6.07 5.52 0.62 o
3 25 13 0.81 0.82 0.27 o
3 26 0 45.83 44.26 3.17 o
3 26 12 24.84 24.75 0.84 o
3 26 13 1.48 1.36 0.31 o
3 27 1 3.62 3.42 0.41 o
3 27 12 3.13 3.19 0.35 o
3 28 0 39.79 38.18 3.99 o
3 28 1 52.48 52.39 3.82 o
3 29 0 74.78 72.18 7.74 o
4 0 0 18.68 19.03 0.84 o
4 0 2 238.48 225.44 7.93 o
4 0 4 780.30 735.56 25.87 o
4 0 6 58.22 56.79 3.15 o
4 1 0 21.49 22.08 0.76 o
4 1 1 264.42 255.95 6.88 o
4 1 2 558.42 521.08 14.17 o
4 1 4 6.31 5.86 0.41 o
4 1 5 118.16 112.56 3.67 o
4 1 6 189.14 179.25 6.54 o
4 1 7 541.39 512.32 16.87 o
4 1 8 147.45 145.67 5.73 o
4 2 0 130.03 127.92 3.34 o
4 2 2 306.42 293.02 8.29 o
4 2 3 113.54 108.86 3.46 o
4 2 4 59.79 57.26 2.05 o
4 2 5 32.47 29.60 1.10 o
4 2 6 18.67 18.77 0.85 o
4 2 7 9.89 10.41 0.82 o
4 2 8 12.89 13.56 1.01 o
4 3 0 273.39 266.26 6.70 o
4 3 1 111.27 104.78 2.66 o
4 3 2 92.38 91.11 2.50 o
4 3 3 3.55 3.76 0.30 o
4 3 4 94.80 92.29 2.70 o
4 3 5 32.03 29.64 0.94 o
4 3 6 191.04 183.10 5.04 o
4 3 7 30.99 30.20 1.17 o
4 3 8 165.38 162.15 5.39 o
4 4 0 4.63 4.54 0.31 o
4 4 1 231.40 225.30 5.71 o
4 4 3 339.15 327.76 9.33 o
4 4 4 50.68 49.80 1.57 o
4 4 5 329.51 317.08 8.52 o
4 4 6 7.38 8.29 0.57 o
4 4 7 193.70 185.62 5.42 o
4 4 9 185.65 178.77 5.96 o
4 5 0 1146.92 1117.03 32.76 o
4 5 1 3.00 2.92 0.27 o
4 5 2 212.00 205.32 5.17 o
4 5 3 6.77 6.53 0.39 o
4 5 4 262.92 254.08 7.04 o
4 5 5 74.13 73.86 2.08 o
4 5 6 267.41 258.47 7.91 o
4 5 7 9.26 9.14 0.67 o
4 5 8 41.25 40.29 1.63 o
4 6 0 465.73 453.45 11.98 o
4 6 1 141.06 136.89 3.75 o
4 6 2 195.59 192.58 4.96 o
4 6 3 303.01 287.84 7.41 o
4 6 4 295.09 287.97 7.56 o
4 6 6 66.72 65.78 2.09 o
4 6 8 3.57 3.71 0.59 o
4 6 13 1.69 1.51 0.45 o
4 7 0 48.10 46.18 1.39 o
4 7 1 215.33 213.51 5.41 o
4 7 3 39.29 39.06 1.18 o
4 7 4 57.59 57.77 1.74 o
4 7 5 432.72 414.43 12.24 o
4 7 6 58.84 55.52 1.87 o
4 7 7 105.67 101.45 3.37 o
4 7 10 3.65 3.54 0.40 o
4 7 12 34.10 33.97 1.24 o
4 7 13 15.95 15.96 0.78 o
4 8 0 230.26 225.65 5.77 o
4 8 1 72.38 70.13 1.93 o
4 8 2 242.13 240.14 6.21 o
4 8 3 20.45 19.81 0.74 o
4 8 4 261.07 251.30 6.87 o
4 8 5 38.78 37.09 1.44 o
4 8 7 18.10 17.13 1.03 o
4 8 10 273.24 280.37 17.28 o
4 8 14 66.09 67.58 2.42 o
4 9 0 71.58 70.47 1.92 o
4 9 1 430.93 417.27 11.16 o
4 9 2 7.29 6.79 0.47 o
4 9 3 12.98 13.49 0.62 o
4 9 5 152.93 149.96 4.75 o
4 9 7 109.04 103.68 3.33 o
4 9 10 120.18 115.47 6.09 o
4 9 11 44.20 43.29 1.75 o
4 9 14 31.38 33.23 1.43 o
4 10 0 102.87 102.38 2.87 o
4 10 1 45.39 44.26 1.36 o
4 10 2 83.73 81.63 2.28 o
4 10 3 3.88 3.80 0.39 o
4 10 4 166.47 161.63 4.65 o
4 10 5 21.89 21.21 1.07 o
4 10 6 21.95 21.47 1.06 o
4 10 7 19.69 18.56 0.98 o
4 10 8 173.84 165.62 10.15 o
4 10 9 121.26 121.26 6.58 o
4 11 0 126.67 126.11 3.46 o
4 11 1 108.72 106.68 2.96 o
4 11 2 57.77 58.25 1.73 o
4 11 3 81.30 80.56 2.34 o
4 11 4 7.31 8.12 0.72 o
4 11 5 41.61 37.90 1.84 o
4 11 6 320.81 311.68 12.33 o
4 11 7 150.84 143.39 4.63 o
4 11 8 121.33 113.20 3.85 o
4 11 9 93.57 93.60 3.76 o
4 11 10 173.63 167.00 6.23 o
4 11 11 1.97 1.83 0.40 o
4 11 12 15.14 14.22 0.79 o
4 12 0 38.99 38.16 1.28 o
4 12 1 0.64 0.93 0.30 o
4 12 2 16.61 16.82 0.74 o
4 12 3 587.72 556.12 17.81 o
4 12 4 16.00 15.06 0.94 o
4 12 5 198.81 189.48 6.55 o
4 12 6 81.40 78.87 3.47 o
4 12 7 326.44 307.01 16.20 o
4 12 8 26.59 26.51 1.23 o
4 12 9 49.08 48.70 1.77 o
4 12 10 47.72 47.08 2.29 o
4 12 11 26.08 25.22 1.03 o
4 12 12 8.45 8.48 0.57 o
4 13 0 253.24 250.51 7.26 o
4 13 1 5.53 5.31 0.48 o
4 13 2 71.05 70.09 2.10 o
4 13 3 48.99 46.40 1.85 o
4 13 4 90.78 88.67 3.22 o
4 13 6 50.42 46.85 2.20 o
4 13 7 46.11 45.61 1.64 o
4 13 8 74.18 72.57 3.23 o
4 13 9 52.89 53.29 1.94 o
4 13 10 5.04 4.84 0.42 o
4 13 11 1.90 1.91 0.38 o
4 13 12 82.58 81.64 2.57 o
4 13 13 14.16 13.92 0.85 o
4 14 1 44.65 45.31 1.77 o
4 14 2 7.10 8.05 0.65 o
4 14 3 168.36 163.25 6.25 o
4 14 5 1.95 2.74 0.54 o
4 14 6 117.78 115.23 5.07 o
4 14 7 15.08 14.48 0.82 o
4 14 8 90.52 89.47 4.68 o
4 14 9 42.97 42.19 2.40 o
4 14 10 9.78 9.41 0.55 o
4 14 11 28.19 28.09 1.13 o
4 14 12 8.06 7.96 0.53 o
4 14 13 12.88 13.23 0.84 o
4 15 0 97.27 97.02 2.94 o
4 15 1 113.22 110.84 3.37 o
4 15 3 2.84 3.20 0.58 o
4 15 4 9.41 9.03 1.38 o
4 15 5 86.19 81.25 3.34 o
4 15 6 114.28 111.39 3.68 o
4 15 7 78.04 78.47 3.36 o
4 15 8 1.21 1.05 0.34 o
4 15 10 2.71 2.71 0.41 o
4 15 11 3.43 2.98 0.43 o
4 15 12 26.77 27.09 1.11 o
4 16 0 26.43 25.27 1.94 o
4 16 3 62.95 59.28 1.92 o
4 16 4 90.68 92.15 3.47 o
4 16 5 30.29 31.88 1.03 o
4 16 7 43.52 42.09 2.82 o
4 16 8 66.48 63.18 2.16 o
4 16 9 12.61 12.04 0.79 o
4 16 10 69.77 66.41 2.35 o
4 16 12 4.95 5.07 0.46 o
4 17 0 56.56 55.77 2.22 o
4 17 1 568.13 556.15 23.26 o
4 17 2 23.55 22.40 1.04 o
4 17 3 4.37 4.83 0.34 o
4 17 4 18.98 19.29 0.91 o
4 17 5 217.40 216.39 9.97 o
4 17 6 5.14 5.17 0.49 o
4 17 7 3.32 3.57 0.67 o
4 17 8 14.28 13.28 0.82 o
4 17 9 11.57 12.59 0.82 o
4 17 10 4.09 4.01 0.56 o
4 17 11 42.03 39.66 1.43 o
4 18 0 18.83 19.01 0.76 o
4 18 1 19.82 19.56 0.88 o
4 18 2 15.81 16.11 0.71 o
4 18 3 130.61 129.74 5.69 o
4 18 4 124.29 124.82 5.36 o
4 18 6 1.95 1.77 0.32 o
4 18 7 7.46 7.58 0.68 o
4 18 9 9.27 8.27 0.69 o
4 18 10 60.95 57.34 2.70 o
4 19 0 328.82 334.61 14.39 o
4 19 1 10.02 10.18 0.50 o
4 19 2 20.99 20.81 0.78 o
4 19 3 61.76 59.20 2.42 o
4 19 4 13.80 14.16 0.73 o
4 19 5 10.13 10.39 0.57 o
4 19 6 14.77 14.41 0.84 o
4 19 7 45.41 44.40 1.93 o
4 19 8 69.98 69.14 2.75 o
4 19 14 2.37 2.24 0.37 o
4 19 15 2.56 2.69 0.36 o
4 20 1 133.16 134.02 6.66 o
4 20 2 22.13 21.52 0.99 o
4 20 3 75.08 74.29 3.34 o
4 20 4 10.84 11.24 0.58 o
4 20 5 16.33 16.73 1.12 o
4 20 6 8.63 8.59 0.58 o
4 20 7 39.05 38.40 1.86 o
4 20 8 49.96 48.55 2.36 o
4 20 9 2.50 2.58 0.52 o
4 20 15 72.85 72.23 2.90 o
4 21 0 73.25 74.73 5.20 o
4 21 1 20.58 20.21 0.84 o
4 21 2 47.34 46.45 3.58 o
4 21 3 9.59 9.95 0.52 o
4 21 4 7.54 7.60 0.58 o
4 21 5 3.17 2.92 0.40 o
4 21 6 75.51 76.98 3.04 o
4 21 7 21.19 20.72 0.95 o
4 21 8 13.19 12.83 0.73 o
4 21 12 6.86 6.62 0.86 o
4 21 14 8.01 8.21 0.54 o
4 21 15 2.77 2.43 0.34 o
4 22 0 5.11 5.67 0.45 o
4 22 1 6.66 7.54 0.59 o
4 22 3 41.88 40.02 1.35 o
4 22 5 66.44 65.53 3.78 o
4 22 6 8.31 8.69 0.62 o
4 22 11 16.06 15.10 0.73 o
4 22 12 27.89 27.20 1.03 o
4 22 13 4.63 4.92 0.47 o
4 22 14 4.67 5.04 0.38 o
4 23 0 1.64 1.41 0.30 o
4 23 1 42.58 42.50 2.82 o
4 23 2 55.53 55.64 3.57 o
4 23 3 13.14 12.68 0.61 o
4 23 5 135.46 124.72 3.81 o
4 23 9 9.88 9.52 0.61 o
4 23 10 1.49 1.50 0.35 o
4 23 12 10.31 10.14 0.53 o
4 23 13 4.64 4.29 0.36 o
4 24 0 11.27 12.21 0.88 o
4 24 1 11.10 11.03 0.59 o
4 24 2 33.21 34.56 2.49 o
4 24 3 22.94 24.66 1.63 o
4 24 4 45.68 43.84 1.47 o
4 24 8 57.95 52.83 3.75 o
4 24 9 3.38 3.16 0.40 o
4 24 10 0.85 1.03 0.33 o
4 24 11 29.16 28.18 1.03 o
4 24 12 8.77 8.17 0.47 o
4 24 13 5.61 5.52 0.39 o
4 25 0 45.57 47.29 2.74 o
4 25 1 47.54 47.77 4.84 o
4 25 4 57.94 55.22 2.60 o
4 25 9 1.35 1.16 0.33 o
4 25 10 3.04 3.07 0.37 o
4 25 11 18.22 18.11 1.44 o
4 25 12 4.69 5.14 0.38 o
4 26 0 41.38 41.52 3.12 o
4 26 1 2.81 2.90 0.47 o
4 26 4 21.57 21.60 1.31 o
4 26 10 5.43 5.29 0.45 o
4 26 11 1.97 1.85 0.29 o
4 27 0 36.70 37.41 3.05 o
4 27 1 17.20 16.26 1.45 o
4 28 0 4.91 5.07 0.98 o
5 0 0 211.86 203.66 6.34 o
5 0 2 2.09 1.72 0.48 o
5 0 4 128.85 122.56 7.97 o
5 0 6 357.50 334.58 17.12 o
5 1 0 1.60 1.06 0.29 o
5 1 1 167.68 160.50 4.60 o
5 1 2 12.04 12.06 0.74 o
5 1 3 127.18 121.22 3.95 o
5 1 4 282.17 268.46 9.26 o
5 1 5 18.02 17.52 0.98 o
5 1 6 4.73 5.48 0.53 o
5 1 7 33.40 32.37 1.38 o
5 1 19 2.70 2.71 0.32 o
5 2 0 248.45 237.54 6.45 o
5 2 1 40.72 40.32 1.34 o
5 2 2 73.54 71.98 2.14 o
5 2 3 1.73 1.42 0.33 o
5 2 4 126.85 122.44 3.54 o
5 2 5 55.57 53.19 1.80 o
5 2 6 26.61 25.90 1.04 o
5 2 7 28.94 28.23 2.06 o
5 2 18 15.59 16.06 0.76 o
5 2 19 19.08 18.93 0.71 o
5 3 0 98.62 92.76 2.68 o
5 3 1 65.01 61.82 1.95 o
5 3 2 203.25 196.91 6.02 o
5 3 3 88.79 84.75 2.92 o
5 3 4 51.26 49.84 2.20 o
5 3 5 1.33 1.49 0.36 o
5 3 6 21.42 21.67 1.02 o
5 3 9 32.20 33.88 2.75 o
5 4 2 5.43 4.83 0.45 o
5 4 3 33.16 32.88 1.29 o
5 4 5 137.98 132.88 5.39 o
5 4 6 29.12 27.48 1.52 o
5 4 9 64.21 66.52 5.84 o
5 5 0 161.64 159.68 4.50 o
5 5 1 88.81 87.96 2.59 o
5 5 2 725.12 695.15 23.17 o
5 5 3 3.00 2.52 0.38 o
5 5 4 139.42 135.11 3.94 o
5 5 8 101.23 100.75 7.32 o
5 5 18 3.40 3.05 0.47 o
5 6 0 63.99 62.86 1.83 o
5 6 1 1021.07 997.09 30.47 o
5 6 2 276.67 268.43 7.31 o
5 6 3 73.58 70.38 2.05 o
5 6 4 127.39 124.00 3.77 o
5 6 5 166.55 166.79 6.55 o
5 6 6 104.68 100.62 6.23 o
5 6 8 17.89 17.72 1.89 o
5 6 9 2.73 3.45 0.32 o
5 7 0 140.40 136.27 3.72 o
5 7 1 72.82 72.29 2.10 o
5 7 3 109.93 109.21 3.15 o
5 7 4 5.30 4.64 0.47 o
5 7 5 47.38 47.08 1.64 o
5 7 6 46.90 47.37 4.23 o
5 7 8 43.61 42.78 2.55 o
5 7 9 59.65 59.33 3.41 o
5 8 0 369.43 358.31 10.18 o
5 8 1 96.69 95.60 2.75 o
5 8 2 56.48 55.36 1.74 o
5 8 3 25.54 25.14 0.99 o
5 8 4 89.96 89.54 2.81 o
5 8 5 2.92 3.01 0.54 o
5 8 6 152.44 149.44 7.08 o
5 8 7 19.06 18.18 0.72 o
5 8 8 1.32 1.49 0.25 o
5 8 9 1.60 1.76 0.27 o
5 8 10 10.90 11.54 0.73 o
5 8 11 7.83 8.03 0.67 o
5 8 12 147.73 141.47 4.93 o
5 9 0 32.35 33.20 1.19 o
5 9 1 145.54 143.17 4.04 o
5 9 2 35.38 35.24 1.25 o
5 9 3 271.14 262.33 7.84 o
5 9 4 2.32 2.06 0.42 o
5 9 5 2.23 2.00 0.44 o
5 9 7 42.37 39.10 1.35 o
5 9 9 55.16 55.14 3.41 o
5 9 10 30.93 29.48 1.56 o
5 9 11 7.29 7.09 0.51 o
5 9 12 56.72 55.09 2.33 o
5 9 13 12.10 12.95 1.01 o
5 10 0 118.98 115.61 3.43 o
5 10 1 46.50 45.37 1.53 o
5 10 2 69.92 69.70 2.21 o
5 10 3 21.40 20.98 0.96 o
5 10 4 15.49 15.04 1.16 o
5 10 6 108.59 105.34 6.47 o
5 10 7 20.50 20.28 1.15 o
5 10 8 23.22 22.99 1.36 o
5 10 9 14.71 14.66 0.76 o
5 10 10 110.10 99.69 3.08 o
5 10 11 59.99 57.12 1.81 o
5 11 0 38.91 37.14 1.57 o
5 11 1 4.23 4.51 0.48 o
5 11 2 76.48 74.47 2.34 o
5 11 3 72.79 69.36 2.60 o
5 11 4 48.88 48.68 2.58 o
5 11 5 36.65 35.34 1.25 o
5 11 7 17.84 17.81 1.14 o
5 11 8 125.24 118.78 6.93 o
5 11 9 46.93 45.91 3.11 o
5 11 10 66.47 61.94 2.59 o
5 11 11 20.06 19.65 0.95 o
5 11 12 56.72 54.50 2.05 o
5 12 0 7.69 7.46 0.59 o
5 12 2 16.69 16.43 0.82 o
5 12 3 9.01 9.23 0.63 o
5 12 4 4.17 3.91 0.38 o
5 12 5 308.31 301.09 13.97 o
5 12 6 7.32 7.05 0.46 o
5 12 7 110.41 108.85 6.22 o
5 12 8 48.48 48.92 3.68 o
5 12 9 119.29 112.35 5.98 o
5 12 10 9.98 10.07 0.74 o
5 12 11 12.57 12.48 0.87 o
5 12 12 22.89 21.70 1.01 o
5 13 0 106.62 106.57 3.28 o
5 13 2 103.23 105.14 3.08 o
5 13 3 1.68 1.66 0.19 o
5 13 4 62.68 62.19 2.29 o
5 13 5 27.77 27.78 1.58 o
5 13 6 16.73 17.50 0.98 o
5 13 7 0.99 1.10 0.30 o
5 13 8 34.06 33.59 1.33 o
5 13 9 11.49 11.88 0.81 o
5 13 10 35.96 33.99 1.50 o
5 13 11 18.66 17.53 0.91 o
5 14 0 3.13 3.15 0.23 o
5 14 1 303.08 295.45 7.61 o
5 14 3 25.77 26.42 0.95 o
5 14 4 0.73 0.76 0.18 o
5 14 5 79.55 78.96 3.46 o
5 14 7 3.51 3.85 0.44 o
5 14 8 87.41 82.15 3.98 o
5 14 9 23.41 22.18 1.42 o
5 14 10 49.19 47.31 2.98 o
5 14 11 18.42 18.48 0.94 o
5 15 1 43.81 43.69 1.36 o
5 15 2 30.79 31.28 0.96 o
5 15 3 54.10 54.72 1.85 o
5 15 4 26.30 25.94 0.85 o
5 15 6 7.91 8.23 0.44 o
5 15 7 17.41 17.45 0.94 o
5 15 8 55.29 52.84 2.21 o
5 15 9 49.14 48.07 2.64 o
5 16 0 223.62 223.38 7.17 o
5 16 1 30.68 32.06 0.94 o
5 16 4 102.58 102.76 3.67 o
5 16 5 24.03 24.15 1.08 o
5 16 6 78.97 74.50 2.13 o
5 16 7 21.19 21.04 0.86 o
5 16 9 18.38 17.94 0.93 o
5 16 10 16.45 16.18 0.79 o
5 17 0 23.27 23.87 0.82 o
5 17 1 8.07 8.25 0.37 o
5 17 2 58.18 57.77 2.07 o
5 17 3 413.15 402.49 15.05 o
5 17 4 16.57 16.28 0.88 o
5 17 5 4.29 4.68 0.41 o
5 17 6 10.61 10.80 0.51 o
5 17 7 89.00 86.47 3.61 o
5 17 8 5.03 5.25 0.47 o
5 18 0 62.33 63.43 2.25 o
5 18 1 73.31 72.61 4.00 o
5 18 2 11.44 11.66 0.58 o
5 18 3 2.58 2.37 0.26 o
5 18 4 0.89 0.87 0.22 o
5 18 5 54.31 54.49 2.47 o
5 18 6 65.95 67.17 2.60 o
5 19 1 71.88 72.92 2.92 o
5 19 2 181.41 181.15 6.23 o
5 19 3 12.02 11.89 0.57 o
5 19 4 3.40 3.53 0.32 o
5 19 5 52.81 52.95 2.76 o
5 19 6 4.18 4.31 0.35 o
5 19 7 3.46 3.32 0.36 o
5 19 12 2.91 3.20 0.74 o
5 19 13 9.91 9.89 0.73 o
5 20 0 10.32 10.53 0.73 o
5 20 1 39.71 40.85 1.81 o
5 20 2 0.59 0.70 0.22 o
5 20 3 54.25 53.73 2.54 o
5 20 4 16.99 16.53 0.68 o
5 20 5 39.68 40.15 1.60 o
5 20 6 3.24 2.91 0.40 o
5 20 7 10.98 11.00 1.00 o
5 20 12 2.84 2.56 0.38 o
5 20 13 34.63 33.81 1.93 o
5 21 0 6.86 6.75 0.43 o
5 21 1 1.51 1.60 0.28 o
5 21 2 39.00 41.16 1.88 o
5 21 3 12.00 12.72 0.53 o
5 21 4 28.33 27.36 0.93 o
5 21 5 1.88 1.60 0.35 o
5 21 7 2.09 2.15 0.36 o
5 21 12 6.94 6.80 0.72 o
5 21 13 1.63 1.76 0.29 o
5 22 0 1.60 1.56 0.28 o
5 22 1 26.68 27.19 1.36 o
5 22 2 1.62 1.46 0.32 o
5 22 3 7.60 7.49 0.82 o
5 22 5 21.85 21.39 1.80 o
5 22 7 34.88 31.93 3.38 o
5 22 11 43.46 41.43 2.30 o
5 22 12 12.78 12.54 0.56 o
5 22 13 5.88 5.35 0.38 o
5 23 0 19.12 20.88 0.87 o
5 23 1 2.57 2.52 0.34 o
5 23 3 27.21 26.12 1.55 o
5 23 4 38.88 36.54 1.29 o
5 23 5 10.35 10.05 1.11 o
5 23 11 4.69 4.84 0.38 o
5 24 0 51.12 52.16 3.58 o
5 24 1 5.25 5.09 0.65 o
5 24 2 1.97 2.11 0.32 o
5 24 3 1.93 1.91 0.36 o
5 24 4 12.87 12.25 0.59 o
5 24 5 8.31 8.66 0.59 o
5 24 10 20.52 20.28 1.14 o
5 24 11 1.86 1.94 0.29 o
5 25 0 24.95 26.07 2.14 o
5 25 1 26.88 28.58 2.47 o
5 25 2 43.71 41.08 3.35 o
5 25 3 31.29 29.43 1.86 o
5 25 9 34.48 34.49 1.27 o
5 25 10 1.03 1.11 0.31 o
5 26 0 15.11 15.47 1.70 o
5 26 1 7.88 7.52 0.56 o
5 27 0 4.14 4.20 0.91 o
6 0 6 49.68 47.05 2.12 o
6 0 8 135.12 133.42 12.70 o
6 1 0 255.95 247.58 9.27 o
6 1 2 2.31 2.23 0.38 o
6 1 3 53.85 53.09 1.83 o
6 1 4 8.94 8.82 0.68 o
6 1 5 53.65 52.18 2.17 o
6 1 6 130.08 125.60 4.44 o
6 1 7 22.52 21.55 1.02 o
6 1 8 2.46 2.58 0.27 o
6 1 9 6.87 7.51 1.04 o
6 1 10 35.64 38.15 3.59 o
6 1 17 2.85 3.29 0.34 o
6 1 18 1.03 1.14 0.27 o
6 2 0 28.43 28.45 1.12 o
6 2 1 132.02 128.51 4.49 o
6 2 2 147.49 143.41 5.10 o
6 2 3 25.43 23.55 1.10 o
6 2 4 30.73 30.79 1.21 o
6 2 5 7.67 7.55 0.39 o
6 2 6 37.23 36.89 1.48 o
6 2 7 25.64 26.06 1.06 o
6 2 8 6.82 6.97 0.38 o
6 2 9 17.33 17.35 1.58 o
6 2 10 1.61 1.47 0.33 o
6 2 16 5.51 5.45 0.47 o
6 2 18 4.55 4.65 0.36 o
6 3 0 71.36 71.10 2.38 o
6 3 1 158.23 156.14 4.70 o
6 3 2 31.90 31.57 1.34 o
6 3 3 9.93 10.08 0.65 o
6 3 4 96.84 95.60 6.07 o
6 3 5 56.35 54.28 1.99 o
6 3 6 17.87 18.33 0.90 o
6 3 7 0.85 0.78 0.18 o
6 3 8 1.29 1.49 0.21 o
6 3 9 17.36 18.29 0.98 o
6 3 10 7.98 7.70 0.58 o
6 3 12 62.64 61.88 8.36 o
6 3 15 2.86 2.91 0.40 o
6 3 16 21.68 21.31 0.88 o
6 3 17 4.72 4.81 0.38 o
6 3 18 0.76 1.01 0.27 o
6 4 0 3.72 3.37 0.43 o
6 4 1 337.88 329.03 11.38 o
6 4 4 6.77 6.53 0.37 o
6 4 5 0.74 0.70 0.16 o
6 4 7 48.15 48.63 2.48 o
6 4 8 16.31 17.18 0.89 o
6 4 9 117.20 111.09 6.76 o
6 4 15 23.33 21.52 1.14 o
6 4 16 4.33 4.02 0.42 o
6 4 17 1.77 1.88 0.34 o
6 5 0 8.85 8.75 0.62 o
6 5 1 57.20 56.57 3.26 o
6 5 2 153.38 150.63 5.40 o
6 5 3 7.83 7.86 0.61 o
6 5 4 375.54 369.29 14.90 o
6 5 5 5.25 5.29 0.28 o
6 5 6 69.49 69.35 2.96 o
6 5 7 1.08 1.02 0.19 o
6 5 8 28.81 30.00 1.51 o
6 5 10 31.41 31.01 4.03 o
6 5 16 4.05 4.24 0.47 o
6 5 17 1.44 1.70 0.33 o
6 6 0 14.27 14.39 0.78 o
6 6 1 9.21 9.52 0.64 o
6 6 2 68.53 67.43 2.88 o
6 6 3 618.10 588.99 21.59 o
6 6 4 125.50 122.84 4.16 o
6 6 5 30.61 31.78 1.32 o
6 6 6 59.69 61.57 2.83 o
6 6 7 71.58 73.41 3.20 o
6 6 8 27.66 25.29 0.93 o
6 6 10 2.75 3.13 0.37 o
6 7 0 190.03 191.23 5.88 o
6 7 2 82.26 79.54 2.05 o
6 7 3 30.21 29.06 0.88 o
6 7 4 4.51 4.44 0.26 o
6 7 5 47.01 48.55 1.85 o
6 7 6 7.48 7.58 0.49 o
6 7 7 33.83 33.29 2.09 o
6 7 8 26.36 24.24 0.91 o
6 7 9 48.03 44.18 1.60 o
6 7 10 20.32 18.47 0.90 o
6 8 0 101.30 100.02 2.56 o
6 8 1 65.85 63.78 1.87 o
6 8 2 156.82 153.84 4.43 o
6 8 3 53.94 53.47 1.70 o
6 8 4 6.67 7.09 0.32 o
6 8 5 6.01 6.04 0.35 o
6 8 6 25.26 26.22 1.34 o
6 8 8 71.26 71.27 5.30 o
6 8 9 10.02 9.95 0.77 o
6 9 0 33.35 33.41 0.91 o
6 9 1 38.01 36.93 1.00 o
6 9 2 12.09 11.46 0.45 o
6 9 3 57.16 57.17 1.90 o
6 9 4 15.01 15.46 0.61 o
6 9 5 124.20 124.98 6.05 o
6 9 6 0.06 0.94 0.21 o
6 9 9 7.25 8.13 0.53 o
6 9 11 25.09 23.82 1.19 o
6 10 0 49.58 48.41 1.33 o
6 10 1 14.58 14.64 0.48 o
6 10 2 63.25 63.04 1.85 o
6 10 3 27.26 27.63 0.88 o
6 10 4 41.56 42.27 1.46 o
6 10 5 8.68 9.04 0.41 o
6 10 6 1.01 1.18 0.23 o
6 10 7 2.09 1.68 0.28 o
6 10 8 54.26 53.16 3.74 o
6 10 9 13.93 14.73 1.13 o
6 10 10 15.34 15.07 1.02 o
6 11 0 12.97 12.69 0.45 o
6 11 1 51.85 51.13 1.32 o
6 11 2 8.37 8.67 0.35 o
6 11 3 0.84 0.86 0.15 o
6 11 4 33.14 33.36 1.11 o
6 11 5 36.81 37.31 1.51 o
6 11 6 31.86 32.51 1.71 o
6 11 7 13.78 13.75 0.65 o
6 11 9 5.24 5.62 0.45 o
6 11 10 41.39 38.62 1.79 o
6 12 0 28.43 28.77 0.86 o
6 12 1 249.05 244.98 6.29 o
6 12 2 0.67 0.67 0.16 o
6 12 4 4.22 4.23 0.26 o
6 12 5 13.28 13.99 0.80 o
6 12 6 0.79 0.99 0.22 o
6 12 7 129.81 128.25 7.66 o
6 12 8 2.52 2.75 0.30 o
6 12 9 49.39 46.73 1.47 o
6 12 10 21.26 19.94 2.13 o
6 13 0 156.31 154.68 4.04 o
6 13 1 15.10 15.41 0.51 o
6 13 2 34.47 34.96 1.11 o
6 13 3 0.81 0.96 0.18 o
6 13 4 31.51 30.97 1.36 o
6 13 6 41.94 42.71 2.19 o
6 13 7 13.48 13.03 0.93 o
6 13 8 1.36 1.44 0.27 o
6 13 10 17.57 18.32 1.39 o
6 14 0 72.20 71.41 1.82 o
6 14 1 17.21 17.97 0.57 o
6 14 2 1.92 1.81 0.20 o
6 14 3 188.24 185.36 5.59 o
6 14 5 11.47 12.03 0.66 o
6 14 7 26.79 26.02 1.19 o
6 14 9 2.12 1.97 0.37 o
6 14 10 50.39 48.85 5.63 o
6 15 0 40.54 41.14 1.13 o
6 15 1 4.25 4.39 0.27 o
6 15 3 32.79 33.56 1.05 o
6 15 4 7.06 7.59 0.40 o
6 15 5 16.60 16.51 0.64 o
6 15 6 19.71 21.52 0.95 o
6 15 8 3.30 3.37 0.49 o
6 15 10 19.72 19.75 1.57 o
6 16 0 4.30 4.34 0.29 o
6 16 1 6.19 6.15 0.31 o
6 16 2 86.19 84.95 2.25 o
6 16 3 22.99 22.95 0.81 o
6 16 4 5.75 6.01 0.37 o
6 16 6 39.67 40.97 1.80 o
6 16 7 6.32 6.04 0.50 o
6 16 8 51.08 48.83 4.56 o
6 16 9 11.25 10.91 1.00 o
6 16 10 1.01 1.08 0.34 o
6 17 0 34.11 35.27 1.00 o
6 17 1 127.62 127.16 3.77 o
6 17 2 19.27 19.85 0.68 o
6 17 3 1.79 2.11 0.25 o
6 17 4 40.88 40.86 1.23 o
6 17 5 230.21 224.74 7.98 o
6 17 6 9.93 9.99 0.95 o
6 17 7 2.45 2.32 0.38 o
6 17 8 3.69 4.00 0.70 o
6 17 9 30.53 30.18 2.46 o
6 18 0 52.63 54.39 1.80 o
6 18 1 13.12 13.33 0.51 o
6 18 2 36.80 37.41 1.11 o
6 18 3 57.30 57.28 1.64 o
6 18 4 5.23 5.59 0.40 o
6 18 7 15.29 14.95 1.01 o
6 18 8 27.97 28.47 3.24 o
6 19 1 1.75 1.61 0.28 o
6 19 2 4.95 4.76 0.34 o
6 19 3 26.81 26.68 1.20 o
6 19 4 81.81 81.69 3.93 o
6 19 5 9.66 9.23 0.70 o
6 19 7 33.15 32.15 2.88 o
6 19 8 1.50 1.64 0.36 o
6 20 1 45.52 45.71 2.02 o
6 20 2 7.24 6.86 0.47 o
6 20 3 23.04 23.61 1.81 o
6 20 4 0.96 1.04 0.32 o
6 20 5 17.23 18.23 0.89 o
6 20 6 8.33 8.32 0.70 o
6 20 7 15.72 15.74 1.44 o
6 20 9 6.03 5.64 0.48 o
6 21 0 25.20 26.44 1.48 o
6 21 1 0.70 0.83 0.25 o
6 21 2 1.17 1.31 0.26 o
6 21 3 0.89 2.07 0.28 o
6 21 4 17.77 18.34 1.05 o
6 21 5 6.89 7.03 0.53 o
6 21 6 12.83 13.00 1.33 o
6 22 0 12.86 13.48 0.59 o
6 22 1 17.47 18.50 1.12 o
6 22 3 19.05 19.48 0.95 o
6 22 5 6.55 6.69 0.59 o
6 23 0 61.40 63.07 3.09 o
6 23 2 10.96 10.34 0.74 o
6 23 3 3.27 3.00 0.56 o
6 23 5 12.89 12.15 1.15 o
6 23 6 21.97 21.90 1.09 o
6 24 0 8.41 8.67 0.77 o
6 24 1 35.64 36.85 2.61 o
6 24 2 24.57 24.20 1.53 o
6 24 3 3.65 3.33 0.39 o
6 25 0 4.01 3.85 0.36 o
6 25 1 2.53 2.40 0.35 o
6 25 2 19.49 19.10 1.52 o
6 25 3 7.61 7.76 0.77 o
7 0 0 6.56 8.20 0.50 o
7 0 2 21.54 21.81 0.79 o
7 0 4 53.69 52.91 2.33 o
7 0 6 11.93 11.54 0.59 o
7 0 8 14.55 14.66 1.11 o
7 1 0 23.28 22.69 0.76 o
7 1 1 124.49 120.70 3.70 o
7 1 2 157.35 153.95 4.13 o
7 1 4 1.70 1.99 0.20 o
7 1 5 13.32 13.77 0.47 o
7 1 6 5.63 5.49 0.33 o
7 1 7 18.94 18.34 0.85 o
7 1 8 52.17 51.14 3.08 o
7 1 9 14.40 14.45 1.01 o
7 1 10 1.21 1.33 0.38 o
7 1 12 11.00 11.39 1.38 o
7 2 0 46.28 44.49 1.49 o
7 2 1 2.36 2.19 0.20 o
7 2 2 2.65 2.50 0.22 o
7 2 3 35.14 33.93 1.01 o
7 2 4 73.60 73.65 2.31 o
7 2 5 12.09 11.91 0.43 o
7 2 6 9.15 9.17 0.40 o
7 2 7 9.51 9.31 0.47 o
7 2 8 7.13 7.52 0.59 o
7 2 9 10.54 11.11 0.71 o
7 2 10 1.10 1.17 0.30 o
7 2 11 7.95 8.65 1.21 o
7 2 12 3.34 3.40 0.49 o
7 2 15 6.03 5.75 0.48 o
7 2 16 2.17 2.54 0.29 o
7 3 0 95.33 93.63 2.66 o
7 3 1 8.90 8.97 0.44 o
7 3 2 48.40 47.00 1.37 o
7 3 3 58.02 56.62 1.66 o
7 3 4 12.45 12.89 0.50 o
7 3 6 31.35 31.24 1.23 o
7 3 7 29.52 30.52 1.55 o
7 3 8 4.26 4.28 0.31 o
7 3 11 9.31 9.54 1.17 o
7 3 12 1.03 1.39 0.36 o
7 4 0 1.56 1.51 0.19 o
7 4 1 6.43 6.80 0.33 o
7 4 2 2.97 2.66 0.21 o
7 4 3 147.25 147.05 4.31 o
7 4 6 6.17 6.53 0.35 o
7 4 9 14.64 15.30 0.97 o
7 4 10 7.42 7.26 1.12 o
7 4 12 3.60 3.56 0.66 o
7 5 0 15.45 15.95 0.53 o
7 5 1 15.78 15.58 0.51 o
7 5 2 7.59 7.36 0.35 o
7 5 3 11.02 10.96 0.50 o
7 5 4 108.05 105.61 3.59 o
7 5 5 1.24 1.26 0.18 o
7 5 6 164.47 167.02 6.95 o
7 5 7 6.31 6.76 0.41 o
7 5 8 27.24 26.55 1.56 o
7 5 9 1.40 1.32 0.38 o
7 5 10 7.26 7.86 0.69 o
7 5 12 8.49 8.29 1.19 o
7 6 0 2.71 2.60 0.21 o
7 6 1 3.36 3.33 0.23 o
7 6 2 21.92 20.96 0.81 o
7 6 3 15.74 15.01 0.50 o
7 6 4 51.80 52.44 1.73 o
7 6 5 301.35 299.62 11.50 o
7 6 6 43.49 44.63 1.90 o
7 6 7 9.61 10.60 0.68 o
7 6 8 21.40 22.30 1.54 o
7 6 9 25.33 23.63 0.94 o
7 6 10 5.65 5.68 0.74 o
7 7 0 74.78 75.06 2.09 o
7 7 1 63.73 62.94 1.92 o
7 7 2 78.69 78.10 2.54 o
7 7 3 1.56 1.45 0.19 o
7 7 4 34.83 36.01 1.06 o
7 7 5 10.96 11.56 0.44 o
7 7 6 8.29 8.47 0.51 o
7 7 7 17.48 18.47 1.12 o
7 7 8 5.69 6.17 0.95 o
7 7 9 15.93 15.36 1.47 o
7 7 10 10.54 10.13 0.75 o
7 7 11 11.78 11.94 0.88 o
7 8 0 18.98 18.20 0.59 o
7 8 2 55.55 56.65 1.64 o
7 8 3 51.26 50.27 1.79 o
7 8 4 46.21 45.94 1.56 o
7 8 5 30.28 30.77 1.65 o
7 8 8 5.23 5.73 0.45 o
7 8 9 2.99 3.32 0.54 o
7 8 10 27.95 27.35 4.37 o
7 8 11 5.37 5.28 0.47 o
7 9 0 1.88 1.94 0.21 o
7 9 1 59.55 59.02 1.76 o
7 9 2 21.82 22.09 0.78 o
7 9 3 28.40 27.96 0.92 o
7 9 4 3.90 3.72 0.25 o
7 9 5 18.52 19.38 0.89 o
7 9 6 5.58 5.86 0.52 o
7 9 7 42.00 39.41 2.22 o
7 10 0 54.55 53.89 1.66 o
7 10 1 26.34 26.85 0.83 o
7 10 2 6.87 7.50 0.35 o
7 10 3 3.14 3.43 0.24 o
7 10 4 30.81 31.69 1.34 o
7 10 5 13.13 13.37 0.59 o
7 10 6 20.56 21.89 1.22 o
7 10 7 3.14 2.85 0.35 o
7 10 9 2.99 2.85 0.48 o
7 11 0 46.00 45.17 1.23 o
7 11 1 22.89 22.75 0.70 o
7 11 2 8.02 8.23 0.36 o
7 11 3 23.70 25.05 0.81 o
7 11 4 1.13 1.14 0.19 o
7 11 6 10.67 11.55 0.76 o
7 11 7 14.67 15.61 1.59 o
7 11 8 16.51 16.53 1.28 o
7 11 9 4.61 4.27 0.44 o
7 12 0 1.39 1.35 0.20 o
7 12 1 29.31 29.10 0.85 o
7 12 2 15.39 14.72 0.59 o
7 12 3 134.44 137.89 4.79 o
7 12 7 10.84 11.16 1.07 o
7 12 9 45.42 42.31 4.20 o
7 13 0 41.22 41.51 1.23 o
7 13 1 4.35 4.37 0.27 o
7 13 2 70.15 70.76 1.92 o
7 13 3 2.85 2.91 0.23 o
7 13 4 6.88 7.27 0.37 o
7 13 5 3.30 3.33 0.31 o
7 13 6 7.55 8.59 0.70 o
7 13 8 21.88 21.15 2.09 o
7 13 9 5.44 5.29 0.67 o
7 14 0 1.82 1.76 0.21 o
7 14 1 3.22 3.09 0.24 o
7 14 2 28.22 28.85 0.88 o
7 14 3 4.20 4.66 0.30 o
7 14 4 1.16 1.33 0.20 o
7 14 5 84.74 86.69 4.76 o
7 14 7 3.38 3.70 0.37 o
7 14 9 6.52 6.79 0.65 o
7 15 0 19.85 20.22 0.66 o
7 15 1 43.70 44.85 1.21 o
7 15 2 18.97 18.94 0.62 o
7 15 4 1.05 1.22 0.24 o
7 15 5 20.19 20.72 0.80 o
7 15 6 1.42 1.43 0.27 o
7 15 7 2.88 2.90 0.35 o
7 15 8 11.34 11.54 0.58 o
7 16 0 1.54 1.45 0.22 o
7 16 1 1.99 1.76 0.21 o
7 16 2 1.29 1.13 0.22 o
7 16 3 2.12 2.14 0.26 o
7 16 4 24.12 24.26 0.79 o
7 16 5 15.36 15.94 0.88 o
7 16 6 14.45 14.30 1.01 o
7 16 7 1.33 1.12 0.29 o
7 16 8 15.35 15.29 0.86 o
7 16 9 1.05 1.38 0.35 o
7 17 1 0.75 0.57 0.19 o
7 17 2 18.59 19.15 0.64 o
7 17 3 85.54 85.03 2.88 o
7 17 4 10.51 10.44 0.48 o
7 17 6 20.36 19.66 1.01 o
7 17 7 101.34 100.46 8.54 o
7 17 8 4.85 4.87 0.47 o
7 18 0 43.79 43.53 1.28 o
7 18 2 14.96 16.20 0.81 o
7 18 3 3.75 3.60 0.37 o
7 18 4 19.52 20.09 0.96 o
7 18 5 33.36 33.87 1.82 o
7 18 6 1.83 2.00 0.32 o
7 18 7 1.50 1.25 0.40 o
7 18 8 1.20 1.07 0.34 o
7 18 9 2.65 2.75 0.38 o
7 19 0 22.85 23.44 0.74 o
7 19 1 104.69 104.62 2.96 o
7 19 2 2.12 2.10 0.26 o
7 19 3 2.35 2.23 0.26 o
7 19 4 7.87 7.47 0.52 o
7 19 5 7.30 7.42 0.57 o
7 19 6 31.28 31.22 2.08 o
7 19 7 5.57 4.97 0.45 o
7 20 3 21.42 20.90 0.78 o
7 20 4 3.51 3.48 0.31 o
7 20 5 10.40 10.61 0.54 o
7 20 7 3.85 4.42 0.59 o
7 20 8 2.49 2.37 0.54 o
7 21 0 38.20 40.70 2.14 o
7 21 1 4.94 4.83 0.41 o
7 21 2 16.16 16.40 0.82 o
7 21 6 7.23 7.42 0.62 o
7 21 8 4.52 4.76 0.55 o
7 22 2 4.61 4.51 0.37 o
7 22 3 5.76 6.07 0.43 o
7 22 5 10.19 10.42 0.56 o
7 22 7 4.29 4.03 0.38 o
7 23 1 3.69 3.68 0.34 o
7 23 2 38.24 38.70 1.86 o
7 23 3 2.28 2.17 0.30 o
7 23 4 6.02 6.20 0.37 o
7 23 5 2.89 2.97 0.30 o
7 24 0 5.30 5.54 0.40 o
7 24 2 4.38 4.31 0.49 o
7 24 3 14.59 14.89 1.58 o
7 25 0 5.51 5.80 0.67 o
7 25 1 11.57 11.58 0.95 o
8 0 0 24.97 25.49 1.01 o
8 0 2 17.64 16.85 0.67 o
8 0 4 13.66 14.29 0.66 o
8 0 6 15.38 14.93 1.41 o
8 0 8 7.24 6.81 0.75 o
8 1 0 3.42 3.33 0.26 o
8 1 1 14.94 15.47 0.53 o
8 1 2 17.60 17.08 0.57 o
8 1 3 41.07 41.33 1.26 o
8 1 4 75.01 74.49 2.34 o
8 1 5 1.78 1.73 0.21 o
8 1 6 0.73 0.87 0.23 o
8 1 7 2.70 3.16 0.29 o
8 1 8 2.65 2.33 0.26 o
8 1 9 5.81 6.17 0.48 o
8 1 10 18.29 19.34 1.99 o
8 1 11 6.25 6.08 0.46 o
8 2 0 35.38 35.75 1.20 o
8 2 1 30.53 30.39 0.90 o
8 2 2 19.40 19.63 0.73 o
8 2 3 1.87 1.58 0.20 o
8 2 5 7.41 7.88 0.39 o
8 2 6 30.56 31.93 1.26 o
8 2 7 4.40 4.59 0.33 o
8 2 8 1.94 2.05 0.32 o
8 2 9 6.56 6.46 0.42 o
8 2 10 0.64 0.93 0.30 o
8 2 11 3.75 4.03 0.43 o
8 3 0 2.54 2.34 0.22 o
8 3 1 1.33 1.21 0.19 o
8 3 2 41.99 42.73 1.33 o
8 3 3 4.02 4.28 0.28 o
8 3 4 25.82 25.78 0.98 o
8 3 5 15.28 15.84 0.57 o
8 3 6 6.12 6.39 0.63 o
8 3 7 1.92 1.66 0.25 o
8 3 8 6.29 6.92 0.53 o
8 3 9 13.24 13.66 1.05 o
8 3 10 0.82 0.88 0.30 o
8 3 12 1.83 1.93 0.63 o
8 4 0 1.75 1.54 0.20 o
8 4 1 58.44 59.66 1.64 o
8 4 2 0.88 0.86 0.20 o
8 4 3 0.90 1.13 0.20 o
8 4 4 2.49 2.48 0.24 o
8 4 5 47.87 49.64 2.52 o
8 4 8 3.95 4.16 0.35 o
8 4 9 1.38 1.30 0.27 o
8 4 11 4.01 4.12 0.69 o
8 5 0 1.79 1.88 0.22 o
8 5 1 2.76 2.77 0.25 o
8 5 2 1.95 1.99 0.22 o
8 5 3 4.27 4.22 0.28 o
8 5 4 4.45 4.69 0.29 o
8 5 5 0.88 0.84 0.19 o
8 5 6 58.94 61.83 2.78 o
8 5 7 6.54 6.82 0.70 o
8 5 8 61.82 64.39 6.23 o
8 5 9 5.09 5.49 0.40 o
8 5 10 8.96 8.66 0.82 o
8 6 0 1.01 1.00 0.19 o
8 6 1 7.82 7.98 0.38 o
8 6 2 4.15 4.22 0.27 o
8 6 3 2.97 2.62 0.23 o
8 6 4 17.52 17.93 0.71 o
8 6 5 12.54 12.76 0.73 o
8 6 6 29.66 32.17 1.87 o
8 6 7 118.38 123.18 9.44 o
8 6 8 11.68 11.77 1.06 o
8 6 9 2.13 2.35 0.38 o
8 6 10 5.96 5.88 1.00 o
8 6 11 7.68 7.94 1.21 o
8 7 0 25.62 24.84 0.76 o
8 7 1 0.93 0.99 0.19 o
8 7 2 31.33 32.18 0.91 o
8 7 3 21.51 22.18 0.95 o
8 7 4 24.60 25.00 1.01 o
8 7 5 4.46 4.35 0.28 o
8 7 6 10.32 11.09 0.69 o
8 7 7 3.79 4.46 0.36 o
8 7 8 5.46 5.24 0.54 o
8 7 9 6.08 6.36 0.79 o
8 7 10 2.91 3.09 0.40 o
8 8 0 25.44 25.42 0.78 o
8 8 1 13.53 14.47 0.62 o
8 8 2 14.55 14.49 0.64 o
8 8 4 27.42 28.84 1.25 o
8 8 5 31.72 33.25 1.50 o
8 8 6 8.77 9.43 0.82 o
8 8 7 16.01 17.70 1.54 o
8 8 8 1.15 1.00 0.30 o
8 9 0 4.06 3.89 0.28 o
8 9 1 4.70 4.83 0.32 o
8 9 3 22.72 23.71 0.82 o
8 9 4 8.97 8.84 0.47 o
8 9 5 14.36 14.73 0.57 o
8 9 6 1.36 1.23 0.24 o
8 9 7 4.84 5.81 0.41 o
8 9 8 1.85 2.11 0.32 o
8 9 9 10.51 9.92 1.11 o
8 10 0 39.20 39.43 1.16 o
8 10 1 56.13 55.03 1.89 o
8 10 2 21.23 21.35 0.75 o
8 10 3 9.55 9.87 0.42 o
8 10 6 14.58 15.75 0.95 o
8 10 7 5.17 6.09 0.83 o
8 10 8 8.33 8.89 1.02 o
8 11 0 1.57 1.49 0.22 o
8 11 1 1.02 0.78 0.21 o
8 11 2 20.53 20.42 0.67 o
8 11 3 16.79 17.34 0.72 o
8 11 4 4.69 4.97 0.35 o
8 11 5 7.10 7.99 0.41 o
8 11 8 2.53 2.46 0.37 o
8 12 0 43.16 43.61 1.39 o
8 12 1 4.31 4.08 0.29 o
8 12 2 1.33 1.16 0.21 o
8 12 3 22.20 22.02 0.80 o
8 12 4 6.56 6.82 0.46 o
8 12 5 58.39 61.90 2.74 o
8 13 2 10.72 10.85 0.45 o
8 13 3 3.12 3.11 0.26 o
8 13 4 26.87 27.69 0.99 o
8 13 7 3.54 3.67 0.65 o
8 13 8 1.50 1.62 0.51 o
8 14 0 84.11 83.56 2.46 o
8 14 1 16.21 17.14 0.59 o
8 14 2 0.71 0.78 0.20 o
8 14 3 2.33 1.99 0.25 o
8 14 4 8.92 9.10 0.43 o
8 14 5 0.97 0.99 0.28 o
8 14 7 28.02 28.44 2.18 o
8 15 0 3.26 3.23 0.28 o
8 15 1 2.50 2.47 0.24 o
8 15 2 7.59 7.80 0.38 o
8 15 3 20.84 20.66 0.69 o
8 15 4 6.71 7.01 0.41 o
8 15 6 1.64 1.71 0.30 o
8 15 7 9.71 9.15 0.55 o
8 16 0 2.44 2.65 0.26 o
8 16 1 0.74 0.73 0.20 o
8 16 6 4.94 5.61 0.42 o
8 16 7 9.02 9.57 0.56 o
8 16 8 14.31 14.75 1.30 o
8 17 4 8.02 7.86 0.52 o
8 17 5 43.63 44.76 1.69 o
8 17 6 3.94 3.86 0.48 o
8 18 0 20.50 21.46 0.70 o
8 18 2 21.02 20.96 0.76 o
8 18 3 1.98 1.80 0.24 o
8 18 4 2.28 2.56 0.25 o
8 18 5 0.59 0.74 0.25 o
8 18 6 9.48 9.62 0.47 o
8 19 0 0.88 0.74 0.20 o
8 19 2 11.66 11.91 0.51 o
8 19 3 51.72 53.72 1.67 o
8 19 4 2.19 2.31 0.24 o
8 19 5 2.08 2.31 0.29 o
8 20 0 5.14 5.08 0.32 o
8 20 1 10.83 11.14 0.52 o
8 21 0 6.62 6.46 0.48 o
8 21 2 11.97 12.70 0.54 o
9 0 0 15.83 15.04 1.20 o
9 0 2 10.99 12.27 0.67 o
9 0 4 17.26 17.40 0.99 o
9 0 6 8.12 9.81 1.08 o
9 0 8 3.03 3.23 0.37 o
9 1 0 10.41 10.57 0.48 o
9 1 1 33.70 33.12 1.34 o
9 1 2 3.61 3.76 0.31 o
9 1 3 4.07 4.53 0.30 o
9 1 4 8.71 8.88 0.47 o
9 1 5 10.66 11.69 0.47 o
9 1 6 27.46 28.28 1.40 o
9 1 7 2.12 1.95 0.24 o
9 2 0 5.59 5.76 0.52 o
9 2 1 17.75 18.76 0.69 o
9 2 2 11.79 12.75 0.50 o
9 2 3 8.58 8.56 0.43 o
9 2 4 5.88 6.02 0.35 o
9 2 5 1.73 1.70 0.23 o
9 2 6 0.91 0.86 0.25 o
9 2 7 1.60 1.74 0.24 o
9 2 8 10.36 11.30 0.79 o
9 2 9 1.17 1.40 0.25 o
9 3 0 41.26 43.04 1.32 o
9 3 2 4.45 4.50 0.30 o
9 3 3 0.90 0.90 0.21 o
9 3 4 17.23 18.34 0.63 o
9 3 5 1.60 1.79 0.23 o
9 3 6 10.95 10.45 1.02 o
9 3 7 2.71 2.81 0.29 o
9 3 8 3.10 3.81 0.48 o
9 3 9 2.68 3.08 0.28 o
9 4 0 6.15 6.08 0.36 o
9 4 1 1.04 1.11 0.22 o
9 4 2 1.49 1.52 0.22 o
9 4 3 22.85 23.68 0.97 o
9 4 6 1.75 1.88 0.28 o
9 4 7 11.48 12.17 1.12 o
9 5 0 7.38 7.39 0.38 o
9 5 1 6.30 6.14 0.36 o
9 5 3 1.77 1.99 0.24 o
9 5 5 0.86 0.88 0.20 o
9 5 6 2.13 2.33 0.28 o
9 5 8 25.93 26.52 1.78 o
9 5 9 5.96 6.44 0.59 o
9 6 0 12.20 13.13 0.53 o
9 6 1 14.50 15.20 0.62 o
9 6 3 2.94 3.23 0.26 o
9 6 4 3.15 3.22 0.26 o
9 6 5 1.78 1.57 0.22 o
9 6 6 9.63 9.29 0.85 o
9 6 7 6.44 6.28 0.73 o
9 6 8 13.23 13.90 1.53 o
9 6 9 38.09 39.44 3.63 o
9 7 0 9.20 9.16 0.44 o
9 7 2 10.81 10.59 0.52 o
9 7 4 10.90 11.54 0.62 o
9 7 5 5.40 6.01 0.31 o
9 7 6 5.71 6.38 0.40 o
9 7 7 4.77 5.17 0.40 o
9 7 8 2.00 2.14 0.30 o
9 7 9 1.31 1.43 0.31 o
9 8 0 0.75 0.72 0.22 o
9 8 1 1.56 1.42 0.24 o
9 8 2 12.41 12.76 0.62 o
9 8 3 7.68 8.15 0.39 o
9 8 4 8.41 8.76 0.45 o
9 8 6 11.77 13.55 1.00 o
9 8 7 15.19 15.58 1.03 o
9 8 8 0.82 1.22 0.32 o
9 9 0 0.46 0.70 0.22 o
9 9 1 14.64 14.61 0.52 o
9 9 2 2.49 2.40 0.22 o
9 9 3 1.07 1.12 0.20 o
9 9 5 7.59 8.44 0.57 o
9 9 6 1.96 2.18 0.27 o
9 9 7 5.36 5.56 0.65 o
9 10 1 9.31 9.55 0.45 o
9 10 2 11.36 11.75 0.45 o
9 10 3 19.75 20.38 1.03 o
9 10 4 6.77 7.13 0.36 o
9 10 5 2.50 2.78 0.29 o
9 10 6 1.72 1.41 0.25 o
9 11 0 10.18 10.33 0.42 o
9 11 1 9.88 9.85 0.41 o
9 11 2 3.06 3.07 0.25 o
9 11 3 1.97 1.89 0.22 o
9 11 4 7.47 8.00 0.42 o
9 11 5 9.83 10.46 0.48 o
9 11 6 2.77 2.90 0.30 o
9 12 0 7.20 6.92 0.35 o
9 12 1 2.57 2.45 0.24 o
9 12 2 19.85 20.85 0.65 o
9 12 3 3.65 3.86 0.26 o
9 12 4 0.67 0.74 0.20 o
9 12 5 11.18 11.30 0.61 o
9 12 6 2.27 2.54 0.44 o
9 13 0 29.69 29.91 0.85 o
9 13 1 3.34 3.41 0.25 o
9 13 4 1.38 1.72 0.23 o
9 13 5 1.94 2.05 0.25 o
9 13 6 9.36 9.68 0.92 o
9 14 0 16.44 16.35 0.56 o
9 14 1 21.28 22.27 0.72 o
9 14 2 35.26 37.05 1.19 o
9 14 3 8.04 8.45 0.56 o
9 14 5 1.05 1.04 0.26 o
9 15 0 4.82 4.92 0.31 o
9 15 1 8.44 8.87 0.37 o
9 15 2 2.79 2.84 0.24 o
9 15 3 0.58 0.63 0.20 o
9 15 4 2.28 2.38 0.29 o
9 16 0 5.25 5.59 0.32 o
9 16 1 0.80 0.78 0.23 o
9 16 2 1.12 1.03 0.27 o
10 0 0 8.63 8.85 0.53 o
10 0 2 18.69 18.95 2.19 o
10 0 4 4.78 5.31 0.54 o
10 1 0 21.89 23.05 0.88 o
10 1 1 0.95 1.28 0.22 o
10 1 2 4.73 5.20 0.35 o
10 1 3 11.74 12.47 0.51 o
10 1 4 2.21 2.52 0.24 o
10 2 0 20.60 21.61 1.00 o
10 2 1 9.26 9.24 0.41 o
10 2 2 3.02 3.26 0.26 o
10 2 3 5.65 6.06 0.34 o
10 2 4 3.54 3.84 0.28 o
10 2 5 1.87 1.47 0.32 o
10 3 0 3.16 2.85 0.25 o
10 3 1 17.38 18.39 1.01 o
10 3 2 16.63 18.75 0.82 o
10 3 4 3.45 3.61 0.29 o
10 4 0 3.10 2.85 0.35 o
10 4 2 2.81 2.99 0.24 o
10 4 4 1.23 1.47 0.26 o
10 5 0 6.64 6.63 0.38 o
10 5 1 3.25 3.42 0.24 o
10 5 2 2.74 2.80 0.23 o
10 5 3 2.90 3.04 0.23 o
10 6 0 4.70 4.83 0.29 o
10 6 1 1.01 0.88 0.21 o
10 6 2 3.76 3.99 0.25 o
10 6 3 3.82 4.37 0.33 o
10 7 0 5.27 5.69 0.35 o
10 7 1 15.62 16.07 0.54 o
10 7 2 3.55 3.29 0.27 o
10 8 0 14.70 14.69 0.64 o
10 8 1 1.99 1.69 0.26 o
