#------------------------------------------------------------------------------
#$Date: 2016-02-18 17:37:37 +0200 (Thu, 18 Feb 2016) $
#$Revision: 176729 $
#$URL: svn://www.crystallography.net/cod/cif/1/51/21/1512199.cif $
#------------------------------------------------------------------------------
#
# This file is available in the Crystallography Open Database (COD),
# http://www.crystallography.net/
#
# All data on this site have been placed in the public domain by the
# contributors.
#
data_1512199
loop_
_publ_author_name
'Zhang, Yong-Qiang'
'Yuan, Yong-An'
'Liu, Guan-Sai'
'Xu, Hao'
_publ_section_title
;
 Iron(II)-Catalyzed Asymmetric Intramolecular Aminohydroxylation of
 Indoles.
;
_journal_issue                   15
_journal_name_full               'Organic letters'
_journal_page_first              3910
_journal_page_last               3913
_journal_paper_doi               10.1021/ol401666e
_journal_volume                  15
_journal_year                    2013
_chemical_absolute_configuration unk
_chemical_formula_moiety         'C23 H16 Cl2 N2 O6 S, C3 H6 O'
_chemical_formula_sum            'C26 H22 Cl2 N2 O7 S'
_chemical_formula_weight         577.41
_chemical_name_systematic
;
 ?
;
_space_group_crystal_system      orthorhombic
_space_group_IT_number           19
_space_group_name_Hall           'P 2ac 2ab'
_space_group_name_H-M_alt        'P 21 21 21'
_symmetry_space_group_name_Hall  'P 2ac 2ab'
_symmetry_space_group_name_H-M   'P 21 21 21'
_atom_sites_solution_hydrogens   mixed
_atom_sites_solution_primary     iterative
_audit_creation_date             2012-11-29
_audit_creation_method
;
  Olex2 1.2-beta
  (compiled Nov  5 2012 18:25:38, GUI svn.r4372)
;
_cell_angle_alpha                90
_cell_angle_beta                 90
_cell_angle_gamma                90
_cell_formula_units_Z            4
_cell_length_a                   9.6790(7)
_cell_length_b                   11.8883(8)
_cell_length_c                   22.4824(16)
_cell_measurement_reflns_used    6908
_cell_measurement_temperature    173(2)
_cell_measurement_theta_max      30.12
_cell_measurement_theta_min      2.49
_cell_volume                     2587.0(3)
_computing_cell_refinement       'SAINT v7.68A (Bruker, 2009)'
_computing_data_collection       'APEX2 v2011.2-4 (Bruker, 2011)'
_computing_data_reduction        'SAINT v7.68A (Bruker, 2009)'
_computing_molecular_graphics
;
O. V. Dolomanov, L. J. Bourhis, R. J. Gildea, J. A. K. Howard and H. Puschmann,
OLEX2: a complete structure solution, refinement and analysis program.
J. Appl. Cryst. (2009). 42, 339-341.
;
_computing_publication_material
;
O. V. Dolomanov, L. J. Bourhis, R. J. Gildea, J. A. K. Howard and H. Puschmann,
OLEX2: a complete structure solution, refinement and analysis program.
J. Appl. Cryst. (2009). 42, 339-341.
;
_computing_structure_refinement  'SHELXL-97 (Sheldrick, 2008)'
_computing_structure_solution    'SHELXS-97 (Sheldrick, 2008)'
_diffrn_ambient_temperature      173(2)
_diffrn_detector_area_resol_mean 512
_diffrn_measured_fraction_theta_full 1.000
_diffrn_measured_fraction_theta_max 0.996
_diffrn_measurement_device_type
'Bruker D8 diffractometer with APEX2 detector'
_diffrn_measurement_method       '\f and \w scans with a narrow frame width'
_diffrn_radiation_monochromator  graphite
_diffrn_radiation_type           MoK\a
_diffrn_radiation_wavelength     0.71073
_diffrn_reflns_av_R_equivalents  0.0289
_diffrn_reflns_Laue_measured_fraction_full 1.000
_diffrn_reflns_Laue_measured_fraction_max 0.996
_diffrn_reflns_limit_h_max       13
_diffrn_reflns_limit_h_min       -13
_diffrn_reflns_limit_k_max       17
_diffrn_reflns_limit_k_min       -16
_diffrn_reflns_limit_l_max       32
_diffrn_reflns_limit_l_min       -28
_diffrn_reflns_number            20608
_diffrn_reflns_point_group_measured_fraction_full 1.000
_diffrn_reflns_point_group_measured_fraction_max 0.988
_diffrn_reflns_theta_full        25.242
_diffrn_reflns_theta_max         30.579
_diffrn_reflns_theta_min         1.812
_diffrn_source                   'fine-focus sealed tube'
_diffrn_standards_number         0
_exptl_absorpt_coefficient_mu    0.382
_exptl_absorpt_correction_T_max  0.7461
_exptl_absorpt_correction_T_min  0.5825
_exptl_absorpt_correction_type   multi-scan
_exptl_absorpt_process_details
;
SADABS-2012/1 (Bruker,2012) was used for absorption correction.
wR2(int) was 0.0668 before and 0.0449 after correction.
The Ratio of minimum to maximum transmission is 0.7807.
The \l/2 correction factor is 0.0015.
;
_exptl_crystal_colour            'clear colourless'
_exptl_crystal_colour_lustre     clear
_exptl_crystal_colour_primary    colourless
_exptl_crystal_density_diffrn    1.483
_exptl_crystal_description       trapezoid
_exptl_crystal_F_000             1192
_exptl_crystal_size_max          0.698
_exptl_crystal_size_mid          0.309
_exptl_crystal_size_min          0.23
_refine_diff_density_max         0.774
_refine_diff_density_min         -0.419
_refine_diff_density_rms         0.074
_refine_ls_abs_structure_details
;
 Flack x determined using 2730 quotients [(I+)-I(-)]/[(I+)+(I-)]
 (Parsons and Flack (2004), Acta Cryst. A60, s61).
;
_refine_ls_abs_structure_Flack   0.012(18)
_refine_ls_extinction_method     none
_refine_ls_goodness_of_fit_ref   1.033
_refine_ls_hydrogen_treatment    mixed
_refine_ls_matrix_type           full
_refine_ls_number_parameters     349
_refine_ls_number_reflns         7834
_refine_ls_number_restraints     1
_refine_ls_restrained_S_all      1.033
_refine_ls_R_factor_all          0.0572
_refine_ls_R_factor_gt           0.0482
_refine_ls_shift/su_max          0.001
_refine_ls_shift/su_mean         0.000
_refine_ls_structure_factor_coef Fsqd
_refine_ls_weighting_details
;
 w=1/[\s^2^(Fo^2^)+(0.0713P)^2^+0.5565P]
 where P=(Fo^2^+2Fc^2^)/3
;
_refine_ls_weighting_scheme      calc
_refine_ls_wR_factor_gt          0.1153
_refine_ls_wR_factor_ref         0.1218
_reflns_Friedel_coverage         0.775
_reflns_Friedel_fraction_full    1.000
_reflns_Friedel_fraction_max     0.977
_reflns_number_gt                6840
_reflns_number_total             7834
_reflns_threshold_expression     'I > 2\s(I)'
_cod_data_source_file            ol401666e_si_002.cif
_cod_data_source_block           b302_0m
_cod_database_code               1512199
#BEGIN Tags that were not found in dictionaries:
_diffrn_reflns_sigmai/neti       0.0384
_olex2_refinement_description
;
1. Fixed Uiso
 At 1.2 times of:
  H1A of C1, H16 of C16, {H11A,H11B} of C11, H19 of C19, H13 of C13, H23 of
  C23, H22 of C22, H14 of C14, H15 of C15, H8 of C8, H4 of C4, H2 of C2, H21 of
  C21, H20 of C20
 At 1.5 times of:
  {H26A,H26B,H26C} of C26, {H24A,H24B,H24C} of C24
2. Restrained distances
 N1-H1
 0.99 with sigma of 0.005
3.a Ternary CH refined with riding coordinates:
 C8(H8)
3.b Secondary CH2 refined with riding coordinates:
 C11(H11A,H11B)
3.c Aromatic/amide H refined with riding coordinates:
 C2(H2), C4(H4), C1(H1A), C16(H16), C19(H19), C13(H13), C23(H23), C22(H22),
 C14(H14), C15(H15), C20(H20), C21(H21)
3.d Idealised Me refined as rotating group:
 C26(H26A,H26B,H26C), C24(H24A,H24B,H24C)
;
_shelx_hkl_checksum              28381
_shelx_hkl_file
;
   1   0   0   -0.22    0.04
  -1   0   0   -0.18    0.04
  -2   0   0  218.51    6.09
   2   0   0  214.69    6.09
  -3   0   0    0.13    0.10
   3   0   0   -0.14    0.08
   4   0   0    0.03    0.10
  -4   0   0   -0.30    0.14
  -5   0   0    0.18    0.18
   5   0   0    0.03    0.12
  -6   0   0   18.61    0.83
   6   0   0   19.67    0.75
  -7   0   0   -0.23    0.15
   7   0   0    0.00    0.11
   8   0   0   59.80    1.95
  -8   0   0   59.17    2.06
  -9   0   0   -0.03    0.22
   9   0   0   -0.19    0.20
 -10   0   0    1.22    0.41
  10   0   0    0.31    0.24
  11   0   0   -0.32    0.20
 -11   0   0    0.14    0.40
 -12   0   0    2.57    0.59
  12   0   0    3.36    0.46
 -13   0   0   -0.54    0.48
   0   1   0   -0.53    0.04
  -1   1   0  924.34   25.66
   1   1   0  943.39   25.85
   1  -1   0  906.64   25.73
  -1  -1   0  891.37   25.59
  -2  -1   0  701.54   19.63
   2  -1   0  710.56   19.83
   2   1   0  693.13   19.92
  -2   1   0  709.58   19.61
   3  -1   0    0.14    0.11
   3   1   0   -0.03    0.07
  -3   1   0    0.42    0.16
  -3  -1   0    0.07    0.10
  -4  -1   0   -0.19    0.13
   4  -1   0   -0.02    0.10
  -4   1   0    0.12    0.12
   4   1   0    0.22    0.11
   5   1   0   17.46    0.65
  -5   1   0   17.68    0.74
   5  -1   0   16.40    0.64
  -5  -1   0   16.02    0.71
   6   1   0   14.83    0.62
  -6   1   0   14.15    0.71
  -6  -1   0   14.79    0.70
   6  -1   0   14.12    0.61
  -7   1   0    2.10    0.36
   7  -1   0    2.09    0.27
   7   1   0    1.94    0.26
  -7  -1   0    2.00    0.34
   8  -1   0    1.43    0.27
   8   1   0    1.51    0.27
  -8   1   0    1.33    0.30
  -8  -1   0    1.38    0.30
  -9   1   0   16.55    0.88
  -9  -1   0   16.06    0.85
   9   1   0   16.57    0.78
   9  -1   0   16.18    0.78
  10  -1   0    2.25    0.35
  10   1   0    1.67    0.31
 -10  -1   0    1.68    0.37
 -10   1   0    2.27    0.49
 -11  -1   0   -0.28    0.25
 -11   1   0    0.47    0.43
  11   1   0   -0.15    0.21
  11  -1   0   -0.03    0.23
  12  -1   0    0.20    0.27
 -12   1   0   -0.20    0.44
 -12  -1   0    0.22    0.34
  12   1   0   -0.28    0.23
 -13  -1   0    1.28    0.46
 -13   1   0    0.77    0.56
   0   2   0  534.85   14.94
   1   2   0   82.74    2.39
  -1   2   0   82.05    2.40
  -2   2   0  734.85   19.54
   2   2   0  710.21   19.86
  -2  -2   0  676.01   19.49
   2  -2   0  689.59   19.65
   3  -2   0  300.73    8.44
   3   2   0  297.66    8.43
  -3   2   0  304.61    8.43
  -3  -2   0  291.08    8.38
  -4   2   0   37.40    1.24
  -4  -2   0   35.65    1.20
   4   2   0   36.99    1.18
   4  -2   0   36.75    1.19
   5  -2   0   56.57    1.79
  -5  -2   0   57.71    1.82
  -5   2   0   59.47    1.87
   5   2   0   54.95    1.78
  -6  -2   0   62.11    2.01
  -6   2   0   63.24    2.06
   6   2   0   62.74    1.97
   6  -2   0   62.00    1.97
  -7  -2   0   13.94    0.67
   7   2   0   13.34    0.61
  -7   2   0   11.91    0.72
   7  -2   0   13.14    0.62
  -8   2   0    6.80    0.61
   8  -2   0    4.98    0.42
   8   2   0    5.62    0.43
  -8  -2   0    6.86    0.55
  -9  -2   0   28.61    1.24
  -9   2   0   28.51    1.26
   9  -2   0   27.52    1.13
   9   2   0   29.37    1.13
 -10   2   0    2.56    0.45
 -10  -2   0    2.88    0.48
  10  -2   0    2.63    0.38
  10   2   0    3.08    0.39
 -11   2   0    2.29    0.47
  11   2   0    2.95    0.41
  11  -2   0    2.06    0.38
 -11  -2   0    2.62    0.52
 -12   2   0    3.11    0.62
  12   2   0    1.47    0.35
 -12  -2   0    3.16    0.61
  12  -2   0    1.82    0.39
  13  -2   0    5.51    0.64
 -13  -2   0    5.07    0.74
 -13   2   0    6.90    0.87
   0   3   0    0.06    0.09
  -1   3   0   13.60    0.46
   1   3   0   13.57    0.50
  -1   3   0   14.12    0.52
   2   3   0   68.39    2.04
  -2  -3   0   69.42    1.97
   2  -3   0   66.98    2.05
  -2   3   0   68.85    2.02
   3   3   0  129.93    3.78
  -3   3   0  134.26    3.79
  -3  -3   0  128.00    3.73
   3  -3   0  129.18    3.80
  -4   3   0    1.01    0.22
   4  -3   0    1.12    0.17
  -4  -3   0    1.24    0.18
   4   3   0    0.84    0.16
  -5  -3   0   32.94    1.11
   5   3   0   30.57    1.08
  -5   3   0   31.09    1.16
   5  -3   0   32.09    1.10
  -6   3   0    3.64    0.38
   6  -3   0    3.42    0.28
  -6  -3   0    3.91    0.37
   6   3   0    3.25    0.31
  -7   3   0    5.36    0.53
   7  -3   0    5.73    0.42
  -7  -3   0    5.66    0.46
   7   3   0    6.16    0.41
  -8  -3   0    2.06    0.37
   8  -3   0    1.79    0.30
   8   3   0    1.87    0.30
  -8   3   0    2.75    0.40
  -9  -3   0    3.20    0.45
   9  -3   0    3.90    0.42
   9   3   0    3.93    0.42
  -9   3   0    3.58    0.48
  10   3   0    1.99    0.35
 -10  -3   0    2.08    0.43
 -10   3   0    2.30    0.50
  10  -3   0    2.23    0.37
  11   3   0   -0.11    0.22
  11  -3   0    0.46    0.27
 -11   3   0   -0.47    0.37
 -11  -3   0   -0.15    0.32
  12  -3   0    0.56    0.32
 -12   3   0   -0.19    0.44
 -12  -3   0    0.12    0.40
 -13  -3   0    0.21    0.43
 -13   3   0   -0.13    0.39
  13  -3   0    0.31    0.34
   0   4   0    4.64    0.30
   1   4   0   19.22    0.69
  -1   4   0   18.95    0.70
  -1   4   0   19.07    0.61
  -2   4   0  327.75    9.65
  -2  -4   0  351.77    9.59
   2  -4   0  344.88    9.77
   2   4   0  355.07    9.76
  -3  -4   0  129.12    3.71
   3  -4   0  129.12    3.82
  -3   4   0  131.50    3.78
   3   4   0  129.74    3.80
  -4  -4   0  255.62    7.30
   4  -4   0  257.97    7.41
   4   4   0  258.55    7.39
  -4   4   0  260.30    7.38
   5  -4   0   17.46    0.72
   5   4   0   18.54    0.72
  -5   4   0   17.09    0.77
  -5  -4   0   16.99    0.70
  -6  -4   0   81.85    2.53
   6  -4   0   82.02    2.56
   6   4   0   81.18    2.53
  -6   4   0   82.31    2.62
   7   4   0    6.35    0.43
  -7   4   0    6.74    0.57
  -7  -4   0    6.73    0.48
   7  -4   0    6.72    0.47
   8  -4   0   19.47    0.87
  -8   4   0   18.33    0.93
  -8  -4   0   18.92    0.88
   8   4   0   20.01    0.85
   9   4   0    2.05    0.33
  -9   4   0    2.39    0.47
  -9  -4   0    2.67    0.41
   9  -4   0    3.17    0.40
  10  -4   0   10.05    0.64
 -10   4   0   10.79    0.83
  10   4   0    8.64    0.60
 -10  -4   0    8.88    0.69
 -11  -4   0   -0.08    0.33
  11   4   0    0.37    0.25
  11  -4   0    0.33    0.28
 -11   4   0    0.09    0.30
 -12  -4   0   -0.20    0.35
  12  -4   0    0.28    0.32
 -12   4   0   -0.06    0.48
 -13   4   0    0.81    0.57
 -13  -4   0    0.21    0.45
  13  -4   0    0.94    0.41
   0   5   0   -0.05    0.09
  -1   5   0   26.11    0.95
   1   5   0   27.02    0.94
  -1   5   0   26.27    0.82
   2   5   0   31.93    1.09
  -2   5   0   31.40    1.02
  -2   5   0   32.65    1.12
  -2  -5   0   31.94    0.94
  -3   5   0  339.02    9.79
   3  -5   0  343.58    9.91
  -3  -5   0  355.23    9.72
   3   5   0  353.67    9.89
  -4  -5   0   39.28    1.25
   4   5   0   40.07    1.33
   4  -5   0   38.55    1.34
  -4   5   0   39.79    1.33
   5  -5   0    0.97    0.21
  -5  -5   0    0.99    0.20
   5   5   0    0.60    0.18
  -5   5   0    1.12    0.22
   6   5   0    5.55    0.40
   6  -5   0    5.15    0.42
  -6  -5   0    5.13    0.40
  -6   5   0    4.82    0.41
  -7   5   0    0.26    0.21
   7   5   0    0.17    0.18
   7  -5   0    0.30    0.23
  -7  -5   0   -0.11    0.19
  -8   5   0   11.04    0.74
  -8  -5   0    9.71    0.61
   8   5   0   11.06    0.63
   8  -5   0   10.23    0.59
  -9   5   0    1.44    0.41
   9  -5   0    0.97    0.30
   9   5   0    1.39    0.30
  -9  -5   0    1.10    0.32
 -10  -5   0   -0.04    0.28
  10  -5   0    0.66    0.24
  10   5   0    0.54    0.27
 -10   5   0    0.51    0.39
  11   5   0    1.62    0.37
 -11  -5   0    0.43    0.36
  11  -5   0    1.23    0.36
 -11   5   0    1.10    0.40
  12  -5   0    4.87    0.60
 -12   5   0    4.70    0.75
 -12  -5   0    4.20    0.61
 -13   5   0    0.49    0.53
 -13  -5   0    0.40    0.44
  13  -5   0    0.50    0.37
   0   6   0   92.24    2.82
   1   6   0  213.50    6.32
  -1   6   0  222.98    6.13
  -1   6   0  219.72    6.34
   2   6   0    0.22    0.13
  -2   6   0    0.24    0.12
  -2   6   0    0.18    0.18
   3   6   0   10.60    0.55
  -3   6   0   12.15    0.51
   3  -6   0   11.91    0.59
  -3  -6   0   11.70    0.42
  -4   6   0   36.26    1.26
   4   6   0   37.95    1.30
   4  -6   0   36.42    1.31
  -4  -6   0   36.45    1.16
   5   6   0    0.27    0.14
  -5  -6   0    0.17    0.14
  -5   6   0   -0.07    0.19
   5  -6   0    0.03    0.14
  -6  -6   0    0.02    0.18
   6  -6   0    0.10    0.22
   6   6   0    0.13    0.19
  -6   6   0    0.03    0.22
   7   6   0    3.01    0.37
   7  -6   0    2.37    0.37
  -7   6   0    2.82    0.42
  -7  -6   0    2.87    0.33
  -8   6   0    2.36    0.43
  -8  -6   0    2.35    0.34
   8   6   0    2.30    0.35
   8  -6   0    1.88    0.32
   9   6   0   11.54    0.68
   9  -6   0   12.43    0.73
  -9   6   0   11.90    0.76
  -9  -6   0   11.73    0.69
  10   6   0    1.57    0.33
 -10   6   0    1.74    0.47
  10  -6   0    1.22    0.36
 -10  -6   0    1.54    0.36
  11  -6   0    0.17    0.28
 -11   6   0    0.54    0.37
 -11  -6   0    0.50    0.35
  12  -6   0   -0.11    0.32
 -12   6   0    0.04    0.49
   0   7   0   -0.22    0.11
   1   7   0   94.93    3.08
  -1   7   0   98.57    3.11
  -1   7   0  108.82    2.89
  -2   7   0    0.28    0.21
   2   7   0    0.06    0.17
  -2   7   0    0.20    0.11
   3  -7   0    1.11    0.26
  -3   7   0    1.02    0.18
  -3  -7   0    1.19    0.11
   3   7   0    1.14    0.21
   4   7   0    7.14    0.46
  -4  -7   0    6.43    0.31
   4  -7   0    6.16    0.47
  -5   7   0   26.36    1.03
  -5  -7   0   27.98    0.93
   5  -7   0   25.70    1.07
   5   7   0   26.82    1.06
  -6  -7   0   25.20    0.89
  -6   7   0   21.13    0.94
   6   7   0   22.85    0.97
   6  -7   0   23.30    1.00
  -7   7   0    2.48    0.39
   7   7   0    2.83    0.37
  -7  -7   0    2.58    0.33
   7  -7   0    2.27    0.34
   8  -7   0    7.23    0.58
  -8   7   0    6.27    0.62
   8   7   0    7.33    0.53
   9  -7   0    8.80    0.66
  -9   7   0    8.81    0.72
   9   7   0    8.04    0.59
 -10   7   0    0.50    0.40
  10  -7   0    0.25    0.30
  10   7   0    0.38    0.26
  11  -7   0    8.76    0.72
 -11   7   0    8.09    0.85
  12  -7   0    2.85    0.52
 -12   7   0    1.56    0.57
   0   8   0  159.88    4.79
  -1   8   0    9.30    0.34
  -1   8   0    7.49    0.53
   1   8   0    7.82    0.52
  -2   8   0    6.73    0.33
   2   8   0    6.00    0.42
  -2   8   0    6.28    0.49
  -3   8   0    3.34    0.28
   3  -8   0    2.31    0.37
   3   8   0    2.23    0.32
  -4   8   0   22.77    0.87
   4   8   0   20.81    0.93
   4  -8   0   23.03    0.98
   5  -8   0    0.48    0.27
  -5   8   0    0.08    0.21
   5   8   0    0.29    0.24
  -6   8   0    7.33    0.52
   6   8   0    6.88    0.52
   6  -8   0    8.14    0.60
  -7   8   0    6.76    0.55
   7   8   0    5.51    0.52
   7  -8   0    5.67    0.54
   8  -8   0   23.30    1.07
   8   8   0   20.91    0.99
  -8   8   0   20.86    1.04
   9  -8   0    0.48    0.32
  -9   8   0    0.46    0.34
   9   8   0    0.27    0.26
 -10   8   0    7.20    0.75
  10  -8   0    6.79    0.67
  10   8   0    5.71    0.60
  11  -8   0    3.04    0.52
 -11   8   0    3.47    0.63
 -12   8   0    0.40    0.46
  12  -8   0   -0.13    0.34
   0   9   0   -0.03    0.16
   1   9   0    1.35    0.30
  -1   9   0    1.75    0.35
  -2   9   0   31.75    1.25
   2   9   0   28.56    1.18
   3   9   0   14.56    0.75
   3  -9   0   15.18    0.78
  -4   9   0    0.26    0.19
   4  -9   0   -0.09    0.24
   4   9   0   -0.35    0.20
  -5   9   0   10.31    0.60
   5   9   0   10.63    0.65
   5  -9   0   10.09    0.69
  -6   9   0   14.95    0.73
   6  -9   0   13.71    0.78
   6   9   0   13.30    0.72
   7   9   0   12.18    0.74
   7  -9   0   13.66    0.83
  -7   9   0   13.68    0.76
   8  -9   0   26.38    1.18
  -8   9   0   24.74    1.15
   8   9   0   24.16    1.11
  -9   9   0    2.22    0.46
   9   9   0    3.07    0.45
   9  -9   0    3.51    0.53
  10  -9   0    0.25    0.33
 -10   9   0   -0.04    0.34
 -11   9   0    2.30    0.56
  11  -9   0    1.61    0.46
   0  10   0    8.51    0.62
  -1  10   0    8.27    0.63
   1  10   0    7.44    0.59
  -2  10   0   65.11    2.25
   2  10   0   62.59    2.19
   3 -10   0   -0.07    0.18
   3  10   0   -0.23    0.22
   4 -10   0    7.56    0.59
   4  10   0    9.37    0.62
   5  10   0   15.82    0.85
   5 -10   0   17.67    0.94
   6 -10   0    1.36    0.34
   6  10   0    1.56    0.36
   7 -10   0   12.94    0.84
   7  10   0   10.72    0.72
   8 -10   0   -0.22    0.31
   8  10   0   -0.12    0.28
  -8  10   0    0.15    0.28
   9 -10   0    0.38    0.37
   9  10   0   -0.19    0.27
  -9  10   0    0.04    0.31
 -10  10   0    5.43    0.67
  10 -10   0    6.07    0.70
  11 -10   0    1.33    0.47
 -11  10   0    0.74    0.43
   0  11   0   -0.07    0.20
  -1  11   0   14.61    0.88
   1  11   0   15.91    0.87
   2  11   0   -0.14    0.26
  -2  11   0   -0.05    0.22
   3  11   0    9.52    0.63
   3 -11   0   10.79    0.76
   4  11   0   -0.37    0.23
   4 -11   0   -0.06    0.21
   5  11   0   24.87    1.16
   5 -11   0   28.51    1.30
   6  11   0   -0.05    0.25
   6 -11   0    0.15    0.34
   7  11   0    0.93    0.34
   7 -11   0    2.10    0.48
   8  11   0    0.22    0.30
   8 -11   0   -0.24    0.34
   9 -11   0    0.12    0.39
   9  11   0    0.44    0.34
  10 -11   0    1.14    0.49
   0  12   0    0.85    0.37
   1  12   0    6.67    0.66
  -1  12   0    6.96    0.69
   2  12   0    1.78    0.36
  -2  12   0    1.99    0.46
   3  12   0    8.74    0.69
   3 -12   0    9.62    0.70
   4  12   0    5.75    0.60
   4 -12   0    5.86    0.64
   5 -12   0   -0.53    0.28
   5  12   0    0.17    0.22
   6 -12   0    1.06    0.43
   6  12   0    1.08    0.36
   7  12   0    0.32    0.32
   7 -12   0    1.46    0.46
   8 -12   0    6.58    0.77
   8  12   0    5.21    0.61
   9 -12   0    2.29    0.57
   0  13   0    0.00    0.25
  -1  13   0   12.07    0.88
   1  13   0   11.73    0.84
  -2  13   0    7.79    0.80
   2  13   0    8.81    0.73
   3 -13   0    4.46    0.64
   3  13   0    3.72    0.55
   4  13   0    1.24    0.41
   4 -13   0    2.03    0.50
   5 -13   0    0.80    0.43
   5  13   0   -0.30    0.28
   6 -13   0   -0.36    0.36
   6  13   0    0.29    0.34
   7  13   0    1.57    0.43
   7 -13   0    2.87    0.53
   8  13   0   12.81    0.92
   8 -13   0   17.11    1.14
   0  14   0    1.36    0.45
   1  14   0    3.06    0.56
  -1  14   0    3.44    0.56
   2  14   0    8.84    0.83
   3  14   0    0.31    0.37
   3 -14   0    0.75    0.44
   4 -14   0    9.58    0.81
   4  14   0    9.52    0.74
   5  14   0    0.06    0.37
   5 -14   0   -0.68    0.36
   6 -14   0   15.76    1.14
   6  14   0   15.60    1.01
   7  14   0   10.36    0.85
   7 -14   0   11.76    0.94
   0  15   0   -0.75    0.34
  -1  15   0    0.94    0.48
   1  15   0    0.03    0.41
   2  15   0    0.40    0.43
   2 -15   0    0.14    0.39
   3  15   0    0.09    0.38
   3 -15   0    0.69    0.45
   4 -15   0    6.11    0.80
   4  15   0    5.58    0.72
   5  15   0    4.45    0.67
   5 -15   0    4.63    0.75
   6  15   0    1.97    0.54
   6 -15   0    3.16    0.66
   0  16   0    2.01    0.50
   1  16   0   -0.61    0.38
  -1  16   0   -0.18    0.33
   2 -16   0    2.54    0.53
   2  16   0    3.68    0.66
   3  16   0    1.11    0.48
   3 -16   0    0.71    0.50
   4 -16   0    0.23    0.45
   4  16   0   -0.22    0.40
   0  17   0   -0.58    0.38
  -1   0  -1    0.36    0.07
   1   0  -1    0.27    0.06
  -1   0   1    0.09    0.06
   2   0   1  134.46    3.80
  -2   0   1  136.99    3.82
  -2   0  -1  133.00    3.82
   2   0  -1  132.34    3.82
  -3   0  -1    9.67    0.42
   3   0   1    9.80    0.37
   3   0  -1   10.34    0.39
  -3   0   1    9.83    0.42
   4   0  -1    2.97    0.24
  -4   0  -1    3.86    0.28
  -4   0   1    3.68    0.31
   4   0   1    3.53    0.23
   5   0  -1   11.06    0.50
  -5   0  -1   11.22    0.56
  -5   0   1   11.24    0.56
   5   0   1   10.89    0.47
   6   0  -1   10.84    0.52
  -6   0   1   10.12    0.55
   6   0   1   10.87    0.50
  -6   0  -1   10.41    0.59
  -7   0   1    8.20    0.51
  -7   0  -1    6.48    0.48
   7   0   1    7.40    0.43
   7   0  -1    6.95    0.44
   8   0  -1   12.75    0.64
  -8   0  -1   11.84    0.73
   8   0   1   12.52    0.61
  -8   0   1   11.50    0.73
  -9   0   1    1.95    0.42
  -9   0  -1    2.03    0.36
   9   0   1    2.07    0.32
   9   0  -1    1.64    0.32
 -10   0   1    0.81    0.39
 -10   0  -1    0.57    0.29
  10   0  -1    0.95    0.29
  10   0   1    0.71    0.26
  11   0   1    1.27    0.32
 -11   0   1    1.22    0.47
 -11   0  -1    1.67    0.49
  11   0  -1    0.96    0.31
  12   0   1    0.11    0.25
 -12   0   1    0.05    0.33
 -12   0  -1   -0.07    0.44
  12   0  -1    0.37    0.30
 -13   0   1    1.62    0.50
  13   0  -1    1.26    0.38
 -13   0  -1    1.91    0.62
   0   1  -1   59.45    1.70
  -1   1   1   24.83    0.76
   1   1  -1   25.68    0.77
  -1  -1  -1   23.97    0.74
   1  -1   1   23.48    0.75
  -1   1  -1   23.25    0.76
   1   1   1   22.22    0.74
   1  -1  -1   23.10    0.76
  -1  -1   1   22.78    0.74
  -2  -1  -1   64.05    1.86
  -2   1   1   64.09    1.87
   2   1  -1   64.15    1.86
   2  -1   1   62.85    1.85
   2   1   1   62.83    1.84
  -2  -1   1   63.41    1.85
  -2   1  -1   62.53    1.87
   2  -1  -1   63.21    1.86
   3   1  -1  478.26   13.44
  -3  -1  -1  474.10   13.38
  -3   1   1  482.62   13.40
   3  -1   1  474.18   13.42
  -3  -1   1  476.76   13.38
  -3   1  -1  480.89   13.40
   3  -1  -1  480.75   13.44
   3   1   1  485.20   13.42
  -4   1   1   20.88    0.77
  -4  -1  -1   20.19    0.75
   4  -1   1   20.97    0.70
   4   1  -1   20.07    0.72
  -4   1  -1   20.67    0.77
  -4  -1   1   19.53    0.75
   4   1   1   19.37    0.69
   4  -1  -1   19.06    0.71
   5  -1   1  105.83    3.16
   5   1  -1  106.02    3.18
  -5   1   1  106.43    3.24
  -5  -1  -1  104.91    3.22
  -5   1  -1  108.01    3.25
   5  -1  -1  109.51    3.19
   5   1   1  107.95    3.16
  -5  -1   1  110.68    3.23
   6   1  -1   36.27    1.23
  -6   1   1   36.86    1.30
   6  -1   1   35.66    1.20
  -6  -1  -1   34.34    1.27
  -6  -1   1   35.14    1.27
   6  -1  -1   35.51    1.22
   6   1   1   36.01    1.20
  -6   1  -1   35.13    1.29
  -7  -1  -1   21.59    0.94
  -7   1   1   21.83    0.97
   7  -1   1   21.73    0.84
   7   1  -1   21.29    0.86
  -7  -1   1   19.95    0.93
   7   1   1   22.59    0.85
   7  -1  -1   21.00    0.86
  -7   1  -1   22.55    0.95
  -8   1   1    0.30    0.30
   8  -1   1    0.05    0.18
  -8  -1  -1    0.44    0.23
   8   1  -1    0.38    0.21
   8  -1  -1    0.14    0.16
  -8  -1   1    0.10    0.28
   8   1   1    0.19    0.18
  -8   1  -1    0.17    0.28
   9   1  -1    0.09    0.21
  -9  -1  -1    0.14    0.29
   9  -1   1   -0.17    0.18
  -9   1   1    0.27    0.33
   9   1   1   -0.20    0.21
  -9  -1   1   -0.10    0.29
   9  -1  -1    0.26    0.22
  -9   1  -1    0.04    0.23
 -10  -1  -1    5.76    0.60
  10   1  -1    5.55    0.52
 -10   1   1    6.16    0.67
  10  -1   1    6.30    0.52
 -10   1  -1    6.40    0.64
  10   1   1    6.18    0.48
 -10  -1   1    6.03    0.61
  10  -1  -1    6.05    0.51
 -11  -1  -1    0.52    0.33
  11   1  -1    0.32    0.26
  11  -1   1    0.10    0.23
 -11   1   1    0.36    0.40
 -11   1  -1    0.08    0.41
  11  -1  -1   -0.25    0.21
  11   1   1    0.36    0.25
 -11  -1   1    0.86    0.35
 -12  -1  -1    2.30    0.57
  12  -1   1    1.04    0.33
 -12   1   1    0.89    0.41
  12   1  -1    1.08    0.33
  12  -1  -1    1.03    0.35
 -12   1  -1    0.68    0.50
 -12  -1   1    0.35    0.45
 -13   1   1    0.62    0.43
 -13  -1  -1    0.27    0.49
  13  -1  -1    0.68    0.35
 -13  -1   1    0.33    0.50
 -13   1  -1   -0.02    0.50
   0   2  -1  146.45    4.16
   0   2   1  146.51    4.15
   1   2  -1  103.58    3.04
  -1  -2  -1  106.55    2.97
  -1  -2   1  103.18    2.97
   1  -2  -1  104.95    3.04
   1   2   1  110.02    3.02
  -1   2  -1  107.08    3.04
   2   2  -1  506.73   14.18
  -2  -2  -1  501.27   14.06
  -2   2   1  518.88   14.10
   2  -2   1  495.39   14.17
   2   2   1  506.01   14.23
  -2   2  -1  518.34   14.10
   2  -2  -1  516.08   14.19
  -2  -2   1  485.45   14.06
   3   2  -1  280.54    8.02
   3  -2   1  278.64    8.01
  -3   2   1  286.05    8.00
  -3  -2  -1  285.19    7.97
   3  -2  -1  277.65    8.02
   3   2   1  283.44    8.00
  -3   2  -1  288.32    8.00
  -3  -2   1  286.41    7.96
   4  -2   1   22.79    0.82
  -4  -2  -1   25.38    0.87
   4   2  -1   23.96    0.84
  -4   2   1   25.22    0.90
  -4  -2   1   22.53    0.84
   4  -2  -1   25.08    0.86
   4   2   1   25.15    0.82
  -4   2  -1   23.52    0.88
  -5  -2  -1   13.89    0.62
   5  -2   1   13.77    0.56
   5   2  -1   12.92    0.57
  -5   2   1   14.12    0.66
   5   2   1   13.67    0.56
  -5   2  -1   14.93    0.67
  -5  -2   1   14.30    0.60
   5  -2  -1   13.73    0.59
  -6   2   1    9.16    0.55
   6   2  -1    9.59    0.50
  -6  -2  -1    9.84    0.55
   6  -2   1    9.94    0.49
  -6   2  -1   10.68    0.61
   6  -2  -1    9.92    0.50
   6   2   1   10.90    0.49
  -6  -2   1    9.95    0.55
  -7  -2  -1    8.06    0.50
   7  -2   1    7.87    0.43
   7   2  -1    8.43    0.48
  -7   2   1    8.82    0.56
  -7   2  -1    7.64    0.58
  -7  -2   1    8.29    0.55
   7   2   1    8.06    0.45
   7  -2  -1    8.06    0.48
  -8   2   1   20.48    0.95
  -8  -2  -1   18.59    0.91
   8   2  -1   20.84    0.86
   8  -2   1   19.87    0.83
  -8  -2   1   19.00    0.89
   8  -2  -1   19.86    0.85
   8   2   1   18.49    0.81
  -8   2  -1   17.30    0.90
  -9  -2  -1    8.11    0.58
   9  -2   1    7.97    0.53
   9   2  -1    7.37    0.52
  -9   2   1    7.70    0.61
  -9   2  -1    7.45    0.69
   9  -2  -1    7.71    0.51
  -9  -2   1    7.13    0.65
   9   2   1    8.52    0.52
  10   2  -1    1.22    0.30
 -10   2   1    1.25    0.36
  10  -2   1    1.27    0.30
 -10  -2  -1    0.86    0.37
  10   2   1    0.75    0.29
  10  -2  -1    1.43    0.28
 -10  -2   1    1.71    0.42
 -10   2  -1    1.69    0.38
  11   2  -1    1.62    0.34
 -11  -2  -1    1.83    0.49
 -11   2   1    2.39    0.47
  11  -2   1    1.71    0.35
 -11  -2   1    1.41    0.45
 -11   2  -1    1.38    0.49
  11  -2  -1    1.42    0.31
  11   2   1    1.77    0.33
  12  -2   1    1.26    0.33
  12   2  -1    1.31    0.35
 -12   2   1    1.48    0.45
 -12  -2  -1    0.56    0.45
 -12  -2   1    0.80    0.47
 -12   2  -1    1.70    0.57
  12  -2  -1    0.99    0.35
 -13  -2  -1    3.41    0.57
 -13   2   1    2.97    0.67
 -13   2  -1    3.49    0.71
  13  -2  -1    3.03    0.50
 -13  -2   1    3.90    0.68
   0   3   1  187.68    5.24
   0   3  -1  180.60    5.24
   1   3  -1  284.29    7.97
  -1   3   1  275.30    7.97
  -1   3   1  289.00    7.87
  -1  -3   1  280.06    7.83
   1   3   1  287.58    7.96
  -1   3  -1  279.85    7.87
  -1   3  -1  278.58    7.97
  -2  -3  -1  274.02    7.46
   2  -3   1  259.69    7.57
   2   3  -1  269.88    7.58
  -2   3   1  269.26    7.51
  -2  -3   1  264.17    7.46
   2   3   1  268.51    7.55
   2  -3  -1  264.48    7.58
  -2   3  -1  268.70    7.51
   3  -3   1    1.26    0.18
  -3   3   1    1.05    0.18
   3   3  -1    1.04    0.17
  -3  -3  -1    0.88    0.15
   3  -3  -1    0.66    0.14
   3   3   1    0.90    0.14
  -3   3  -1    0.72    0.17
  -3  -3   1    0.51    0.12
   4   3  -1   13.89    0.60
  -4   3   1   14.30    0.63
  -4  -3  -1   15.28    0.60
   4  -3   1   16.03    0.61
   4  -3  -1   15.32    0.62
   4   3   1   15.76    0.60
  -4  -3   1   16.17    0.61
  -4   3  -1   15.94    0.66
   5  -3   1   38.93    1.30
  -5  -3  -1   38.06    1.30
   5   3  -1   39.01    1.30
  -5   3   1   38.93    1.35
   5  -3  -1   38.45    1.31
  -5  -3   1   38.59    1.29
   5   3   1   39.93    1.28
  -5   3  -1   38.91    1.37
   6   3  -1    2.96    0.31
   6  -3   1    2.55    0.27
  -6   3   1    2.52    0.33
  -6  -3  -1    2.54    0.29
   6  -3  -1    2.39    0.28
  -6   3  -1    2.49    0.36
   6   3   1    3.02    0.29
  -6  -3   1    2.83    0.32
  -7   3   1    2.17    0.37
   7  -3   1    2.34    0.29
   7   3  -1    2.54    0.29
  -7  -3  -1    1.88    0.28
  -7  -3   1    1.84    0.31
  -7   3  -1    2.24    0.38
   7  -3  -1    2.32    0.31
   7   3   1    2.36    0.28
   8   3  -1    2.61    0.31
  -8  -3  -1    2.14    0.36
   8  -3   1    2.33    0.29
  -8   3   1    2.78    0.45
   8   3   1    2.41    0.32
  -8   3  -1    2.83    0.45
  -8  -3   1    2.43    0.39
   8  -3  -1    2.20    0.33
   9  -3   1   11.66    0.67
   9   3  -1   14.90    0.73
  -9  -3  -1   13.67    0.79
  -9   3   1   13.31    0.86
   9  -3  -1   15.00    0.74
  -9   3  -1   12.87    0.80
  -9  -3   1   11.83    0.72
   9   3   1   14.74    0.70
 -10  -3  -1    0.70    0.35
  10   3  -1    0.59    0.25
  10  -3   1    0.43    0.26
 -10   3   1    0.69    0.40
 -10  -3   1    1.07    0.31
  10   3   1    0.51    0.25
 -10   3  -1    0.62    0.39
  10  -3  -1    1.15    0.31
  11  -3   1    0.34    0.26
 -11   3   1    0.05    0.41
  11   3  -1   -0.05    0.22
 -11  -3  -1   -0.10    0.33
 -11   3  -1   -0.17    0.28
  11   3   1    0.03    0.23
 -11  -3   1   -0.22    0.33
  11  -3  -1   -0.32    0.24
 -12  -3  -1    0.25    0.32
  12   3  -1    0.31    0.29
  12  -3   1    0.09    0.26
 -12   3   1    0.25    0.47
 -12  -3   1    0.41    0.41
 -12   3  -1    0.57    0.40
  12  -3  -1    0.31    0.32
 -13   3   1    2.18    0.68
 -13  -3  -1    1.37    0.52
  13  -3  -1    1.81    0.44
 -13   3  -1    2.49    0.69
 -13  -3   1    2.44    0.60
   0   4   1   17.50    0.64
   0   4  -1   16.64    0.63
  -1   4   1  104.40    3.12
   1   4  -1  106.76    3.12
  -1   4   1  107.22    3.02
   1   4   1  106.24    3.10
  -1   4  -1  106.61    3.12
  -1   4  -1  105.73    3.02
  -2   4   1   76.28    2.34
   2   4  -1   82.33    2.41
  -2  -4  -1   81.31    2.28
   2  -4  -1   76.61    2.41
  -2  -4   1   81.00    2.29
   2   4   1   82.92    2.39
  -2   4  -1   80.18    2.41
  -3   4   1   94.61    2.84
   3  -4   1   93.40    2.87
   3   4  -1   98.06    2.88
  -3  -4  -1   97.14    2.78
  -3  -4   1   94.98    2.77
   3  -4  -1   96.58    2.89
  -3   4  -1   95.99    2.84
   3   4   1   98.55    2.85
   4  -4   1   52.37    1.66
   4   4  -1   52.19    1.66
  -4   4   1   53.39    1.67
  -4  -4  -1   52.34    1.60
  -4   4  -1   50.21    1.66
  -4  -4   1   49.99    1.59
   4  -4  -1   51.25    1.67
   4   4   1   51.06    1.63
   5   4  -1   55.54    1.81
   5  -4   1   59.38    1.84
  -5  -4  -1   56.49    1.78
  -5   4   1   54.15    1.85
  -5   4  -1   57.56    1.86
   5   4   1   56.67    1.80
  -5  -4   1   55.62    1.78
   5  -4  -1   57.85    1.84
  -6   4   1    8.61    0.54
   6   4  -1    8.60    0.50
   6  -4   1    9.36    0.52
  -6  -4  -1    9.03    0.51
  -6   4  -1   10.83    0.61
   6  -4  -1    9.56    0.53
   6   4   1   10.04    0.50
  -6  -4   1   10.52    0.53
  -7  -4  -1   15.36    0.73
   7  -4   1   15.89    0.72
  -7   4   1   16.26    0.80
   7   4  -1   16.41    0.73
  -7  -4   1   15.56    0.71
   7   4   1   14.32    0.69
   7  -4  -1   15.32    0.73
  -7   4  -1   14.99    0.81
  -8   4   1    8.72    0.67
   8   4  -1    8.15    0.53
   8  -4   1    8.45    0.53
  -8  -4  -1    7.17    0.55
  -8   4  -1    8.03    0.65
   8  -4  -1    9.29    0.57
   8   4   1    7.78    0.50
  -8  -4   1    8.01    0.57
  -9  -4  -1   12.78    0.72
  -9   4   1   11.43    0.80
   9  -4   1   10.96    0.64
   9   4  -1   12.25    0.67
  -9  -4   1   11.03    0.69
   9   4   1    9.57    0.61
  -9   4  -1    9.94    0.71
   9  -4  -1   10.20    0.61
 -10   4   1   10.84    0.83
  10  -4   1    8.73    0.61
  10   4  -1    9.51    0.62
 -10  -4  -1    9.16    0.69
  10   4   1    8.66    0.58
  10  -4  -1    9.58    0.64
 -10   4  -1    9.69    0.80
 -10  -4   1    8.62    0.68
  11   4  -1    1.16    0.32
 -11  -4  -1    0.76    0.39
  11  -4   1    0.95    0.34
 -11   4   1    1.13    0.48
 -11  -4   1    0.95    0.39
 -11   4  -1    1.33    0.49
  11  -4  -1    0.91    0.34
 -12   4   1    0.75    0.40
  12   4  -1    0.40    0.30
 -12  -4  -1    0.13    0.28
  12  -4   1    0.60    0.35
  12  -4  -1    0.46    0.34
 -12   4  -1   -0.08    0.47
 -12  -4   1    0.20    0.40
 -13  -4  -1   -0.18    0.43
 -13   4   1    0.64    0.45
  13  -4  -1    0.77    0.39
 -13   4  -1    0.59    0.53
 -13  -4   1    1.40    0.54
   0   5   1   -0.10    0.09
   0   5  -1    0.11    0.11
  -1   5   1   83.31    2.38
  -1   5   1   82.15    2.52
   1   5  -1   82.50    2.51
   1   5   1   81.67    2.50
  -1   5  -1   84.34    2.38
  -1   5  -1   83.65    2.52
  -2  -5  -1   42.30    1.24
   2   5  -1   43.20    1.40
  -2   5   1   43.21    1.33
  -2  -5   1   42.73    1.25
  -2   5  -1   43.54    1.41
   2   5   1   44.72    1.40
  -2   5  -1   42.69    1.32
   2  -5  -1   40.52    1.41
  -3   5   1    3.57    0.28
   3  -5   1    4.77    0.35
  -3  -5  -1    4.25    0.24
   3   5  -1    4.72    0.31
  -3  -5   1    4.86    0.25
   3  -5  -1    4.69    0.32
  -3   5  -1    4.80    0.31
   3   5   1    5.19    0.33
  -4   5   1    0.18    0.17
   4  -5   1    0.32    0.14
  -4  -5  -1    0.25    0.12
   4   5  -1    0.32    0.16
   4  -5  -1    0.22    0.18
  -4   5  -1    0.28    0.17
  -4  -5   1    0.30    0.12
   4   5   1    0.15    0.14
  -5   5   1   18.90    0.83
   5  -5   1   20.20    0.83
  -5  -5  -1   19.72    0.75
   5   5  -1   20.64    0.82
  -5   5  -1   20.37    0.84
  -5  -5   1   19.25    0.75
   5   5   1   19.28    0.78
   5  -5  -1   19.82    0.83
  -6  -5  -1   22.68    0.90
  -6   5   1   22.62    0.97
   6  -5   1   24.14    0.96
   6   5  -1   24.58    0.93
  -6  -5   1   22.97    0.91
   6  -5  -1   24.94    0.98
   6   5   1   23.40    0.91
  -6   5  -1   22.04    0.96
  -7  -5  -1   20.41    0.87
  -7   5   1   20.06    0.98
   7   5  -1   21.27    0.90
   7  -5   1   20.74    0.91
   7  -5  -1   21.66    0.93
   7   5   1   22.43    0.89
  -7   5  -1   22.17    1.00
  -7  -5   1   20.74    0.88
  -8   5   1    5.67    0.57
   8  -5   1    5.95    0.49
   8   5  -1    6.76    0.50
  -8  -5  -1    6.70    0.51
  -8   5  -1    6.71    0.62
  -8  -5   1    7.23    0.53
   8   5   1    6.65    0.50
   8  -5  -1    6.44    0.52
  -9  -5  -1    5.17    0.52
  -9   5   1    4.63    0.59
   9   5  -1    5.02    0.50
   9  -5   1    4.97    0.49
  -9   5  -1    5.71    0.59
   9   5   1    5.42    0.46
  -9  -5   1    5.35    0.52
   9  -5  -1    5.15    0.51
  10   5  -1    2.65    0.39
 -10  -5  -1    2.92    0.44
 -10   5   1    3.46    0.57
  10  -5   1    2.43    0.40
 -10   5  -1    2.00    0.42
 -10  -5   1    2.10    0.40
  10   5   1    2.51    0.38
  10  -5  -1    2.33    0.41
  11  -5   1    2.26    0.42
 -11   5   1    2.30    0.49
  11   5  -1    3.67    0.48
 -11  -5  -1    2.14    0.45
 -11  -5   1    2.59    0.48
  11  -5  -1    2.98    0.47
 -11   5  -1    3.83    0.64
 -12   5   1    3.31    0.58
 -12  -5  -1    3.01    0.54
  12  -5   1    2.66    0.45
 -12  -5   1    3.44    0.57
 -12   5  -1    2.68    0.65
  12  -5  -1    4.11    0.56
  13  -5   1    1.79    0.45
 -13  -5  -1    1.95    0.52
 -13   5   1    1.22    0.49
 -13   5  -1    1.25    0.49
 -13  -5   1    1.93    0.51
  13  -5  -1    2.52    0.49
   0   6   1   52.02    1.70
   0   6  -1   53.22    1.71
  -1   6   1  122.58    3.39
  -1   6   1  118.57    3.58
   1   6  -1  120.18    3.57
  -1   6  -1  121.09    3.40
  -1   6  -1  116.93    3.58
   1   6   1  118.82    3.56
   2   6  -1    8.31    0.44
  -2   6   1    8.73    0.49
  -2   6   1    8.49    0.37
   2   6   1    7.59    0.44
  -2   6  -1    7.83    0.45
  -2   6  -1    7.98    0.37
  -2  -6   1    8.37    0.27
  -3   6   1   40.90    1.31
   3   6  -1   40.51    1.39
  -3  -6  -1   41.30    1.21
   3  -6   1   40.30    1.40
   3   6   1   41.54    1.37
  -3  -6   1   39.42    1.21
  -3   6  -1   39.75    1.30
   3  -6  -1   39.87    1.40
   4   6  -1   33.53    1.24
   4  -6   1   33.02    1.25
  -4  -6  -1   34.60    1.11
  -4   6   1   35.53    1.21
  -4  -6   1   35.43    1.11
   4   6   1   35.66    1.22
  -4   6  -1   35.81    1.21
   4  -6  -1   35.27    1.26
  -5  -6  -1   34.40    1.13
   5  -6   1   32.76    1.24
   5   6  -1   34.23    1.23
  -5   6   1   31.82    1.21
  -5   6  -1   32.62    1.22
   5  -6  -1   33.09    1.25
   5   6   1   35.13    1.21
  -5  -6   1   34.69    1.13
   6  -6   1   12.42    0.66
  -6  -6  -1   12.27    0.58
  -6   6   1   12.64    0.68
   6   6  -1   12.93    0.65
   6   6   1   12.46    0.62
  -6  -6   1   11.83    0.56
  -6   6  -1   11.94    0.67
   6  -6  -1   10.94    0.65
  -7   6   1   50.10    1.78
  -7  -6  -1   49.34    1.67
   7   6  -1   47.76    1.72
   7  -6   1   50.38    1.75
  -7  -6   1   51.05    1.67
  -7   6  -1   49.34    1.79
   7  -6  -1   49.39    1.76
   7   6   1   49.78    1.70
   8   6  -1    2.12    0.34
   8  -6   1    1.84    0.34
  -8  -6  -1    2.22    0.33
  -8   6   1    2.49    0.43
  -8   6  -1    2.45    0.39
  -8  -6   1    2.97    0.37
   8   6   1    2.32    0.34
   8  -6  -1    2.06    0.33
  -9  -6  -1    5.34    0.51
   9  -6   1    5.02    0.52
  -9   6   1    5.19    0.56
   9   6  -1    4.93    0.50
  -9   6  -1    4.71    0.55
  -9  -6   1    5.48    0.51
   9   6   1    5.12    0.49
   9  -6  -1    4.93    0.50
 -10   6   1    0.54    0.39
  10  -6   1    0.49    0.28
  10   6  -1    0.08    0.26
 -10  -6  -1    0.69    0.33
 -10   6  -1    0.39    0.39
  10  -6  -1    0.21    0.30
 -10  -6   1    0.40    0.29
  10   6   1   -0.24    0.20
 -11  -6  -1    4.29    0.55
  11  -6   1    4.38    0.54
 -11   6   1    3.76    0.66
  11   6  -1    3.80    0.50
 -11  -6   1    2.94    0.50
 -11   6  -1    4.91    0.71
  11  -6  -1    4.00    0.54
 -12   6   1    2.31    0.54
  12  -6   1    2.98    0.50
  12  -6  -1    2.89    0.50
 -12   6  -1    1.78    0.59
   0   7   1   38.95    1.36
   0   7  -1   39.71    1.38
  -1   7   1   32.28    0.95
  -1   7   1   30.13    1.14
   1   7  -1   28.39    1.12
  -1   7  -1   32.19    1.16
  -1   7  -1   33.02    0.97
   1   7   1   30.55    1.14
  -2   7   1   16.44    0.74
  -2   7   1   15.70    0.57
   2   7  -1   15.61    0.71
  -2   7  -1   15.09    0.71
   2   7   1   15.60    0.69
  -2   7  -1   15.74    0.58
  -3   7   1   40.75    1.34
  -3  -7  -1   42.57    1.22
   3  -7   1   39.86    1.47
   3   7  -1   40.50    1.45
  -3   7  -1   41.89    1.35
  -3  -7   1   43.29    1.23
   3   7   1   42.16    1.43
   3  -7  -1   41.29    1.47
   4  -7   1    0.65    0.23
  -4  -7  -1    0.95    0.14
   4   7  -1    0.64    0.22
  -4  -7   1    0.90    0.14
   4  -7  -1    0.77    0.22
   4   7   1    1.01    0.20
  -5  -7  -1   19.89    0.71
   5  -7   1   19.15    0.87
  -5   7   1   18.48    0.81
   5   7  -1   18.73    0.84
  -5   7  -1   18.92    0.81
  -5  -7   1   18.99    0.70
   5   7   1   18.20    0.81
   5  -7  -1   17.51    0.85
  -6  -7  -1   22.16    0.84
   6  -7   1   21.34    0.95
   6   7  -1   21.64    0.95
  -6   7   1   21.41    0.94
   6   7   1   21.12    0.91
   6  -7  -1   22.50    0.99
  -6  -7   1   22.13    0.84
  -6   7  -1   22.03    0.95
  -7   7   1    5.49    0.52
   7  -7   1    6.07    0.48
   7   7  -1    6.45    0.51
  -7  -7  -1    6.17    0.43
   7  -7  -1    6.99    0.51
   7   7   1    6.44    0.48
  -7  -7   1    6.54    0.46
  -7   7  -1    6.81    0.56
  -8   7   1    5.51    0.58
   8  -7   1    6.85    0.56
   8   7  -1    6.38    0.51
   8   7   1    6.42    0.50
   8  -7  -1    7.03    0.58
  -8   7  -1    6.07    0.61
  -9   7   1   14.78    0.90
   9   7  -1   13.78    0.77
   9  -7   1   12.49    0.77
   9   7   1   13.34    0.74
  -9   7  -1   13.62    0.88
   9  -7  -1   13.84    0.82
 -10   7   1    0.45    0.30
  10  -7   1    0.68    0.33
  10   7  -1    0.00    0.25
 -10   7  -1   -0.21    0.36
  10   7   1    0.71    0.29
  10  -7  -1    0.25    0.32
 -11   7   1    6.91    0.82
  11  -7   1    8.33    0.69
  11   7  -1    8.31    0.66
  11  -7  -1    8.04    0.74
 -11   7  -1    9.89    0.79
 -12   7   1    2.45    0.63
  12  -7   1    3.66    0.55
  12  -7  -1    2.04    0.47
 -12   7  -1    2.50    0.62
   0   8  -1   15.40    0.75
   0   8   1   15.70    0.74
  -1   8   1   32.07    1.25
   1   8  -1   32.80    1.25
  -1   8  -1   34.74    1.01
   1   8   1   31.67    1.23
  -1   8  -1   33.48    1.27
  -2   8   1   28.24    0.88
   2   8  -1   25.11    1.03
  -2   8   1   24.65    1.07
   2   8   1   26.03    1.04
  -2   8  -1   24.62    1.05
  -2   8  -1   28.78    0.90
  -3   8   1    4.45    0.31
   3   8  -1    4.62    0.44
   3  -8   1    4.44    0.44
  -3   8  -1    4.36    0.32
   3   8   1    4.26    0.41
   3  -8  -1    4.01    0.42
  -4   8   1   40.10    1.34
   4  -8   1   39.76    1.47
   4   8  -1   38.26    1.42
   4   8   1   38.84    1.41
  -4   8  -1   38.79    1.33
   4  -8  -1   38.64    1.47
   5  -8   1   27.26    1.15
   5   8  -1   28.11    1.15
   5  -8  -1   29.71    1.19
   5   8   1   27.79    1.12
  -5   8  -1   28.34    1.09
   6   8  -1    4.31    0.46
   6  -8   1    4.59    0.50
  -6   8   1    4.80    0.45
  -6   8  -1    4.85    0.46
   6  -8  -1    4.18    0.49
   6   8   1    3.91    0.42
   7   8  -1    6.11    0.52
   7  -8   1    6.38    0.51
  -7   8   1    5.92    0.56
   7  -8  -1    7.21    0.54
   7   8   1    6.53    0.51
  -7   8  -1    6.48    0.55
   8   8  -1    6.32    0.59
   8  -8   1    8.02    0.64
  -8   8   1    7.96    0.64
  -8   8  -1    8.20    0.65
   8   8   1    8.27    0.61
   8  -8  -1    8.07    0.65
   9   8  -1    5.58    0.56
  -9   8   1    5.85    0.63
   9  -8   1    5.22    0.55
   9   8   1    4.70    0.50
  -9   8  -1    5.79    0.64
   9  -8  -1    6.21    0.63
  10   8  -1    0.72    0.31
  10  -8   1    1.79    0.41
 -10   8   1    1.45    0.46
  10  -8  -1    1.58    0.42
 -10   8  -1    1.20    0.42
 -11   8   1    3.07    0.55
  11  -8   1    2.85    0.50
 -11   8  -1    3.46    0.64
  11  -8  -1    3.80    0.56
  12  -8   1    0.09    0.34
 -12   8   1    0.75    0.51
 -12   8  -1    0.04    0.45
  12  -8  -1    0.36    0.29
   0   9   1   30.03    1.21
   0   9  -1   31.25    1.23
  -1   9   1    6.10    0.46
   1   9  -1    4.58    0.45
   1   9   1    5.63    0.48
  -1   9  -1    6.29    0.52
  -2   9   1    0.39    0.27
   2   9  -1    0.60    0.21
   2   9   1    0.47    0.24
  -2   9  -1    0.20    0.26
   3   9  -1    2.53    0.37
   3  -9  -1    2.11    0.37
   3   9   1    2.99    0.35
  -4   9   1    4.51    0.38
   4   9  -1    3.96    0.45
   4  -9   1    3.12    0.40
   4  -9  -1    3.71    0.46
   4   9   1    3.61    0.41
  -4   9  -1    4.05    0.34
  -5   9   1   14.76    0.70
   5  -9   1   13.49    0.76
   5   9  -1   13.08    0.75
  -5   9  -1   14.85    0.74
   5   9   1   12.60    0.72
   5  -9  -1   15.01    0.82
   6  -9   1    1.23    0.30
  -6   9   1    1.26    0.28
   6   9  -1    0.57    0.28
  -6   9  -1    0.84    0.26
   6  -9  -1    0.93    0.28
   6   9   1    0.69    0.28
   7   9  -1    6.79    0.56
  -7   9   1    6.70    0.55
   7  -9   1    6.63    0.63
   7   9   1    6.86    0.54
  -7   9  -1    6.12    0.57
   7  -9  -1    6.29    0.63
  -8   9   1    0.68    0.33
   8   9  -1    0.80    0.31
   8  -9   1    1.58    0.39
   8  -9  -1    1.24    0.38
  -8   9  -1    0.70    0.31
   8   9   1    0.65    0.30
   9   9  -1    0.23    0.27
   9  -9   1   -0.60    0.29
  -9   9   1   -0.17    0.30
   9   9   1    0.34    0.30
  -9   9  -1    0.02    0.32
   9  -9  -1    0.57    0.29
  10   9  -1    0.18    0.31
 -10   9   1    0.72    0.41
  10  -9   1    0.79    0.38
  10  -9  -1    0.53    0.38
 -10   9  -1    0.90    0.41
 -11   9   1    2.75    0.58
  11  -9   1    3.36    0.55
  11  -9  -1    3.12    0.55
 -11   9  -1    3.15    0.59
   0  10   1   20.10    0.94
   0  10  -1   20.64    0.95
   1  10  -1   15.66    0.85
  -1  10   1   15.16    0.81
   1  10   1   15.64    0.83
  -1  10  -1   18.19    0.87
   2  10  -1   39.73    1.53
  -2  10   1   43.19    1.61
   2  10   1   38.45    1.50
  -2  10  -1   42.16    1.59
   3 -10   1    2.81    0.41
   3  10  -1    2.39    0.38
   3  10   1    2.35    0.38
   3 -10  -1    2.32    0.41
   4 -10   1    6.39    0.62
   4  10  -1    5.89    0.56
   4 -10  -1    6.10    0.61
   4  10   1    5.96    0.54
   5 -10   1    2.46    0.43
   5  10  -1    1.44    0.35
   5  10   1    2.79    0.39
   5 -10  -1    2.60    0.45
   6 -10   1    6.65    0.63
   6  10  -1    6.59    0.61
   6  10   1    7.15    0.56
   6 -10  -1    7.12    0.68
   7 -10   1    0.35    0.33
   7  10  -1    0.17    0.27
   7  10   1   -0.20    0.26
   7 -10  -1    0.12    0.31
   8  10  -1    0.70    0.31
   8 -10   1    0.70    0.32
  -8  10   1    1.05    0.35
   8 -10  -1    0.46    0.37
   8  10   1    0.82    0.31
  -8  10  -1    0.34    0.29
   9 -10   1    1.06    0.41
  -9  10   1    1.23    0.39
   9  10  -1    0.97    0.36
   9 -10  -1    1.38    0.45
  -9  10  -1    1.68    0.42
 -10  10   1   14.53    0.97
  10 -10   1   15.65    0.99
 -10  10  -1   15.11    0.97
  10 -10  -1   14.84    1.00
 -11  10   1    5.61    0.72
  11 -10   1    6.29    0.72
 -11  10  -1    5.83    0.69
  11 -10  -1    6.14    0.73
   0  11   1    0.05    0.29
   0  11  -1    0.80    0.33
   1  11  -1    5.37    0.57
  -1  11   1    4.67    0.52
  -1  11  -1    4.28    0.51
   1  11   1    5.20    0.54
  -2  11   1   11.82    0.78
   2  11  -1   10.40    0.72
  -2  11  -1   11.25    0.78
   2  11   1   11.26    0.72
   3  11  -1    3.70    0.48
   3 -11   1    3.36    0.46
   3 -11  -1    3.24    0.49
   3  11   1    3.28    0.46
   4  11  -1   -0.03    0.26
   4 -11   1    0.16    0.31
   4  11   1   -0.23    0.24
   4 -11  -1   -0.05    0.20
   5 -11   1    7.06    0.69
   5  11  -1    5.14    0.56
   5 -11  -1    5.67    0.64
   5  11   1    5.11    0.54
   6 -11   1    1.32    0.41
   6  11  -1    1.88    0.40
   6 -11  -1    1.34    0.43
   6  11   1    1.53    0.36
   7  11  -1    0.86    0.35
   7 -11   1    1.23    0.35
   7 -11  -1    1.54    0.45
   7  11   1    1.35    0.36
   8  11  -1   11.11    0.80
   8 -11   1   13.22    0.85
   8  11   1   10.77    0.79
   8 -11  -1   12.32    0.91
   9  11  -1    2.41    0.49
   9 -11   1    2.66    0.55
   9 -11  -1    2.60    0.56
  10 -11   1    0.50    0.44
  10 -11  -1    1.19    0.47
   0  12  -1    7.73    0.72
   0  12   1    7.26    0.61
  -1  12   1    6.83    0.66
   1  12  -1    7.06    0.68
   1  12   1    8.32    0.62
  -1  12  -1    7.76    0.74
  -2  12   1   10.10    0.72
   2  12  -1    9.91    0.74
   2  12   1   10.33    0.73
  -2  12  -1    9.69    0.79
   3 -12   1    0.27    0.33
   3  12  -1    0.65    0.34
   3 -12  -1    0.76    0.31
   3  12   1    1.21    0.32
   4  12  -1    4.31    0.55
   4 -12   1    4.10    0.54
   4 -12  -1    4.03    0.58
   4  12   1    4.13    0.49
   5 -12   1    2.77    0.52
   5  12  -1    2.14    0.43
   5 -12  -1    2.11    0.48
   5  12   1    2.31    0.43
   6 -12   1    0.40    0.36
   6  12  -1    0.22    0.30
   6  12   1   -0.09    0.25
   6 -12  -1   -0.29    0.34
   7 -12   1   10.43    0.93
   7  12  -1    9.62    0.75
   7 -12  -1   10.26    0.93
   7  12   1    8.93    0.74
   8 -12   1    3.38    0.62
   8  12  -1    3.07    0.52
   8  12   1    3.33    0.51
   8 -12  -1    2.67    0.53
   9  12  -1    1.96    0.50
   9 -12   1    0.49    0.42
   9 -12  -1    2.37    0.57
   0  13  -1   16.07    0.96
   0  13   1   18.69    1.05
   1  13  -1   14.38    0.94
  -1  13   1   15.32    0.91
  -1  13  -1   15.38    0.98
   1  13   1   14.47    0.88
   2  13  -1    1.11    0.35
   2 -13  -1    1.32    0.37
   2  13   1    0.96    0.40
  -2  13  -1    0.86    0.44
   3  13  -1    3.27    0.50
   3 -13   1    3.51    0.58
   3 -13  -1    4.56    0.64
   3  13   1    3.38    0.52
   4  13  -1    0.36    0.35
   4 -13   1   -0.26    0.33
   4 -13  -1   -0.11    0.36
   4  13   1    0.18    0.33
   5  13  -1    1.29    0.40
   5 -13   1    1.04    0.46
   5 -13  -1    0.73    0.43
   5  13   1    0.26    0.32
   6  13  -1    5.85    0.66
   6 -13   1    5.90    0.76
   6 -13  -1    6.94    0.76
   6  13   1    5.75    0.63
   7 -13   1    4.34    0.68
   7  13  -1    2.67    0.51
   7  13   1    2.05    0.46
   7 -13  -1    3.18    0.56
   8  13  -1    1.18    0.43
   8 -13   1    1.44    0.52
   8 -13  -1    0.22    0.47
   0  14  -1    5.41    0.70
   0  14   1    6.44    0.69
  -1  14   1    1.40    0.47
   1  14  -1    1.32    0.47
  -1  14  -1    1.84    0.44
   1  14   1    1.35    0.46
   2  14  -1    1.58    0.46
   2  14   1    1.34    0.45
   2 -14  -1    0.80    0.43
  -2  14  -1    2.26    0.53
   3 -14   1    8.11    0.87
   3  14  -1    8.14    0.81
   3  14   1    8.32    0.80
   3 -14  -1    9.92    0.92
   4  14  -1    9.46    0.87
   4 -14   1   10.03    0.82
   4  14   1    8.70    0.81
   4 -14  -1   11.19    0.86
   5 -14   1   -0.23    0.39
   5  14  -1   -0.31    0.34
   5 -14  -1   -0.15    0.45
   5  14   1    0.26    0.36
   6 -14   1    4.72    0.72
   6  14  -1    4.39    0.64
   6  14   1    2.30    0.50
   6 -14  -1    3.98    0.69
   7 -14   1    4.32    0.74
   7  14  -1    4.76    0.65
   7  14   1    4.02    0.60
   7 -14  -1    4.60    0.75
   0  15   1   -0.18    0.41
   0  15  -1    1.07    0.48
   1  15  -1    2.43    0.57
  -1  15   1    2.52    0.57
   1  15   1    1.51    0.52
  -1  15  -1    2.64    0.58
   2  15  -1    9.75    0.92
   2 -15  -1    8.22    0.84
   2  15   1    9.47    0.89
   3 -15   1    2.95    0.62
   3  15  -1    2.91    0.56
   3 -15  -1    1.69    0.53
   3  15   1    0.98    0.38
   4 -15   1    0.20    0.45
   4  15  -1    0.28    0.40
   4 -15  -1   -0.43    0.41
   4  15   1    0.31    0.38
   5 -15   1   -0.38    0.45
   5  15  -1    0.38    0.43
   5 -15  -1    0.55    0.39
   5  15   1    1.03    0.46
   6  15  -1    2.07    0.55
   6 -15   1    1.88    0.52
   6 -15  -1    1.66    0.60
   6  15   1    1.56    0.49
   0  16   1    0.16    0.32
   0  16  -1    0.08    0.33
   1  16  -1    1.35    0.53
   1 -16  -1    1.13    0.41
  -1  16  -1    1.33    0.45
   1  16   1    1.39    0.51
   2 -16   1    5.05    0.74
   2  16  -1    3.37    0.66
   2  16   1    3.69    0.65
   2 -16  -1    3.13    0.58
   3 -16   1    1.17    0.52
   3  16  -1    0.73    0.47
   3 -16  -1    0.53    0.46
   3  16   1    0.22    0.44
   4  16  -1    4.13    0.65
   4 -16   1    2.09    0.59
   4  16   1    3.01    0.60
   4 -16  -1    2.95    0.66
   0   0  -2  123.06    3.44
  -1   0  -2   56.17    1.64
  -1   0   2   58.73    1.64
   1   0  -2   55.57    1.64
   2   0   2  262.64    7.38
  -2   0   2  262.77    7.39
  -2   0  -2  263.32    7.39
   2   0  -2  265.72    7.42
   3   0  -2   72.06    2.14
  -3   0   2   71.77    2.15
  -3   0  -2   71.97    2.16
   3   0   2   72.04    2.09
   4   0  -2  188.09    5.42
   4   0   2  190.41    5.37
  -4   0   2  188.25    5.43
  -4   0  -2  188.71    5.43
  -5   0  -2    6.24    0.39
   5   0  -2    6.41    0.35
  -5   0   2    6.84    0.43
   5   0   2    6.06    0.33
   6   0  -2    4.50    0.34
  -6   0   2    4.05    0.41
   6   0   2    4.67    0.31
  -6   0  -2    5.58    0.44
  -7   0  -2    2.51    0.34
   7   0   2    2.59    0.28
  -7   0   2    2.76    0.38
   7   0  -2    2.53    0.31
   8   0   2   31.48    1.14
  -8   0  -2   32.19    1.29
  -8   0   2   30.68    1.26
   8   0  -2   30.91    1.19
  -9   0  -2   19.82    1.02
   9   0  -2   20.22    0.91
   9   0   2   20.63    0.86
  -9   0   2   19.01    1.01
 -10   0   2    2.58    0.49
  10   0   2    1.63    0.33
  10   0  -2    2.79    0.40
 -10   0  -2    2.02    0.41
 -11   0  -2    2.47    0.55
  11   0   2    2.62    0.39
  11   0  -2    2.91    0.43
 -11   0   2    2.43    0.47
 -12   0  -2    0.48    0.45
  12   0  -2   -0.16    0.28
 -12   0   2    0.12    0.43
  13   0  -2    0.79    0.35
 -13   0  -2    0.78    0.44
 -13   0   2   -0.35    0.50
   0   1  -2   57.68    1.66
  -1  -1  -2  138.72    3.90
   1   1  -2  142.18    3.94
  -1   1   2  135.90    3.90
  -1  -1   2  136.06    3.89
   1  -1  -2  140.68    3.93
  -1   1  -2  138.04    3.91
  -2   1   2   70.35    2.07
   2  -1   2   69.60    2.05
   2   1  -2   69.58    2.08
  -2  -1  -2   68.60    2.06
   2  -1  -2   72.80    2.08
  -2   1  -2   70.26    2.08
  -2  -1   2   72.09    2.06
   2   1   2   73.23    2.03
   3  -1   2  101.60    2.95
   3   1  -2  101.28    2.98
  -3   1   2  103.94    2.99
  -3  -1  -2  102.10    2.98
  -3  -1   2   98.97    2.97
   3  -1  -2  102.57    2.98
  -3   1  -2  105.42    3.00
   3   1   2  101.95    2.93
  -4  -1  -2   12.46    0.53
   4  -1   2   11.98    0.45
   4   1  -2   11.92    0.49
  -4   1   2   12.03    0.54
  -4  -1   2   11.01    0.51
   4  -1  -2   10.94    0.47
  -4   1  -2   11.00    0.51
   4   1   2   10.75    0.44
   5  -1   2   82.92    2.53
  -5   1   2   86.55    2.63
  -5  -1  -2   86.30    2.62
   5   1  -2   83.55    2.58
   5   1   2   83.65    2.53
   5  -1  -2   86.45    2.58
  -5  -1   2   87.42    2.62
  -5   1  -2   85.25    2.63
   6   1  -2   49.76    1.61
  -6  -1  -2   49.06    1.66
  -6   1   2   48.74    1.67
   6  -1   2   48.72    1.56
   6   1   2   48.65    1.56
  -6  -1   2   47.57    1.65
   6  -1  -2   49.14    1.60
  -6   1  -2   49.51    1.69
  -7  -1  -2    3.25    0.40
   7   1  -2    4.12    0.33
  -7   1   2    3.74    0.44
   7  -1   2    3.74    0.33
   7  -1  -2    3.48    0.36
   7   1   2    4.05    0.32
  -7   1  -2    3.65    0.39
  -7  -1   2    3.83    0.44
  -8  -1  -2    5.77    0.55
   8  -1   2    5.86    0.41
   8   1  -2    6.25    0.47
  -8   1   2    5.97    0.50
   8   1   2    5.61    0.40
  -8  -1   2    6.59    0.51
  -8   1  -2    5.35    0.55
   8  -1  -2    5.61    0.45
  -9   1   2    3.11    0.50
   9   1  -2    2.86    0.38
   9  -1   2    2.79    0.34
  -9  -1  -2    2.96    0.41
   9   1   2    2.66    0.33
  -9   1  -2    2.00    0.43
   9  -1  -2    2.17    0.32
  -9  -1   2    3.01    0.47
 -10  -1  -2   18.73    0.99
 -10   1   2   15.72    0.98
  10  -1   2   14.38    0.78
  10   1  -2   16.40    0.83
  10  -1  -2   16.39    0.83
 -10   1  -2   15.82    0.92
 -10  -1   2   16.76    0.96
  10   1   2   14.71    0.75
 -11   1   2    2.49    0.48
  11   1  -2    2.65    0.40
  11  -1   2    2.85    0.39
 -11  -1  -2    2.70    0.54
  11  -1  -2    2.24    0.36
 -11  -1   2    2.73    0.49
 -11   1  -2    2.41    0.56
  11   1   2    2.25    0.36
 -12  -1  -2   -0.65    0.39
 -12   1   2    0.58    0.49
  12   1  -2    0.56    0.33
  12  -1  -2    0.22    0.30
 -12   1  -2    0.83    0.40
 -12  -1   2    0.26    0.45
 -13  -1  -2    0.99    0.53
 -13   1   2    0.77    0.55
  13   1  -2    1.12    0.37
 -13   1  -2    0.67    0.41
  13  -1  -2    0.88    0.38
 -13  -1   2    1.35    0.55
   0   2  -2    0.16    0.09
   0   2   2    0.27    0.08
   0   2   2    0.26    0.06
   0   2  -2    0.28    0.06
   1   2  -2    3.02    0.18
  -1  -2  -2    3.00    0.15
  -1  -2   2    3.14    0.16
   1  -2  -2    3.42    0.21
   1   2   2    3.48    0.17
  -1   2  -2    3.38    0.18
   2  -2   2  964.14   27.05
  -2  -2  -2  948.59   26.98
  -2   2   2  930.55   27.08
   2   2  -2  992.15   27.50
   2  -2  -2  961.95   27.33
  -2  -2   2 1000.00   27.12
   2   2   2  982.02   27.37
  -2   2  -2  978.18   27.11
  -3  -2  -2  313.60    8.66
   3  -2   2  310.66    8.70
   3   2  -2  301.44    8.72
  -3   2   2  305.96    8.69
  -3  -2   2  308.15    8.65
   3   2   2  309.85    8.68
  -3   2  -2  309.16    8.69
   3  -2  -2  306.92    8.72
   4  -2   2   47.05    1.51
  -4   2   2   47.65    1.57
   4   2  -2   47.77    1.54
  -4  -2  -2   48.71    1.54
  -4   2  -2   51.95    1.59
   4   2   2   47.77    1.49
  -4  -2   2   49.83    1.55
   4  -2  -2   50.13    1.55
   5   2  -2   33.52    1.15
  -5   2   2   34.45    1.21
   5  -2   2   34.12    1.13
  -5  -2  -2   35.26    1.19
   5   2   2   33.46    1.11
  -5  -2   2   34.72    1.18
  -5   2  -2   32.49    1.22
   5  -2  -2   33.51    1.15
  -6   2   2   38.22    1.37
  -6  -2  -2   35.40    1.31
   6   2  -2   38.31    1.29
   6  -2   2   36.56    1.24
   6   2   2   37.58    1.24
  -6   2  -2   38.47    1.38
  -6  -2   2   36.24    1.30
   6  -2  -2   37.79    1.28
   7  -2   2    3.63    0.33
   7   2  -2    3.44    0.35
  -7   2   2    3.64    0.42
  -7  -2  -2    3.92    0.42
   7  -2  -2    3.32    0.35
   7   2   2    3.53    0.32
  -7   2  -2    3.25    0.42
  -7  -2   2    3.87    0.41
  -8   2   2    8.37    0.67
   8   2  -2   10.12    0.56
   8  -2   2   10.72    0.55
  -8  -2  -2   10.50    0.66
  -8   2  -2    9.61    0.69
   8  -2  -2   10.06    0.59
   8   2   2    9.66    0.53
  -8  -2   2   10.23    0.67
  -9   2   2    8.30    0.63
   9   2  -2    7.78    0.55
   9  -2   2    8.03    0.51
  -9  -2  -2    7.87    0.64
   9  -2  -2    7.62    0.56
  -9  -2   2    6.98    0.57
  -9   2  -2    8.44    0.69
   9   2   2    7.82    0.50
  10   2  -2   10.90    0.67
 -10  -2  -2   11.42    0.73
  10  -2   2   10.93    0.64
 -10   2   2   10.73    0.77
 -10   2  -2   11.10    0.77
 -10  -2   2   11.81    0.80
  10  -2  -2   11.43    0.69
  10   2   2   11.16    0.63
  11  -2   2    1.70    0.34
  11   2  -2    1.61    0.36
 -11   2   2    1.82    0.53
 -11  -2  -2    2.09    0.50
 -11  -2   2    1.96    0.49
 -11   2  -2    1.83    0.53
  11  -2  -2    2.15    0.39
 -12   2   2    3.21    0.68
  12  -2   2    3.16    0.46
 -12  -2  -2    3.25    0.54
  12   2  -2    2.79    0.46
 -12  -2   2    2.78    0.51
 -12   2  -2    3.26    0.65
  12  -2  -2    2.82    0.46
 -13  -2  -2   -0.29    0.42
  13   2  -2    0.40    0.34
 -13   2   2    0.20    0.50
 -13  -2   2    0.37    0.47
 -13   2  -2    0.73    0.45
  13  -2  -2    0.64    0.35
   0   3   2   81.41    2.27
   0   3  -2   82.47    2.38
   0   3   2   78.53    2.36
   0   3  -2   80.77    2.28
   1   3  -2  370.50   10.51
  -1  -3  -2  367.07   10.36
  -1   3   2  374.19   10.39
   1  -3  -2  370.55   10.51
  -1   3  -2  373.76   10.51
   1   3   2  376.23   10.48
  -1   3  -2  374.00   10.40
  -1  -3   2  381.09   10.37
  -2  -3  -2  254.81    7.15
   2   3  -2  258.53    7.27
  -2   3   2  252.47    7.19
  -2  -3   2  257.38    7.15
   2  -3  -2  254.80    7.27
   2   3   2  258.91    7.22
  -2   3  -2  253.25    7.26
  -2   3  -2  256.09    7.20
   3  -3   2   82.85    2.52
  -3  -3  -2   86.50    2.48
  -3   3   2   84.59    2.52
   3   3  -2   85.90    2.54
   3  -3  -2   84.47    2.54
  -3   3  -2   85.03    2.53
   3   3   2   84.38    2.49
  -3  -3   2   84.14    2.47
   4  -3   2   66.50    2.03
  -4   3   2   65.66    2.06
   4   3  -2   64.61    2.05
  -4  -3  -2   66.43    2.01
  -4  -3   2   67.85    2.01
   4  -3  -2   65.91    2.05
  -4   3  -2   65.47    2.06
   4   3   2   66.10    2.00
   5   3  -2   22.38    0.85
  -5  -3  -2   22.98    0.86
   5  -3   2   22.53    0.83
  -5   3   2   21.58    0.89
   5   3   2   23.55    0.82
   5  -3  -2   23.06    0.86
  -5   3  -2   22.24    0.92
  -5  -3   2   24.18    0.87
   6  -3   2   35.48    1.22
  -6   3   2   35.66    1.32
   6   3  -2   33.48    1.24
  -6  -3  -2   35.06    1.25
  -6   3  -2   35.43    1.33
   6   3   2   35.44    1.20
   6  -3  -2   37.32    1.26
  -6  -3   2   35.34    1.26
   7  -3   2   15.52    0.69
   7   3  -2   15.99    0.72
  -7  -3  -2   16.35    0.76
  -7   3   2   15.56    0.79
  -7   3  -2   15.41    0.78
   7  -3  -2   16.42    0.74
   7   3   2   15.41    0.67
  -7  -3   2   15.21    0.75
  -8   3   2   30.89    1.35
   8  -3   2   32.37    1.20
  -8  -3  -2   33.24    1.29
   8   3  -2   32.89    1.24
   8   3   2   33.34    1.19
   8  -3  -2   33.02    1.23
  -8  -3   2   34.60    1.31
  -8   3  -2   31.89    1.33
   9  -3   2    3.69    0.39
  -9  -3  -2    3.02    0.45
  -9   3   2    3.02    0.51
   9   3  -2    3.20    0.40
  -9   3  -2    3.77    0.54
   9  -3  -2    3.38    0.42
   9   3   2    3.35    0.37
  -9  -3   2    2.98    0.46
  10  -3   2   12.17    0.68
 -10  -3  -2   12.88    0.81
 -10   3   2   12.03    0.88
  10   3  -2   11.85    0.71
  10  -3  -2   13.12    0.75
 -10  -3   2   12.76    0.76
 -10   3  -2   12.30    0.89
  10   3   2   11.29    0.67
  11   3  -2    0.46    0.27
 -11   3   2    0.55    0.45
 -11  -3  -2    0.08    0.34
  11  -3   2    1.03    0.31
 -11  -3   2    0.85    0.40
  11  -3  -2    0.35    0.29
 -11   3  -2    0.06    0.31
 -12  -3  -2    1.87    0.49
 -12   3   2    3.10    0.58
  12   3  -2    2.14    0.42
  12  -3   2    2.21    0.41
 -12   3  -2    3.23    0.66
  12  -3  -2    2.04    0.43
 -12  -3   2    1.68    0.51
 -13   3   2    2.38    0.57
 -13  -3  -2    3.74    0.65
 -13  -3   2    4.97    0.70
 -13   3  -2    3.85    0.76
  13  -3  -2    3.48    0.54
   0   4   2   26.43    0.91
   0   4  -2   28.07    0.93
   0   4   2   27.32    0.80
   0   4  -2   27.32    0.81
  -1   4   2   53.84    1.52
   1   4  -2   49.67    1.61
  -1   4   2   51.55    1.60
  -1  -4   2   51.37    1.48
  -1   4  -2   51.50    1.52
   1   4   2   51.30    1.58
  -1   4  -2   52.80    1.61
  -2  -4  -2   60.12    1.65
   2   4  -2   58.50    1.77
  -2   4  -2   54.52    1.76
  -2  -4   2   56.77    1.65
   2  -4  -2   53.46    1.76
   2   4   2   55.94    1.72
  -3  -4  -2   70.14    2.05
  -3   4   2   68.90    2.11
   3   4  -2   71.48    2.15
   3  -4   2   67.92    2.13
  -3  -4   2   70.41    2.05
   3   4   2   68.46    2.09
  -3   4  -2   68.71    2.11
   3  -4  -2   70.04    2.15
  -4  -4  -2   54.59    1.64
  -4   4   2   54.96    1.72
   4   4  -2   53.54    1.72
   4  -4   2   53.92    1.70
   4  -4  -2   52.28    1.72
   4   4   2   52.39    1.66
  -4   4  -2   52.57    1.71
  -4  -4   2   50.68    1.63
   5   4  -2  163.54    4.81
   5  -4   2  162.28    4.79
  -5  -4  -2  163.61    4.74
  -5   4   2  161.63    4.81
  -5   4  -2  162.50    4.82
  -5  -4   2  165.30    4.74
   5   4   2  164.45    4.75
   5  -4  -2  163.91    4.82
   6   4  -2    7.66    0.44
  -6   4   2    8.02    0.50
   6  -4   2    7.39    0.42
  -6  -4  -2    7.31    0.45
  -6  -4   2    6.53    0.44
   6   4   2    7.38    0.41
   6  -4  -2    6.96    0.43
  -6   4  -2    7.11    0.52
   7   4  -2   31.99    1.24
   7  -4   2   34.68    1.24
  -7   4   2   33.15    1.34
  -7  -4  -2   32.75    1.24
   7   4   2   34.51    1.20
   7  -4  -2   35.24    1.28
  -7   4  -2   34.42    1.33
  -7  -4   2   35.18    1.27
   8  -4   2    0.24    0.21
  -8  -4  -2   -0.15    0.23
  -8   4   2    0.36    0.31
   8   4  -2   -0.06    0.19
  -8  -4   2    0.04    0.25
  -8   4  -2    0.04    0.21
   8   4   2   -0.03    0.16
   8  -4  -2    0.20    0.18
   9  -4   2    0.38    0.23
  -9   4   2    1.14    0.41
  -9  -4  -2    0.82    0.31
   9   4  -2    0.57    0.25
   9   4   2    1.18    0.28
  -9   4  -2    0.50    0.28
  -9  -4   2    0.40    0.30
   9  -4  -2    1.18    0.31
 -10  -4  -2    1.36    0.37
 -10   4   2    1.44    0.45
  10  -4   2    1.10    0.30
  10   4  -2    0.66    0.29
 -10   4  -2    0.75    0.41
  10  -4  -2    1.36    0.34
 -10  -4   2    1.42    0.33
  10   4   2    1.05    0.28
 -11   4   2    5.96    0.74
 -11  -4  -2    4.95    0.60
  11   4  -2    4.32    0.51
  11  -4   2    5.37    0.54
  11  -4  -2    4.82    0.56
 -11  -4   2    4.33    0.58
 -11   4  -2    5.23    0.72
  12  -4   2    1.84    0.40
 -12  -4  -2    1.48    0.45
 -12   4   2    1.97    0.59
  12   4  -2    1.62    0.41
 -12   4  -2    2.15    0.51
 -12  -4   2    1.26    0.47
  12  -4  -2    3.15    0.50
 -13  -4  -2   -0.22    0.42
 -13   4   2    0.49    0.53
 -13  -4   2   -0.05    0.45
  13  -4  -2    0.36    0.35
 -13   4  -2    0.14    0.53
   0   5  -2    4.92    0.20
   0   5  -2    5.33    0.34
   0   5   2    5.40    0.19
   0   5   2    4.97    0.32
   1   5  -2   85.39    2.60
  -1   5   2   85.21    2.45
  -1   5   2   82.37    2.58
   1   5   2   84.41    2.57
  -1   5  -2   87.68    2.60
  -1  -5   2   84.37    2.40
  -1   5  -2   89.57    2.47
   2   5  -2   26.60    0.96
  -2   5   2   26.29    0.88
  -2  -5  -2   26.78    0.81
   2  -5  -2   25.63    0.96
   2   5   2   27.17    0.94
  -2   5  -2   28.77    0.99
  -2  -5   2   27.34    0.82
  -2   5  -2   27.40    0.89
   3  -5   2   37.73    1.31
  -3   5   2   39.89    1.26
  -3  -5  -2   38.83    1.18
   3   5  -2   37.70    1.31
   3  -5  -2   38.20    1.31
   3   5   2   39.08    1.27
  -3   5  -2   38.16    1.26
  -3  -5   2   38.09    1.18
   4  -5   2   32.55    1.18
  -4  -5  -2   33.63    1.09
   4   5  -2   32.59    1.19
  -4   5   2   33.06    1.17
   4  -5  -2   34.54    1.21
   4   5   2   34.49    1.15
  -4   5  -2   34.39    1.18
  -4  -5   2   33.91    1.09
   5   5  -2    0.44    0.19
   5  -5   2    0.17    0.14
  -5   5   2    0.08    0.14
  -5  -5  -2    0.24    0.16
   5   5   2    0.33    0.15
  -5   5  -2    0.44    0.22
  -5  -5   2    0.29    0.16
   5  -5  -2    0.41    0.16
  -6   5   2   10.32    0.58
   6  -5   2   10.41    0.56
  -6  -5  -2   10.03    0.54
   6   5  -2   10.02    0.56
  -6  -5   2   10.14    0.55
  -6   5  -2    9.63    0.57
   6  -5  -2   10.14    0.55
   6   5   2    9.75    0.52
  -7   5   2    0.60    0.30
   7  -5   2    0.45    0.23
  -7  -5  -2    0.38    0.22
   7   5  -2    0.39    0.23
  -7   5  -2    0.46    0.29
   7   5   2    0.37    0.20
  -7  -5   2    0.28    0.24
   7  -5  -2    0.01    0.22
   8  -5   2    8.45    0.54
   8   5  -2    7.11    0.53
  -8   5   2    8.73    0.67
  -8  -5  -2    6.94    0.53
  -8   5  -2    6.68    0.56
   8   5   2    7.94    0.49
  -8  -5   2    6.59    0.53
   8  -5  -2    6.83    0.54
   9   5  -2    4.36    0.47
   9  -5   2    5.65    0.51
  -9  -5  -2    4.61    0.50
  -9   5   2    4.92    0.60
  -9   5  -2    5.07    0.58
  -9  -5   2    5.49    0.53
   9  -5  -2    4.95    0.52
   9   5   2    5.60    0.45
 -10  -5  -2   13.79    0.80
 -10   5   2   14.85    0.96
  10   5  -2   12.80    0.76
  10  -5   2   13.25    0.75
 -10   5  -2   13.48    0.87
  10   5   2   13.01    0.75
  10  -5  -2   13.87    0.80
 -10  -5   2   13.28    0.80
  11  -5   2    2.50    0.42
 -11  -5  -2    3.16    0.50
  11   5  -2    3.19    0.46
 -11   5   2    3.32    0.62
 -11  -5   2    3.37    0.51
  11  -5  -2    2.51    0.46
 -11   5  -2    3.73    0.64
  12   5  -2    4.56    0.56
  12  -5   2    3.21    0.51
 -12   5   2    4.43    0.73
 -12  -5  -2    4.13    0.59
 -12   5  -2    4.07    0.65
  12  -5  -2    4.19    0.55
 -12  -5   2    4.45    0.61
 -13  -5  -2    1.76    0.51
 -13   5   2    1.97    0.64
  13  -5  -2    2.03    0.48
 -13   5  -2    2.45    0.69
 -13  -5   2    1.66    0.55
   0   6   2  118.21    3.51
   0   6  -2  117.15    3.53
   1   6  -2   13.79    0.62
  -1   6   2   14.09    0.49
  -1   6   2   14.11    0.63
  -1   6  -2   14.46    0.50
   1   6   2   14.91    0.63
  -1   6  -2   14.42    0.63
  -2   6   2   68.64    2.07
   2   6  -2   69.87    2.20
  -2   6  -2   70.65    2.21
  -2   6  -2   72.83    2.09
   2   6   2   70.37    2.16
   2  -6  -2   68.47    2.20
  -2  -6   2   68.31    1.99
  -3  -6  -2   52.34    1.52
   3  -6   2   52.53    1.72
   3   6  -2   52.62    1.71
  -3   6   2   53.13    1.63
   3  -6  -2   51.21    1.72
  -3  -6   2   52.42    1.53
  -3   6  -2   49.39    1.61
   3   6   2   49.23    1.66
  -4   6   2   23.03    0.89
  -4  -6  -2   24.01    0.80
   4   6  -2   23.46    0.94
   4  -6   2   21.81    0.91
  -4  -6   2   23.72    0.80
  -4   6  -2   23.95    0.90
   4   6   2   24.35    0.90
   4  -6  -2   24.55    0.96
   5  -6   2   29.25    1.11
  -5  -6  -2   30.01    0.99
   5   6  -2   27.98    1.10
  -5   6   2   28.97    1.09
  -5   6  -2   28.11    1.08
   5  -6  -2   27.56    1.10
  -5  -6   2   27.71    0.98
   5   6   2   28.94    1.05
   6  -6   2   13.97    0.71
  -6   6   2   14.58    0.75
   6   6  -2   15.31    0.73
  -6  -6  -2   15.06    0.66
   6   6   2   14.80    0.68
  -6   6  -2   14.33    0.74
  -6  -6   2   13.87    0.64
   6  -6  -2   15.61    0.73
  -7   6   2    5.99    0.57
   7  -6   2    6.66    0.51
   7   6  -2    5.81    0.48
  -7  -6  -2    6.74    0.46
   7   6   2    7.03    0.46
  -7  -6   2    6.42    0.46
  -7   6  -2    6.08    0.49
   7  -6  -2    6.88    0.53
  -8  -6  -2   24.29    1.01
   8  -6   2   26.11    1.06
  -8   6   2   24.55    1.11
   8   6  -2   22.76    1.04
   8  -6  -2   26.30    1.10
  -8  -6   2   23.21    1.02
  -8   6  -2   24.57    1.14
   8   6   2   23.86    1.00
  -9   6   2    0.49    0.29
  -9  -6  -2    0.77    0.29
   9   6  -2    0.48    0.27
   9  -6   2    0.34    0.25
  -9   6  -2    0.55    0.35
  -9  -6   2    1.27    0.34
   9  -6  -2    0.77    0.32
   9   6   2    0.55    0.24
  10  -6   2    7.12    0.58
 -10  -6  -2    6.94    0.59
  10   6  -2    6.29    0.60
 -10   6   2    6.67    0.74
  10  -6  -2    7.79    0.68
 -10  -6   2    7.26    0.60
 -10   6  -2    7.31    0.75
 -11   6   2    0.88    0.50
  11   6  -2    1.08    0.38
 -11  -6  -2    1.45    0.40
  11  -6   2    0.50    0.31
  11  -6  -2    0.14    0.23
 -11   6  -2    0.37    0.46
 -11  -6   2    0.41    0.36
 -12   6   2    1.39    0.55
  12  -6   2    0.72    0.36
 -12   6  -2    1.04    0.54
  12  -6  -2    1.47    0.44
   0   7  -2   24.38    0.95
   0   7   2   23.87    0.94
   0  -7   2   23.91    0.71
  -1   7   2  123.14    3.76
  -1   7   2  124.66    3.53
   1   7  -2  121.31    3.75
   1   7   2  125.02    3.74
  -1   7  -2  122.03    3.76
  -1   7  -2  130.68    3.55
  -2   7   2    1.04    0.16
   2   7  -2    0.83    0.20
  -2   7  -2    1.03    0.22
  -2   7  -2    0.97    0.16
   2   7   2    0.96    0.21
   2  -7  -2    0.93    0.21
   3   7  -2    1.32    0.26
  -3   7   2    2.46    0.25
  -3  -7  -2    1.86    0.13
   3  -7  -2    1.75    0.26
  -3   7  -2    2.10    0.24
  -3  -7   2    1.95    0.15
  -3   7  -2    1.76    0.27
   3   7   2    1.91    0.26
   4  -7   2    0.40    0.21
   4   7  -2    0.30    0.21
  -4  -7  -2    0.55    0.12
  -4  -7   2    0.67    0.14
   4  -7  -2    0.90    0.26
   4   7   2    0.32    0.18
  -5  -7  -2    1.81    0.22
  -5   7   2    1.63    0.28
   5   7  -2    1.90    0.32
   5  -7   2    1.84    0.32
  -5   7  -2    1.77    0.29
   5  -7  -2    1.74    0.29
  -5  -7   2    2.15    0.24
   5   7   2    1.91    0.29
  -6  -7  -2   47.27    1.50
  -6   7   2   44.59    1.61
   6   7  -2   44.50    1.62
   6  -7   2   44.38    1.61
  -6  -7   2   46.83    1.50
   6  -7  -2   46.02    1.66
  -6   7  -2   42.60    1.59
   6   7   2   44.80    1.57
   7   7  -2    6.15    0.49
   7  -7   2    5.14    0.48
  -7  -7  -2    4.91    0.43
  -7   7   2    4.78    0.51
  -7  -7   2    4.23    0.40
  -7   7  -2    4.67    0.50
   7  -7  -2    4.98    0.48
   7   7   2    3.65    0.40
  -8   7   2    0.99    0.29
   8   7  -2    0.55    0.27
   8  -7   2    0.77    0.29
   8   7   2    1.28    0.28
  -8   7  -2    1.34    0.32
   8  -7  -2    1.73    0.38
  -9   7   2    5.30    0.62
   9  -7   2    5.07    0.53
   9   7  -2    5.35    0.55
   9   7   2    3.65    0.44
   9  -7  -2    6.01    0.60
  -9   7  -2    4.58    0.58
 -10   7   2    9.67    0.74
  10   7  -2    8.89    0.66
  10  -7   2    9.03    0.68
 -10   7  -2    9.26    0.85
  10  -7  -2   10.29    0.74
  11  -7   2    0.52    0.33
 -11   7   2    0.48    0.44
  11   7  -2    0.43    0.31
 -11   7  -2    0.12    0.41
  11  -7  -2    0.58    0.36
  12  -7   2    3.35    0.51
 -12   7   2    4.75    0.75
 -12   7  -2    3.58    0.62
  12  -7  -2    3.15    0.55
   0   8  -2    0.09    0.16
   0   8   2    0.48    0.22
   1   8  -2   50.37    1.79
  -1   8   2   51.22    1.81
  -1   8  -2   52.81    1.82
   1   8   2   54.41    1.80
  -1   8  -2   56.14    1.57
   2   8  -2   34.80    1.32
  -2   8   2   36.13    1.14
  -2   8  -2   35.65    1.36
   2   8   2   33.38    1.27
  -2   8  -2   38.67    1.17
   3   8  -2    7.44    0.51
  -3   8   2    8.04    0.41
   3   8   2    6.23    0.45
  -3   8  -2    7.70    0.41
   3  -8  -2    6.98    0.48
  -3   8  -2    6.27    0.52
  -4   8   2   23.54    0.93
   4   8  -2   24.71    1.04
   4  -8   2   24.98    1.06
  -4   8  -2   25.02    0.93
   4  -8  -2   25.02    1.04
   4   8   2   24.48    0.97
   5  -8   2   21.92    0.98
   5   8  -2   21.49    0.96
  -5   8  -2   23.08    0.92
   5   8   2   22.70    0.94
   5  -8  -2   21.97    0.98
  -6   8   2    7.48    0.53
   6  -8   2    7.60    0.57
   6   8  -2    8.08    0.57
   6   8   2    7.30    0.51
  -6   8  -2    6.96    0.52
   6  -8  -2    7.50    0.59
   7   8  -2    2.61    0.39
   7  -8   2    3.01    0.43
  -7   8   2    3.00    0.42
   7  -8  -2    3.28    0.43
   7   8   2    2.76    0.38
  -7   8  -2    3.42    0.44
   8  -8   2    5.98    0.51
  -8   8   2    5.78    0.56
   8   8  -2    5.70    0.56
   8  -8  -2    6.64    0.63
  -8   8  -2    5.35    0.54
   8   8   2    5.59    0.52
  -9   8   2    3.39    0.53
   9   8  -2    3.22    0.46
   9  -8   2    3.28    0.48
   9   8   2    3.38    0.43
   9  -8  -2    3.43    0.51
  -9   8  -2    4.47    0.58
  10   8  -2    3.55    0.49
  10  -8   2    3.26    0.50
 -10   8   2    4.07    0.61
 -10   8  -2    3.45    0.56
  10  -8  -2    2.84    0.50
  11  -8   2    1.25    0.41
 -11   8   2    0.86    0.48
  11   8  -2    1.01    0.38
 -11   8  -2    0.31    0.42
  11  -8  -2    2.12    0.48
  12  -8   2    1.46    0.44
 -12   8   2    0.69    0.41
 -12   8  -2    1.43    0.54
  12  -8  -2    1.78    0.49
   0   9  -2    6.35    0.52
   0   9   2    6.49    0.51
   1   9  -2    4.14    0.45
  -1   9   2    4.38    0.44
  -1   9  -2    4.85    0.47
   1   9   2    5.89    0.47
   2   9  -2    2.99    0.40
  -2   9   2    3.07    0.38
   2   9   2    3.03    0.38
  -2   9  -2    2.96    0.42
   3   9  -2   26.91    1.13
   3  -9  -2   27.27    1.16
  -3   9  -2   26.83    1.17
   3   9   2   26.36    1.08
  -4   9   2    0.66    0.21
   4  -9   2    0.38    0.28
   4   9  -2    0.54    0.28
   4   9   2    0.97    0.27
   4  -9  -2    0.91    0.26
  -4   9  -2    0.73    0.23
  -5   9   2    0.50    0.22
   5   9  -2    0.47    0.27
   5  -9   2    0.75    0.26
   5  -9  -2    0.48    0.24
   5   9   2    0.87    0.26
   6  -9   2    2.30    0.37
  -6   9   2    2.39    0.35
   6   9  -2    2.10    0.38
   6   9   2    2.43    0.38
   6  -9  -2    2.62    0.43
  -6   9  -2    2.63    0.36
   7  -9   2    0.79    0.32
   7   9  -2    0.75    0.29
  -7   9   2    0.54    0.28
   7  -9  -2    0.09    0.30
   7   9   2    0.34    0.25
  -7   9  -2    0.82    0.29
  -8   9   2    5.60    0.58
   8  -9   2    6.79    0.64
   8   9  -2    5.40    0.57
   8  -9  -2    6.61    0.65
   8   9   2    4.89    0.51
  -8   9  -2    5.13    0.57
   9  -9   2   18.06    0.98
   9   9  -2   16.86    0.94
  -9   9   2   16.60    0.98
  -9   9  -2   17.06    0.98
   9  -9  -2   18.18    1.02
 -10   9   2    0.93    0.42
  10   9  -2    0.20    0.32
  10  -9   2    1.23    0.35
  10  -9  -2    0.51    0.40
 -10   9  -2    0.66    0.32
  11  -9   2    3.10    0.52
 -11   9   2    2.01    0.55
  11  -9  -2    3.35    0.56
 -11   9  -2    3.48    0.62
   0  10   2    0.36    0.28
   0  10  -2    0.16    0.27
   1  10  -2   15.26    0.78
  -1  10   2   13.73    0.79
  -1  10  -2   12.87    0.80
   1  10   2   14.55    0.74
   2  10  -2   20.41    0.96
  -2  10  -2   18.79    0.97
   2  10   2   18.74    0.91
   3  10  -2    4.25    0.49
  -3  10  -2    5.06    0.56
   3 -10  -2    5.80    0.55
   3  10   2    4.51    0.48
   4 -10   2   15.69    0.88
   4  10  -2   15.28    0.79
   4 -10  -2   14.20    0.85
   4  10   2   13.83    0.76
   5 -10   2    2.41    0.43
   5  10  -2    2.40    0.38
   5  10   2    2.11    0.36
   5 -10  -2    2.52    0.40
   6 -10   2    2.50    0.41
   6  10  -2    2.02    0.40
   6 -10  -2    3.09    0.49
   6  10   2    1.92    0.35
   7 -10   2    3.50    0.52
   7  10  -2    2.70    0.44
   7  10   2    2.77    0.42
  -7  10  -2    2.88    0.43
   7 -10  -2    2.74    0.49
   8  10  -2    6.73    0.65
  -8  10   2    6.10    0.61
   8 -10   2    5.93    0.66
  -8  10  -2    6.92    0.64
   8  10   2    6.84    0.58
   8 -10  -2    8.43    0.78
  -9  10   2    3.88    0.55
   9 -10   2    3.52    0.56
   9  10  -2    3.53    0.51
  -9  10  -2    2.91    0.49
   9 -10  -2    3.76    0.58
 -10  10   2    0.30    0.37
  10 -10   2    1.71    0.48
  10  10  -2    1.15    0.39
 -10  10  -2    1.38    0.44
  10 -10  -2    1.34    0.46
  11 -10   2    0.20    0.37
 -11  10   2    0.23    0.37
  11 -10  -2   -0.18    0.37
 -11  10  -2    1.16    0.47
   0  11   2   31.06    1.31
   0  11  -2   32.15    1.36
   1  11  -2   27.73    1.23
  -1  11   2   29.44    1.27
   1  11   2   27.27    1.19
  -1  11  -2   29.19    1.29
   2  11  -2    7.39    0.57
  -2  11  -2    5.87    0.63
   2  11   2    6.63    0.57
   3  11  -2    7.44    0.62
   3 -11  -2    6.90    0.58
   3  11   2    6.87    0.58
  -3  11  -2    8.47    0.64
   4 -11   2   -0.36    0.28
   4  11  -2    0.37    0.29
   4 -11  -2   -0.29    0.27
   4  11   2   -0.26    0.23
   5 -11   2    8.61    0.72
   5  11  -2    7.66    0.64
   5 -11  -2    9.21    0.73
   5  11   2    7.61    0.59
   6  11  -2    5.41    0.57
   6 -11   2    7.35    0.71
   6 -11  -2    7.15    0.72
   6  11   2    5.13    0.54
   7  11  -2    0.34    0.31
   7 -11   2    0.51    0.30
   7 -11  -2    0.16    0.37
   7  11   2    0.64    0.31
   8 -11   2    3.48    0.57
   8  11  -2    3.86    0.55
   8 -11  -2    4.09    0.62
   9 -11   2    8.95    0.84
   9  11  -2    8.20    0.76
   9 -11  -2    7.78    0.83
  10 -11   2    4.21    0.66
  10  11  -2    3.41    0.56
  10 -11  -2    4.19    0.61
   0  12  -2   11.48    0.76
   0  12   2   12.33    0.81
  -1  12   2    1.18    0.40
   1  12  -2    1.70    0.42
   1  12   2    1.12    0.37
  -1  12  -2    0.73    0.32
   2  12  -2    2.08    0.45
  -2  12  -2    2.41    0.47
   2  12   2    1.87    0.37
   2 -12  -2    3.63    0.52
   3  12  -2    1.24    0.39
   3  12   2    0.77    0.34
   3 -12  -2    1.44    0.40
   4  12  -2   19.61    1.04
   4 -12   2   18.65    1.04
   4  12   2   18.59    0.98
   4 -12  -2   20.85    1.12
   5 -12   2   11.17    0.84
   5  12  -2    9.93    0.76
   5 -12  -2   11.73    0.86
   5  12   2    9.81    0.71
   6 -12   2    0.43    0.39
   6  12  -2    0.66    0.36
   6 -12  -2    0.64    0.39
   6  12   2    0.62    0.32
   7  12  -2    3.77    0.54
   7 -12   2    2.60    0.55
   7 -12  -2    2.73    0.51
   7  12   2    1.65    0.40
   8 -12   2    6.55    0.77
   8  12  -2    5.64    0.66
   8 -12  -2    5.53    0.68
   9 -12   2   12.21    0.95
   9  12  -2    9.51    0.88
   9 -12  -2   11.17    1.02
   0  13   2   -0.19    0.32
   0  13  -2    0.51    0.36
   1  13  -2    1.85    0.44
  -1  13   2    1.87    0.47
  -1  13  -2    1.72    0.47
   1  13   2    1.71    0.44
   2  13  -2    2.66    0.46
  -2  13  -2    3.04    0.56
   2 -13  -2    2.16    0.44
   2  13   2    1.99    0.39
   3 -13   2   12.56    0.91
   3  13  -2   14.08    0.90
   3  13   2   10.37    0.78
   3 -13  -2   12.34    0.84
   4 -13   2    1.89    0.49
   4  13  -2    2.01    0.41
   4  13   2    2.58    0.46
   4 -13  -2    2.27    0.51
   5 -13   2    2.92    0.58
   5  13  -2    2.15    0.49
   5  13   2    2.20    0.44
   5 -13  -2    2.45    0.54
   6 -13   2    4.26    0.67
   6  13  -2    4.06    0.59
   6 -13  -2    3.70    0.60
   6  13   2    4.22    0.57
   7  13  -2    3.78    0.57
   7 -13   2    4.16    0.70
   7 -13  -2    3.98    0.67
   7  13   2    2.44    0.47
   8 -13   2    2.10    0.59
   8  13  -2    2.36    0.52
   8 -13  -2    2.17    0.61
   0  14  -2    1.27    0.46
   0  14   2    0.38    0.40
  -1  14   2   -0.26    0.36
   1  14  -2    0.22    0.38
  -1  14  -2    0.01    0.27
   1  14   2    0.10    0.27
   2  14  -2    0.63    0.39
  -2  14  -2    1.32    0.47
   2 -14  -2    0.66    0.34
   2  14   2    0.83    0.33
   3  14  -2   15.33    1.01
   3 -14   2   14.39    1.03
   3  14   2   12.70    0.90
   3 -14  -2   14.67    1.03
   4  14  -2    0.79    0.43
   4 -14   2    0.89    0.37
   4 -14  -2    0.63    0.36
   4  14   2    1.40    0.43
   5  14  -2    4.38    0.65
   5 -14   2    3.78    0.60
   5 -14  -2    3.61    0.67
   5  14   2    1.77    0.47
   6  14  -2    9.06    0.85
   6 -14   2   10.54    1.00
   6  14   2    9.24    0.78
   6 -14  -2    8.55    0.93
   7  14  -2    1.94    0.49
   7 -14   2    2.75    0.64
   7 -14  -2    1.76    0.59
   0  15   2    7.13    0.80
   0  15  -2    8.09    0.87
   1  15  -2    7.51    0.84
   1  15   2    7.10    0.80
  -1  15  -2    8.46    0.88
   2  15  -2    2.45    0.58
   2 -15  -2    2.26    0.50
   2  15   2    2.37    0.53
  -2  15  -2    2.60    0.51
   3  15  -2    3.04    0.59
   3 -15   2    4.33    0.70
   3 -15  -2    3.84    0.69
   3  15   2    3.33    0.60
   4  15  -2    9.33    0.92
   4 -15   2    9.13    0.92
   4 -15  -2    8.44    0.92
   4  15   2    8.62    0.82
   5 -15   2    7.14    0.92
   5  15  -2    8.41    0.88
   5  15   2    8.08    0.80
   5 -15  -2    8.77    0.91
   6  15  -2    0.64    0.44
   6 -15   2    0.51    0.51
   6 -15  -2    1.77    0.59
   6  15   2    0.77    0.48
   0  16  -2    0.12    0.34
   0  16   2   -0.51    0.39
   1  16  -2    3.86    0.69
  -1  16  -2    6.38    0.77
   1 -16  -2    4.40    0.69
   1  16   2    4.91    0.74
   2  16  -2    1.84    0.57
   2 -16   2    1.83    0.56
   2 -16  -2    1.66    0.55
   2  16   2    2.16    0.54
   3 -16   2    0.46    0.49
   3  16  -2    0.66    0.47
   3  16   2    1.67    0.52
   3 -16  -2    1.24    0.55
   4  16  -2    7.65    0.83
   4 -16   2    7.11    0.89
   4  16   2    6.89    0.80
   4 -16  -2    5.92    0.84
   0   0  -3    1.38    0.10
  -1   0  -3   78.77    2.28
   1   0  -3   80.23    2.28
  -1   0   3   79.28    2.28
   2   0  -3  329.84    8.94
  -2   0  -3  310.72    8.89
  -2   0   3  314.06    8.89
   2   0   3  315.84    8.87
  -3   0  -3    2.03    0.20
   3   0  -3    1.96    0.20
   3   0   3    2.10    0.14
  -3   0   3    2.30    0.23
   4   0   3   28.87    0.90
  -4   0   3   27.63    0.98
   4   0  -3   28.64    0.97
  -4   0  -3   26.99    0.98
  -5   0   3    4.29    0.38
  -5   0  -3    4.75    0.34
   5   0   3    4.94    0.27
   5   0  -3    4.30    0.30
   6   0   3    4.60    0.30
  -6   0   3    5.38    0.44
   6   0  -3    4.14    0.35
  -6   0  -3    4.68    0.37
  -7   0  -3    7.03    0.48
   7   0   3    6.16    0.37
  -7   0   3    6.57    0.52
   7   0  -3    5.64    0.43
  -8   0   3    5.36    0.55
  -8   0  -3    5.05    0.50
   8   0  -3    4.66    0.39
   8   0   3    4.68    0.36
   9   0  -3    0.16    0.19
  -9   0   3    0.12    0.24
   9   0   3   -0.11    0.16
  -9   0  -3    0.42    0.26
 -10   0  -3    1.27    0.36
  10   0   3    1.56    0.29
 -10   0   3    1.22    0.44
  10   0  -3    1.17    0.28
  11   0  -3    0.42    0.29
 -11   0  -3    0.07    0.39
 -11   0   3    0.06    0.30
  12   0  -3    0.97    0.36
 -12   0   3    1.14    0.53
 -12   0  -3    0.72    0.40
  13   0  -3   -0.21    0.30
 -13   0   3    0.15    0.38
 -13   0  -3   -0.48    0.46
   0   1  -3  306.39    8.44
   0   1   3  294.75    8.43
   0   1  -3  304.39    8.49
   0  -1  -3  307.26    8.47
   1   1  -3  308.57    8.33
  -1  -1  -3  299.05    8.26
  -1   1   3  299.95    8.27
   1  -1  -3  301.72    8.31
  -1   1  -3  302.68    8.28
  -1  -1   3  296.17    8.26
  -1   1  -3  266.35    8.29
   2   1  -3  240.72    6.83
  -2  -1  -3  238.92    6.78
   2  -1   3  240.18    6.78
  -2   1   3  240.95    6.79
  -2  -1   3  241.28    6.78
  -2   1  -3  239.41    6.79
   2  -1  -3  244.91    6.82
   2   1   3  243.50    6.75
  -3   1   3   11.44    0.46
   3   1  -3   11.36    0.46
   3  -1   3   10.87    0.40
  -3  -1  -3   11.35    0.45
  -3   1  -3    9.58    0.45
  -3  -1   3    9.90    0.43
   3  -1  -3   10.35    0.44
   3   1   3   10.55    0.38
  -4   1   3   36.36    1.20
  -4  -1  -3   36.04    1.19
   4   1  -3   35.47    1.17
   4  -1   3   35.12    1.11
   4   1   3   35.18    1.10
  -4  -1   3   34.52    1.19
   4  -1  -3   36.63    1.18
  -4   1  -3   35.49    1.21
   5   1  -3   22.52    0.85
  -5  -1  -3   23.00    0.90
   5  -1   3   24.62    0.81
  -5   1   3   23.63    0.91
  -5   1  -3   23.74    0.91
   5  -1  -3   23.71    0.87
  -5  -1   3   22.38    0.90
   5   1   3   23.36    0.80
  -6   1   3   14.37    0.71
   6  -1   3   13.61    0.56
  -6  -1  -3   14.57    0.69
   6   1  -3   12.84    0.62
   6   1   3   14.83    0.57
  -6  -1   3   12.82    0.64
   6  -1  -3   14.73    0.63
  -6   1  -3   13.46    0.70
   7   1  -3   56.68    1.85
  -7   1   3   55.41    1.90
   7  -1   3   56.64    1.77
  -7  -1  -3   55.29    1.89
   7  -1  -3   55.17    1.84
   7   1   3   55.11    1.76
  -7   1  -3   52.51    1.89
  -7  -1   3   55.15    1.89
   8  -1   3   15.61    0.68
  -8   1   3   16.61    0.87
   8   1  -3   16.25    0.76
  -8  -1  -3   14.44    0.81
  -8   1  -3   15.37    0.80
  -8  -1   3   14.13    0.81
   8   1   3   14.49    0.67
   8  -1  -3   14.50    0.71
   9  -1   3    6.46    0.47
  -9   1   3    6.26    0.64
   9   1  -3    7.23    0.53
  -9  -1  -3    6.06    0.60
   9  -1  -3    5.53    0.52
   9   1   3    6.30    0.44
  -9  -1   3    8.26    0.65
  -9   1  -3    6.51    0.62
 -10   1   3    5.33    0.65
  10  -1   3    4.27    0.42
 -10  -1  -3    4.48    0.58
  10   1  -3    4.98    0.52
 -10   1  -3    5.21    0.60
  10  -1  -3    5.23    0.52
  10   1   3    5.15    0.43
 -10  -1   3    5.44    0.63
 -11  -1  -3    6.54    0.71
  11  -1   3    5.51    0.53
 -11   1   3    5.77    0.71
  11   1  -3    5.73    0.58
 -11   1  -3    5.98    0.73
 -11  -1   3    5.65    0.70
  11  -1  -3    5.37    0.56
 -12  -1  -3    7.37    0.82
 -12   1   3    7.37    0.85
  12   1  -3    8.29    0.67
 -12  -1   3    7.24    0.82
  12  -1  -3    7.03    0.68
 -12   1  -3    7.58    0.80
 -13   1   3    1.38    0.49
 -13  -1  -3    0.64    0.41
  13   1  -3    0.78    0.37
 -13  -1   3    1.08    0.52
 -13   1  -3    1.53    0.62
  13  -1  -3    1.11    0.40
   0   2   3   13.38    0.44
   0   2  -3   13.74    0.48
  -1  -2  -3  789.35   21.98
  -1   2   3  756.37   21.80
   1   2  -3  803.34   21.91
   1   2   3  782.05   22.07
  -1   2  -3  771.57   21.94
   1  -2  -3  780.79   21.95
  -1   2  -3  791.60   22.12
  -1  -2   3  799.81   21.82
   2   2  -3   15.10    0.54
  -2  -2  -3   14.39    0.50
  -2   2   3   15.00    0.54
  -2  -2   3   13.81    0.50
  -2   2  -3   14.14    0.52
   2   2   3   14.01    0.47
   2  -2  -3   13.91    0.53
   3   2  -3   55.81    1.70
  -3   2   3   56.03    1.70
  -3  -2  -3   54.86    1.67
   3  -2   3   53.74    1.66
   3   2   3   56.17    1.63
  -3   2  -3   55.59    1.71
   3  -2  -3   54.89    1.70
  -3  -2   3   53.45    1.67
  -4  -2  -3   16.92    0.68
  -4   2   3   17.44    0.72
   4  -2   3   16.78    0.63
   4   2  -3   16.92    0.68
   4   2   3   18.49    0.62
  -4  -2   3   17.29    0.68
   4  -2  -3   19.39    0.70
  -4   2  -3   18.15    0.73
  -5  -2  -3   67.57    2.07
   5  -2   3   65.42    2.00
  -5   2   3   65.91    2.09
   5   2  -3   66.25    2.05
   5   2   3   64.11    1.97
  -5  -2   3   64.44    2.06
  -5   2  -3   65.21    2.10
   5  -2  -3   65.62    2.05
  -6  -2  -3   30.15    1.13
  -6   2   3   30.58    1.19
   6   2  -3   30.50    1.12
   6  -2   3   30.78    1.06
  -6  -2   3   31.38    1.16
  -6   2  -3   32.11    1.19
   6  -2  -3   31.00    1.11
   6   2   3   31.86    1.05
   7  -2   3    1.93    0.25
  -7   2   3    2.67    0.40
   7   2  -3    2.27    0.31
  -7  -2  -3    2.00    0.34
  -7   2  -3    2.66    0.40
   7   2   3    2.37    0.26
   7  -2  -3    2.29    0.32
  -7  -2   3    2.88    0.37
   8   2  -3   23.58    0.97
  -8  -2  -3   23.75    1.00
  -8   2   3   19.51    1.00
   8  -2   3   22.38    0.90
  -8   2  -3   22.70    1.04
   8   2   3   22.72    0.89
   8  -2  -3   24.47    0.98
  -8  -2   3   22.20    1.02
  -9  -2  -3    5.67    0.54
  -9   2   3    6.03    0.64
   9   2  -3    5.43    0.51
   9  -2   3    6.23    0.45
   9   2   3    6.11    0.45
  -9  -2   3    6.09    0.60
   9  -2  -3    5.42    0.45
  -9   2  -3    5.63    0.58
  10   2  -3    4.65    0.47
 -10   2   3    4.55    0.58
  10  -2   3    4.39    0.45
 -10  -2  -3    5.19    0.55
  10   2   3    4.53    0.43
  10  -2  -3    4.58    0.50
 -10  -2   3    4.18    0.56
 -10   2  -3    3.80    0.57
 -11   2   3    6.89    0.78
 -11  -2  -3    5.57    0.67
  11  -2   3    6.58    0.52
  11   2  -3    5.63    0.58
 -11   2  -3    6.69    0.76
  11  -2  -3    6.13    0.60
 -11  -2   3    6.37    0.70
  12   2  -3    4.11    0.53
 -12  -2  -3    4.20    0.60
 -12   2   3    3.79    0.62
 -12  -2   3    4.04    0.64
 -12   2  -3    4.15    0.65
  12  -2  -3    4.19    0.55
 -13   2   3    1.02    0.55
  13   2  -3   -0.09    0.30
 -13  -2  -3    1.21    0.52
 -13  -2   3    1.05    0.53
  13  -2  -3    0.79    0.37
 -13   2  -3    0.12    0.51
   0   3   3   94.77    2.71
   0   3  -3  101.08    2.81
   0   3  -3   93.65    2.72
   0   3   3   94.43    2.78
   1   3  -3   56.45    1.80
  -1   3   3   60.34    1.75
  -1  -3  -3   58.49    1.72
  -1  -3   3   59.99    1.73
   1   3   3   62.50    1.77
   1  -3  -3   58.99    1.80
  -1   3  -3   62.02    1.81
  -2  -3  -3  128.84    3.75
  -2   3   3  127.16    3.79
   2   3  -3  128.51    3.85
   2   3   3  139.58    3.79
  -2   3  -3  134.19    3.83
  -2   3  -3  131.09    3.80
  -2  -3   3  133.34    3.76
   2  -3  -3  135.98    3.84
   3  -3   3   35.24    1.13
  -3   3   3   34.58    1.15
  -3  -3  -3   34.09    1.10
   3   3  -3   33.92    1.16
   3   3   3   35.15    1.09
   3  -3  -3   33.92    1.15
  -3   3  -3   34.58    1.15
  -3  -3   3   35.60    1.11
   4   3  -3   98.76    2.99
  -4  -3  -3   99.64    2.94
   4  -3   3   98.43    2.95
  -4   3   3   99.19    2.99
  -4   3  -3   98.09    2.99
   4  -3  -3  101.85    2.99
  -4  -3   3   99.96    2.94
   4   3   3  100.43    2.92
   5   3  -3   91.99    2.81
  -5   3   3   96.58    2.85
  -5  -3  -3   92.22    2.78
   5  -3   3   94.25    2.76
   5   3   3   88.26    2.72
  -5   3  -3   90.03    2.83
   5  -3  -3   89.92    2.80
  -5  -3   3   90.81    2.77
  -6   3   3   19.64    0.87
  -6  -3  -3   19.61    0.81
   6  -3   3   18.76    0.75
   6   3  -3   18.61    0.78
   6   3   3   18.71    0.72
   6  -3  -3   19.16    0.80
  -6   3  -3   18.96    0.84
  -6  -3   3   20.22    0.82
   7  -3   3   18.53    0.77
   7   3  -3   19.74    0.84
  -7  -3  -3   18.52    0.85
  -7   3   3   19.59    0.93
   7   3   3   18.56    0.75
  -7   3  -3   17.76    0.87
  -7  -3   3   20.06    0.87
   7  -3  -3   19.22    0.83
   8   3  -3    0.40    0.24
   8  -3   3    0.55    0.21
  -8  -3  -3    0.35    0.21
  -8   3   3    0.75    0.28
  -8   3  -3    0.77    0.34
   8   3   3    0.69    0.22
   8  -3  -3    0.58    0.26
  -8  -3   3    1.05    0.32
  -9   3   3    0.46    0.37
  -9  -3  -3    0.09    0.22
   9   3  -3    0.39    0.24
   9  -3   3    0.38    0.21
   9  -3  -3    0.21    0.19
  -9   3  -3    0.48    0.36
   9   3   3    0.32    0.21
  -9  -3   3    0.19    0.31
  10   3  -3    3.03    0.42
  10  -3   3    2.72    0.39
 -10  -3  -3    3.17    0.44
 -10   3   3    2.82    0.54
  10   3   3    3.00    0.37
  10  -3  -3    2.37    0.42
 -10  -3   3    2.91    0.48
 -10   3  -3    3.57    0.57
  11  -3   3    0.23    0.25
 -11   3   3    0.08    0.31
 -11  -3  -3    0.30    0.36
  11   3  -3    0.16    0.27
 -11   3  -3    0.08    0.33
 -11  -3   3   -0.27    0.35
  11  -3  -3    0.16    0.29
 -12  -3  -3    0.54    0.42
 -12   3   3    0.25    0.47
  12   3  -3   -0.08    0.27
 -12  -3   3    0.31    0.42
  12  -3  -3    0.19    0.32
 -12   3  -3   -0.62    0.45
 -13  -3  -3    3.70    0.64
  13   3  -3    2.91    0.51
 -13   3   3    3.01    0.70
  13  -3  -3    3.85    0.56
 -13  -3   3    4.06    0.66
 -13   3  -3    3.85    0.67
   0   4   3    0.00    0.06
   0   4  -3    0.02    0.09
   0   4   3   -0.03    0.08
   0   4  -3    0.04    0.07
   1   4  -3   15.06    0.59
  -1   4   3   15.21    0.51
   1  -4  -3   15.31    0.59
  -1   4  -3   14.88    0.58
  -1   4  -3   15.49    0.53
   1   4   3   14.67    0.56
  -1  -4   3   14.57    0.48
   2   4  -3   33.60    1.12
  -2  -4  -3   34.31    1.00
   2   4   3   33.61    1.06
  -2  -4   3   32.39    1.01
   2  -4  -3   32.30    1.11
  -2   4  -3   31.80    1.10
  -3  -4  -3    9.45    0.40
   3  -4   3    9.46    0.44
  -3   4   3    9.66    0.46
   3   4  -3    9.40    0.48
   3   4   3    9.95    0.42
   3  -4  -3   10.94    0.50
  -3  -4   3   10.04    0.41
  -3   4  -3   10.10    0.46
  -4  -4  -3    6.96    0.36
   4  -4   3    6.60    0.37
  -4   4   3    7.22    0.43
   4   4  -3    6.86    0.42
  -4   4  -3    6.08    0.41
   4  -4  -3    7.30    0.43
   4   4   3    7.06    0.36
  -4  -4   3    7.60    0.39
   5   4  -3  148.48    4.56
  -5   4   3  154.89    4.57
  -5  -4  -3  153.68    4.49
   5  -4   3  153.90    4.53
   5  -4  -3  157.81    4.57
  -5  -4   3  157.03    4.49
   5   4   3  156.62    4.49
  -5   4  -3  151.19    4.56
   6   4  -3    6.42    0.44
  -6  -4  -3    6.92    0.44
  -6   4   3    5.98    0.45
   6  -4   3    5.68    0.40
   6   4   3    6.89    0.38
  -6   4  -3    5.69    0.44
  -6  -4   3    6.26    0.44
   6  -4  -3    7.71    0.48
   7  -4   3    7.35    0.46
   7   4  -3    7.66    0.51
  -7  -4  -3    6.79    0.49
  -7   4   3    7.33    0.59
  -7   4  -3    5.64    0.49
   7  -4  -3    7.18    0.50
   7   4   3    7.39    0.43
  -7  -4   3    6.63    0.50
   8  -4   3   22.50    0.93
  -8   4   3   22.68    1.05
   8   4  -3   21.93    0.97
  -8  -4  -3   22.22    0.98
  -8  -4   3   20.49    0.97
   8   4   3   23.59    0.90
   8  -4  -3   23.13    0.97
  -8   4  -3   22.11    1.07
  -9  -4  -3    0.79    0.30
  -9   4   3    0.28    0.35
   9   4  -3    0.41    0.25
   9  -4   3    0.87    0.25
   9   4   3    0.51    0.24
   9  -4  -3    0.36    0.26
  -9  -4   3    0.29    0.30
  -9   4  -3    0.59    0.37
  10   4  -3    3.56    0.47
  10  -4   3    2.66    0.37
 -10  -4  -3    3.28    0.48
 -10   4   3    5.26    0.65
 -10  -4   3    3.07    0.47
  10  -4  -3    3.26    0.46
 -10   4  -3    3.77    0.58
  11  -4   3    5.53    0.56
 -11  -4  -3    5.98    0.66
  11   4  -3    4.94    0.55
 -11   4   3    5.17    0.71
 -11   4  -3    6.33    0.77
 -11  -4   3    5.14    0.63
  11  -4  -3    5.59    0.58
  12   4  -3    0.97    0.36
 -12  -4  -3    0.11    0.37
 -12   4   3   -0.14    0.34
 -12   4  -3    1.11    0.45
  12  -4  -3    0.52    0.36
 -12  -4   3    0.33    0.40
 -13  -4  -3    1.87    0.54
 -13   4   3    2.98    0.67
 -13  -4   3    0.96    0.49
  13  -4  -3    1.92    0.48
 -13   4  -3    1.84    0.63
   0   5   3   34.13    1.14
   0   5   3   34.31    1.01
   0   5  -3   34.65    1.02
   0   5  -3   34.27    1.16
  -1   5   3   95.06    2.75
   1   5  -3   93.17    2.88
  -1   5   3   91.57    2.86
  -1   5  -3  100.93    2.77
  -1  -5   3   95.20    2.71
   1   5   3   96.87    2.69
   1   5   3   97.81    2.85
  -1   5  -3   96.08    2.89
  -2   5   3   43.99    1.36
  -2  -5  -3   44.49    1.28
   2   5  -3   44.02    1.45
  -2   5  -3   43.50    1.36
   2   5   3   44.20    1.40
  -2   5  -3   42.41    1.44
   2  -5  -3   43.87    1.44
  -2  -5   3   43.19    1.30
  -3   5   3   63.92    1.94
   3   5  -3   64.26    2.00
  -3  -5  -3   63.59    1.86
   3   5   3   62.90    1.94
  -3   5  -3   60.57    1.93
   3  -5  -3   63.17    2.00
  -3  -5   3   61.56    1.86
  -4  -5  -3   20.31    0.72
  -4   5   3   20.84    0.80
   4  -5   3   19.29    0.80
   4   5  -3   19.78    0.83
   4   5   3   20.23    0.76
  -4  -5   3   20.58    0.73
  -4   5  -3   19.74    0.80
   4  -5  -3   21.28    0.84
  -5   5   3   36.35    1.29
   5   5  -3   37.66    1.30
   5  -5   3   36.99    1.26
  -5  -5  -3   35.76    1.19
   5   5   3   32.96    1.19
  -5   5  -3   35.45    1.27
  -5  -5   3   34.36    1.19
   5  -5  -3   35.31    1.29
  -6  -5  -3   19.31    0.81
   6   5  -3   19.02    0.85
   6  -5   3   19.16    0.81
  -6   5   3   18.90    0.86
   6  -5  -3   21.07    0.89
  -6   5  -3   20.00    0.90
  -6  -5   3   20.51    0.81
   6   5   3   20.36    0.79
   7   5  -3   27.17    1.11
  -7  -5  -3   27.89    1.07
  -7   5   3   28.10    1.18
   7  -5   3   28.81    1.09
   7  -5  -3   28.82    1.14
  -7  -5   3   26.57    1.07
  -7   5  -3   25.68    1.13
   7   5   3   28.10    1.04
   8  -5   3    9.28    0.57
  -8  -5  -3    9.15    0.59
   8   5  -3    7.67    0.54
  -8   5   3    9.30    0.71
  -8  -5   3   10.36    0.62
   8  -5  -3   11.59    0.67
  -8   5  -3    9.84    0.71
   8   5   3    9.78    0.54
   9  -5   3    3.84    0.42
  -9   5   3    3.87    0.56
   9   5  -3    3.43    0.44
  -9  -5  -3    3.68    0.45
   9  -5  -3    3.85    0.47
  -9  -5   3    3.31    0.45
  -9   5  -3    4.61    0.57
   9   5   3    4.64    0.43
  10  -5   3    3.36    0.43
  10   5  -3    3.92    0.48
 -10   5   3    3.05    0.56
 -10  -5  -3    3.24    0.46
 -10  -5   3    4.49    0.53
  10  -5  -3    3.80    0.49
 -10   5  -3    3.78    0.55
  11   5  -3    0.80    0.33
 -11   5   3    0.71    0.47
  11  -5   3    0.45    0.27
 -11  -5  -3    0.73    0.35
 -11  -5   3    1.37    0.41
  11  -5  -3    0.69    0.35
 -11   5  -3    0.57    0.45
 -12  -5  -3    7.05    0.73
  12  -5   3    5.42    0.60
 -12   5   3    6.47    0.84
  12   5  -3    6.59    0.67
  12  -5  -3    9.04    0.76
 -12   5  -3    7.86    0.91
 -12  -5   3    6.94    0.73
 -13   5   3    0.91    0.45
 -13  -5  -3    0.99    0.48
  13  -5  -3    1.33    0.45
 -13  -5   3    1.52    0.52
 -13   5  -3    1.82    0.55
   0   6   3   37.29    1.06
   0   6  -3   36.56    1.26
   0   6   3   34.38    1.23
  -1   6   3    6.18    0.28
  -1   6   3    6.51    0.41
   1   6  -3    6.35    0.39
   1   6   3    6.37    0.39
  -1   6  -3    6.79    0.40
  -1   6  -3    6.65    0.30
  -1  -6   3    6.62    0.24
   2   6  -3    3.93    0.37
  -2   6   3    4.42    0.28
  -2  -6  -3    4.42    0.18
  -2  -6   3    5.16    0.22
   2   6   3    5.30    0.32
  -2   6  -3    4.96    0.28
  -2   6  -3    4.71    0.34
   2  -6  -3    4.02    0.37
  -3   6   3   13.16    0.55
  -3  -6  -3   12.78    0.45
   3   6  -3   13.02    0.63
  -3   6  -3   11.76    0.58
   3  -6  -3   11.99    0.59
  -3  -6   3   12.18    0.46
   3   6   3   12.88    0.56
   4   6  -3   16.16    0.72
  -4  -6  -3   15.83    0.59
  -4   6   3   15.42    0.68
   4  -6   3   17.50    0.74
   4  -6  -3   14.54    0.72
   4   6   3   16.71    0.67
  -4  -6   3   15.69    0.60
  -4   6  -3   16.85    0.69
   5   6  -3   12.81    0.68
   5  -6   3   14.13    0.66
  -5  -6  -3   14.76    0.60
  -5   6   3   13.96    0.66
   5   6   3   14.41    0.63
  -5   6  -3   14.77    0.69
   5  -6  -3   13.27    0.70
  -5  -6   3   14.14    0.59
   6  -6   3    1.49    0.25
  -6   6   3    1.21    0.26
   6   6  -3    1.56    0.30
  -6  -6  -3    1.56    0.24
  -6  -6   3    1.69    0.26
   6   6   3    1.91    0.27
   6  -6  -3    0.92    0.29
  -6   6  -3    1.82    0.33
  -7   6   3   31.90    1.28
   7   6  -3   33.18    1.26
   7  -6   3   30.68    1.23
  -7  -6  -3   32.10    1.20
   7   6   3   34.06    1.20
   7  -6  -3   32.37    1.29
  -7   6  -3   31.04    1.30
  -7  -6   3   31.79    1.19
   8  -6   3    0.69    0.27
  -8  -6  -3    0.66    0.25
  -8   6   3    1.00    0.29
   8   6  -3    0.51    0.28
   8   6   3    0.68    0.22
  -8  -6   3    0.42    0.28
  -8   6  -3    0.87    0.34
   8  -6  -3    0.62    0.30
   9   6  -3    1.37    0.33
  -9  -6  -3    2.28    0.37
  -9   6   3    1.66    0.37
   9  -6   3    1.53    0.33
  -9   6  -3    1.97    0.44
  -9  -6   3    1.66    0.36
   9  -6  -3    2.04    0.40
   9   6   3    1.84    0.32
 -10  -6  -3    3.98    0.48
  10   6  -3    3.98    0.50
 -10   6   3    4.47    0.63
  10  -6   3    3.30    0.45
 -10  -6   3    3.93    0.49
 -10   6  -3    5.51    0.67
  10  -6  -3    4.80    0.55
 -11  -6  -3    3.19    0.51
  11  -6   3    4.74    0.54
 -11   6   3    5.08    0.72
  11   6  -3    4.07    0.54
 -11   6  -3    3.78    0.66
  11  -6  -3    4.46    0.57
 -11  -6   3    4.01    0.55
 -12   6   3    1.42    0.46
  12   6  -3    0.92    0.41
  12  -6   3    0.93    0.40
  12  -6  -3    1.55    0.40
 -12   6  -3    0.65    0.53
   0  -7   3   19.46    0.60
   0   7   3   19.96    0.79
   0   7  -3   17.82    0.79
   1   7  -3   28.31    1.09
  -1   7   3   29.78    1.09
  -1   7   3   29.60    0.90
  -1  -7   3   28.18    0.84
  -1   7  -3   29.94    0.92
   1   7   3   27.79    1.05
  -1   7  -3   27.46    1.08
   2   7  -3    3.04    0.35
  -2   7   3    2.78    0.24
  -2   7  -3    3.27    0.25
   2   7   3    2.84    0.30
  -2  -7   3    2.78    0.15
   2  -7  -3    2.71    0.31
  -2   7  -3    2.32    0.32
  -3  -7  -3   40.94    1.19
   3   7  -3   41.24    1.44
  -3   7   3   40.49    1.31
  -3  -7   3   39.66    1.21
   3  -7  -3   38.20    1.41
  -3   7  -3   42.28    1.33
   3   7   3   40.22    1.37
  -3   7  -3   36.78    1.41
   4   7  -3   19.76    0.85
  -4  -7  -3   19.85    0.67
   4  -7   3   17.82    0.83
  -4  -7   3   20.02    0.69
   4   7   3   19.71    0.80
   4  -7  -3   19.43    0.87
  -5   7   3    2.86    0.34
  -5  -7  -3    2.88    0.26
   5   7  -3    3.53    0.40
   5  -7   3    2.88    0.34
   5   7   3    2.96    0.33
  -5  -7   3    3.08    0.28
   5  -7  -3    2.69    0.38
  -5   7  -3    3.24    0.36
  -6   7   3    9.82    0.60
  -6  -7  -3    9.41    0.49
   6   7  -3    8.15    0.58
   6  -7   3    8.42    0.57
  -6  -7   3    9.26    0.50
   6  -7  -3    7.05    0.53
   6   7   3    9.09    0.54
  -6   7  -3    8.85    0.58
  -7  -7  -3    0.73    0.23
  -7   7   3    0.65    0.24
   7  -7   3    0.27    0.25
   7   7  -3    1.07    0.29
   7  -7  -3    1.04    0.32
   7   7   3    1.45    0.28
  -7  -7   3    1.15    0.28
  -7   7  -3    0.77    0.31
  -8   7   3    2.04    0.42
   8  -7   3    1.38    0.33
   8   7  -3    1.26    0.32
   8  -7  -3    1.98    0.38
  -8   7  -3    1.97    0.42
   8   7   3    1.45    0.29
  -9   7   3   10.72    0.80
   9  -7   3   11.17    0.70
   9   7  -3    9.41    0.68
  -9   7  -3   10.19    0.78
   9  -7  -3   12.01    0.76
  10   7  -3    5.86    0.60
  10  -7   3    4.50    0.52
 -10   7   3    4.84    0.67
  10  -7  -3    5.44    0.61
 -10   7  -3    5.26    0.68
  11  -7   3    2.83    0.47
  11   7  -3    1.78    0.41
 -11   7   3    1.98    0.55
 -11   7  -3    1.81    0.54
  11  -7  -3    1.41    0.43
  12  -7   3    0.40    0.36
 -12   7   3    0.61    0.40
  12   7  -3    0.51    0.37
  12  -7  -3    0.45    0.38
 -12   7  -3    0.05    0.49
   0   8  -3   17.43    0.82
   0   8   3   18.16    0.81
  -1   8   3    2.60    0.18
   1   8  -3    2.92    0.36
  -1   8   3    2.57    0.35
  -1   8  -3    3.03    0.38
  -1   8  -3    2.94    0.20
   1   8   3    2.51    0.30
   2   8  -3    5.44    0.42
  -2   8   3    6.16    0.32
  -2   8  -3    6.45    0.35
   2   8   3    6.32    0.44
   2  -8  -3    5.93    0.48
  -2   8  -3    6.31    0.50
   3   8  -3   18.25    0.85
  -3   8   3   17.46    0.70
   3   8   3   17.40    0.77
  -3   8  -3   18.85    0.72
   3  -8  -3   17.62    0.84
  -3   8  -3   17.80    0.83
   4  -8   3    1.28    0.27
  -4   8   3    0.93    0.24
   4   8  -3    1.35    0.31
   4  -8  -3    1.29    0.31
  -4   8  -3    1.59    0.25
   4   8   3    1.16    0.25
   5  -8   3    0.42    0.27
   5   8  -3    0.68    0.23
  -5   8   3    0.24    0.26
   5  -8  -3    0.27    0.26
  -5   8  -3    0.26    0.21
   5   8   3    0.62    0.25
   6   8  -3    3.08    0.42
  -6   8   3    3.93    0.43
   6  -8   3    3.20    0.44
   6  -8  -3    3.26    0.42
   6   8   3    3.30    0.38
  -6   8  -3    3.98    0.42
   7  -8   3   10.16    0.66
   7   8  -3    9.35    0.64
  -7   8   3    8.96    0.64
   7   8   3    8.89    0.59
  -7   8  -3    8.20    0.62
   7  -8  -3    9.47    0.67
  -8   8   3    9.74    0.71
   8  -8   3   11.26    0.70
   8   8  -3    9.93    0.68
   8   8   3   10.21    0.65
  -8   8  -3   10.44    0.72
   8  -8  -3   10.03    0.73
   9  -8   3    4.81    0.54
  -9   8   3    4.88    0.60
   9   8  -3    4.74    0.52
  -9   8  -3    5.06    0.62
   9  -8  -3    5.54    0.61
  10  -8   3    3.20    0.49
  10   8  -3    3.03    0.48
 -10   8   3    3.14    0.51
 -10   8  -3    4.19    0.56
  10  -8  -3    3.04    0.51
  11  -8   3   -0.16    0.29
 -11   8   3    0.13    0.43
  11   8  -3    0.44    0.34
 -11   8  -3    0.13    0.29
  11  -8  -3    0.37    0.39
  12  -8   3    1.98    0.46
 -12   8   3    1.67    0.57
 -12   8  -3    1.84    0.49
  12  -8  -3    1.95    0.44
   0   9   3   17.15    0.82
   0   9  -3   16.38    0.84
   1   9  -3    6.52    0.48
  -1   9   3    7.96    0.55
  -1   9  -3    7.31    0.56
   1   9   3    6.73    0.50
   2   9  -3    9.91    0.61
   2  -9  -3    9.21    0.58
   2   9   3    8.53    0.56
  -2   9  -3    9.14    0.64
   3   9  -3    0.87    0.24
  -3   9  -3    0.62    0.25
  -3   9  -3    0.75    0.20
   3   9   3    0.90    0.26
   3  -9  -3    0.57    0.23
   4   9  -3   30.52    1.26
   4  -9   3   27.73    1.25
  -4   9   3   31.93    1.10
   4   9   3   29.76    1.17
   4  -9  -3   30.40    1.27
  -4   9  -3   30.75    1.11
   5  -9   3    5.43    0.52
  -5   9   3    5.16    0.42
   5   9  -3    4.63    0.48
   5   9   3    4.50    0.44
   5  -9  -3    5.68    0.56
   6  -9   3   23.94    1.09
  -6   9   3   25.20    1.05
   6   9  -3   23.23    1.10
   6  -9  -3   26.30    1.17
  -6   9  -3   25.98    1.05
   6   9   3   23.79    1.03
  -7   9   3    3.94    0.47
   7  -9   3    3.62    0.45
   7   9  -3    3.72    0.49
  -7   9  -3    3.79    0.46
   7  -9  -3    3.83    0.52
   7   9   3    3.68    0.43
   8  -9   3    2.57    0.44
   8   9  -3    2.68    0.44
  -8   9   3    2.92    0.45
   8   9   3    2.38    0.38
  -8   9  -3    2.40    0.43
   8  -9  -3    3.01    0.49
  -9   9   3    2.45    0.48
   9  -9   3    2.18    0.44
   9   9  -3    2.40    0.44
  -9   9  -3    2.43    0.47
   9  -9  -3    2.43    0.49
  10   9  -3    0.18    0.33
 -10   9   3    0.55    0.39
  10  -9   3    0.53    0.35
  10  -9  -3    0.23    0.38
 -10   9  -3   -0.07    0.34
 -11   9   3    6.00    0.75
  11  -9   3    4.86    0.63
  11   9  -3    6.44    0.68
  11  -9  -3    4.64    0.65
 -11   9  -3    5.60    0.73
   0  10   3    5.40    0.54
   0  10  -3    5.98    0.57
   1  10  -3    6.05    0.58
  -1  10   3    7.54    0.59
  -1  10  -3    7.00    0.54
   1  10   3    6.27    0.49
   2  10  -3    7.57    0.59
   2  10   3    6.79    0.54
  -2  10  -3    7.21    0.65
   2 -10  -3    6.71    0.53
   3  10  -3    1.30    0.33
  -3  10  -3    0.91    0.36
   3  10   3    0.92    0.29
   3 -10  -3    0.92    0.33
   4  10  -3    7.06    0.60
   4 -10   3    8.31    0.65
   4 -10  -3    8.10    0.59
   4  10   3    7.85    0.55
   5 -10   3    5.56    0.59
   5  10  -3    4.66    0.51
   5 -10  -3    4.49    0.53
   5  10   3    3.53    0.42
   6 -10   3   19.71    1.03
   6  10  -3   18.86    1.00
   6  10   3   20.43    0.94
   6 -10  -3   21.03    1.07
   7  10  -3    0.58    0.33
   7 -10   3    0.88    0.31
  -7  10  -3    0.42    0.28
   7 -10  -3    0.25    0.35
   7  10   3    0.24    0.28
   8  10  -3    4.02    0.51
  -8  10   3    5.10    0.58
   8 -10   3    5.39    0.63
  -8  10  -3    6.04    0.61
   8 -10  -3    5.64    0.65
   9  10  -3    0.22    0.32
  -9  10   3    1.02    0.39
   9 -10   3    0.27    0.33
   9 -10  -3    0.34    0.38
  -9  10  -3    0.68    0.35
  10  10  -3    4.48    0.60
 -10  10   3    4.66    0.63
  10 -10   3    4.09    0.59
 -10  10  -3    4.61    0.63
  10 -10  -3    5.56    0.69
  11 -10   3    1.93    0.49
 -11  10   3    1.37    0.50
 -11  10  -3    1.24    0.46
  11 -10  -3    1.85    0.51
   0  11  -3    5.87    0.58
   0  11   3    6.75    0.62
  -1  11   3    0.07    0.22
   1  11  -3    0.08    0.22
   1  11   3    0.10    0.27
  -1  11  -3    0.18    0.30
   2  11  -3   16.80    0.88
   2 -11  -3   16.98    0.93
  -2  11  -3   15.97    0.89
   2  11   3   15.40    0.84
   3  11  -3   31.05    1.33
  -3  11  -3   29.32    1.32
   3 -11  -3   30.73    1.35
   3  11   3   29.84    1.26
   4 -11   3    4.04    0.56
   4  11  -3    4.57    0.51
   4  11   3    4.85    0.51
   4 -11  -3    5.36    0.60
   5  11  -3    3.35    0.50
   5 -11   3    3.28    0.52
   5  11   3    2.75    0.41
   5 -11  -3    4.74    0.59
   6  11  -3    4.31    0.52
   6 -11   3    4.90    0.61
   6  11   3    4.16    0.49
   6 -11  -3    4.99    0.63
   7  11  -3    0.35    0.31
   7 -11   3   -0.33    0.31
   7 -11  -3   -0.16    0.35
   7  11   3    0.29    0.26
   8  11  -3    1.49    0.42
   8 -11   3    1.26    0.44
   8 -11  -3    1.35    0.48
   9 -11   3    5.53    0.69
   9  11  -3    4.86    0.63
   9 -11  -3    5.99    0.74
  10  11  -3    0.51    0.38
  10 -11   3    0.12    0.29
  10 -11  -3    0.80    0.45
   0  12  -3   15.48    0.89
   0  12   3   16.00    0.88
   1  12  -3   22.01    1.11
  -1  12   3   23.18    1.15
  -1  12  -3   23.64    1.14
   1  12   3   22.22    1.10
   2  12  -3    8.41    0.71
   2  12   3    6.99    0.66
   2 -12  -3    8.26    0.76
  -2  12  -3    7.31    0.73
   3  12  -3    0.56    0.27
   3 -12  -3    0.63    0.36
   3  12   3    0.30    0.29
  -3  12  -3    1.33    0.44
   4 -12   3    0.17    0.26
   4  12  -3    0.35    0.33
   4 -12  -3    0.90    0.39
   4  12   3    0.42    0.30
   5 -12   3    7.75    0.77
   5  12  -3    7.50    0.71
   5  12   3    5.83    0.59
   5 -12  -3    7.44    0.76
   6  12  -3    3.64    0.55
   6 -12   3    3.51    0.57
   6  12   3    3.11    0.45
   6 -12  -3    3.89    0.62
   7  12  -3    4.26    0.60
   7 -12   3    5.16    0.64
   7  12   3    3.43    0.51
   7 -12  -3    4.83    0.64
   8 -12   3    4.01    0.59
   8  12  -3    3.81    0.57
   8 -12  -3    5.41    0.73
   9 -12   3    0.45    0.41
   9  12  -3    0.53    0.37
   9 -12  -3    0.12    0.44
   0  13  -3    3.95    0.59
   0  13   3    5.51    0.63
  -1  13   3    5.84    0.66
   1  13  -3    4.31    0.60
   1  13   3    4.96    0.60
  -1  13  -3    4.59    0.64
   2  13  -3    0.93    0.40
   2 -13  -3    0.07    0.35
   2  13   3    0.30    0.33
  -2  13  -3    0.75    0.41
   3  13  -3    4.57    0.61
   3 -13  -3    5.53    0.64
   3  13   3    4.79    0.56
   4  13  -3   10.03    0.75
   4 -13   3   11.20    0.89
   4 -13  -3   11.86    0.91
   4  13   3   10.80    0.77
   5 -13   3    0.80    0.45
   5  13  -3    0.80    0.39
   5 -13  -3    0.98    0.47
   5  13   3    0.14    0.30
   6  13  -3    4.03    0.60
   6 -13   3    4.85    0.69
   6 -13  -3    4.35    0.62
   6  13   3    3.54    0.51
   7 -13   3    4.97    0.71
   7  13  -3    4.75    0.63
   7 -13  -3    3.90    0.68
   8  13  -3    1.54    0.47
   8 -13   3    1.55    0.51
   8 -13  -3    0.77    0.52
   0  14   3    0.72    0.43
   0  14  -3    2.22    0.53
   1  14  -3    0.11    0.40
   1  14   3    0.82    0.40
  -1  14  -3    0.44    0.33
   2  14  -3    0.33    0.38
   2 -14  -3    0.56    0.42
  -2  14  -3   -0.07    0.40
   2  14   3   -0.42    0.30
   3 -14   3    1.59    0.52
   3  14  -3    1.75    0.51
   3 -14  -3    1.87    0.53
   3  14   3    2.00    0.46
   4 -14   3    2.90    0.60
   4  14  -3    2.32    0.53
   4 -14  -3    2.01    0.55
   4  14   3    2.89    0.49
   5 -14   3    0.68    0.36
   5  14  -3    0.40    0.42
   5  14   3    1.42    0.42
   5 -14  -3    0.54    0.45
   6  14  -3    3.33    0.59
   6 -14   3    2.36    0.52
   6 -14  -3    3.79    0.68
   6  14   3    1.48    0.45
   7  14  -3    5.19    0.69
   7 -14   3    7.23    0.85
   7 -14  -3    5.67    0.81
   0  15  -3    0.93    0.50
   0  15   3    0.76    0.36
   1  15  -3    1.28    0.49
   1 -15  -3    0.64    0.36
   1  15   3    0.77    0.36
  -1  15  -3    0.65    0.47
   2  15  -3   -0.57    0.37
   2 -15  -3   -0.95    0.33
   2  15   3   -0.55    0.33
  -2  15  -3    0.16    0.33
   3 -15   3    3.21    0.65
   3  15  -3    4.24    0.66
   3 -15  -3    4.45    0.69
   3  15   3    2.29    0.53
   4 -15   3    3.18    0.58
   4  15  -3    1.79    0.56
   4 -15  -3    2.06    0.59
   4  15   3    2.72    0.55
   5 -15   3    1.42    0.55
   5  15  -3    1.80    0.53
   5 -15  -3    1.09    0.45
   5  15   3    1.52    0.46
   6  15  -3    3.86    0.66
   6 -15   3    4.02    0.72
   6 -15  -3    1.87    0.63
   0  16  -3   -0.50    0.40
   1  16  -3    0.69    0.52
  -1  16  -3    0.43    0.49
   1 -16  -3    0.10    0.42
   1  16   3    0.63    0.46
   2  16  -3    2.74    0.63
   2  16   3    2.00    0.52
   2 -16  -3    2.00    0.58
   3  16  -3    4.97    0.74
   3 -16   3    4.25    0.73
   3  16   3    4.70    0.69
   3 -16  -3    4.73    0.74
   4  16  -3    5.52    0.71
   4 -16   3    5.09    0.74
   4  16   3    5.60    0.72
   4 -16  -3    6.82    0.87
   0   0   4    2.74    0.15
   0   0  -4    2.86    0.13
  -1   0  -4  222.68    6.32
   1   0  -4  225.21    6.34
  -1   0   4  225.84    6.32
  -2   0   4  126.01    3.53
   2   0   4  122.06    3.46
  -2   0  -4  120.16    3.53
   2   0  -4  124.28    3.54
   3   0  -4    0.95    0.14
  -3   0   4    1.03    0.18
   3   0   4    0.97    0.10
  -3   0  -4    0.92    0.15
  -4   0   4    7.36    0.42
   4   0   4    7.40    0.31
   4   0  -4    7.27    0.39
  -4   0  -4    7.58    0.40
   5   0  -4    7.71    0.43
   5   0   4    7.32    0.35
  -5   0  -4    7.95    0.45
  -5   0   4    7.92    0.45
  -6   0  -4   29.99    1.14
   6   0  -4   30.59    1.08
  -6   0   4   28.08    1.10
   6   0   4   28.46    0.98
   7   0  -4   10.28    0.57
   7   0   4   10.58    0.50
  -7   0  -4    9.67    0.59
  -7   0   4   11.00    0.62
   8   0  -4   10.55    0.62
   8   0   4   10.13    0.52
  -8   0  -4   10.46    0.70
  -8   0   4    9.99    0.64
  -9   0  -4    1.23    0.39
  -9   0   4    1.65    0.36
   9   0   4    1.47    0.28
   9   0  -4    1.38    0.32
 -10   0  -4    1.03    0.41
  10   0   4    0.70    0.24
 -10   0   4    1.52    0.44
  10   0  -4    1.20    0.33
 -11   0  -4   -0.38    0.37
  11   0  -4   -0.51    0.24
 -11   0   4   -0.16    0.41
 -12   0  -4    0.04    0.33
  12   0  -4    0.05    0.30
 -12   0   4    0.39    0.37
 -13   0  -4    1.24    0.57
 -13   0   4    2.80    0.68
  13   0  -4    1.47    0.44
   0   1   4    5.40    0.25
   0  -1  -4    5.35    0.21
   0   1  -4    5.33    0.25
  -1  -1  -4   80.80    2.39
   1   1  -4   84.20    2.42
  -1   1   4   85.21    2.40
   1  -1  -4   83.06    2.40
  -1  -1   4   83.28    2.40
  -1   1  -4   82.83    2.41
  -1   1  -4   83.27    2.37
  -2  -1  -4  109.90    3.10
   2   1  -4  109.96    3.12
  -2   1   4  109.87    3.10
   2  -1   4  105.60    3.05
  -2  -1   4  105.58    3.09
  -2   1  -4  104.04    3.10
   2  -1  -4  107.23    3.10
   2   1   4  106.30    3.03
   3  -1   4    7.59    0.31
  -3   1   4    8.78    0.39
   3   1  -4    7.45    0.36
  -3  -1  -4    7.14    0.37
   3   1   4    7.69    0.28
   3  -1  -4    7.59    0.37
  -3  -1   4    7.59    0.38
  -3   1  -4    7.91    0.40
  -4  -1  -4  164.35    4.76
  -4   1   4  164.36    4.78
   4   1  -4  161.56    4.77
   4  -1   4  160.79    4.69
  -4   1  -4  167.27    4.79
   4   1   4  162.76    4.68
   4  -1  -4  167.27    4.77
  -4  -1   4  168.79    4.77
   5  -1   4    6.02    0.31
  -5  -1  -4    5.32    0.40
  -5   1   4    5.51    0.42
   5   1  -4    6.71    0.39
   5   1   4    5.64    0.29
  -5  -1   4    5.40    0.40
   5  -1  -4    6.27    0.38
  -5   1  -4    5.74    0.39
  -6  -1  -4    0.28    0.22
  -6   1   4    0.58    0.24
   6   1  -4    0.46    0.20
   6  -1   4    0.45    0.15
  -6  -1   4    0.27    0.17
   6  -1  -4    0.46    0.16
  -6   1  -4    0.26    0.17
   6   1   4    0.45    0.14
   7   1  -4   30.03    1.13
  -7  -1  -4   27.79    1.16
  -7   1   4   28.43    1.16
   7  -1   4   28.74    1.01
   7  -1  -4   27.83    1.10
   7   1   4   29.48    1.02
  -7   1  -4   29.71    1.18
  -7  -1   4   30.04    1.18
  -8   1   4    7.62    0.62
   8   1  -4    5.89    0.49
  -8  -1  -4    5.88    0.54
   8  -1   4    5.99    0.40
  -8  -1   4    7.11    0.53
   8   1   4    6.44    0.40
   8  -1  -4    5.79    0.48
  -8   1  -4    5.37    0.56
  -9  -1  -4    0.57    0.32
   9   1  -4    0.27    0.20
  -9   1   4    0.92    0.31
   9  -1   4    0.24    0.22
  -9   1  -4    0.42    0.35
   9   1   4    0.39    0.20
  -9  -1   4    0.31    0.25
   9  -1  -4    0.37    0.26
  10   1  -4    4.40    0.49
 -10   1   4    3.98    0.53
 -10  -1  -4    3.42    0.53
  10  -1   4    3.88    0.41
 -10  -1   4    3.39    0.50
  10   1   4    4.46    0.43
 -10   1  -4    4.81    0.57
  10  -1  -4    3.87    0.48
  11   1  -4    6.18    0.61
 -11   1   4    6.65    0.77
 -11  -1  -4    5.61    0.63
 -11  -1   4    7.02    0.75
 -11   1  -4    6.28    0.75
  11  -1  -4    5.83    0.61
  12   1  -4    2.43    0.46
 -12  -1  -4    1.89    0.55
 -12   1   4    1.81    0.50
 -12  -1   4    1.61    0.46
 -12   1  -4    1.63    0.55
  12  -1  -4    1.67    0.42
  13   1  -4    2.31    0.47
 -13  -1  -4    1.99    0.60
 -13   1   4    2.58    0.67
  13  -1  -4    2.25    0.49
 -13  -1   4    2.09    0.61
 -13   1  -4    1.90    0.60
   0   2  -4   72.13    2.18
   0   2  -4   78.81    2.21
   1   2  -4  194.20    5.59
  -1  -2  -4  194.02    5.52
  -1   2   4  200.38    5.54
  -1   2  -4  192.88    5.54
   1  -2  -4  199.28    5.57
  -1  -2   4  196.03    5.52
  -1   2  -4  202.32    5.57
   1   2   4  194.32    5.52
   2   2  -4  188.17    5.41
  -2   2   4  186.05    5.36
  -2  -2  -4  188.72    5.34
  -2  -2   4  184.98    5.34
  -2   2  -4  188.56    5.37
   2   2   4  193.94    5.32
   2  -2  -4  192.15    5.39
   3   2  -4   82.26    2.38
   3  -2   4   78.36    2.31
  -3  -2  -4   80.07    2.33
  -3   2   4   80.61    2.36
  -3   2  -4   75.68    2.36
   3   2   4   77.87    2.27
   3  -2  -4   77.46    2.35
  -3  -2   4   75.94    2.32
   4  -2   4    6.65    0.32
  -4  -2  -4    7.37    0.39
  -4   2   4    6.37    0.38
   4   2  -4    7.25    0.39
  -4   2  -4    5.96    0.37
  -4  -2   4    5.84    0.35
   4  -2  -4    7.12    0.39
   4   2   4    6.32    0.29
   5   2  -4    2.87    0.28
  -5   2   4    2.50    0.30
  -5  -2  -4    2.44    0.27
   5  -2   4    2.61    0.23
   5   2   4    2.47    0.20
   5  -2  -4    2.26    0.25
  -5  -2   4    2.01    0.27
  -5   2  -4    2.62    0.30
  -6   2   4    9.49    0.60
   6  -2   4   10.03    0.46
   6   2  -4   10.74    0.55
  -6  -2  -4   10.25    0.57
  -6   2  -4    9.35    0.60
   6   2   4    9.82    0.45
  -6  -2   4   10.27    0.57
   6  -2  -4    9.68    0.51
  -7   2   4   52.15    1.83
   7   2  -4   52.77    1.77
   7  -2   4   53.09    1.67
  -7  -2  -4   51.84    1.79
   7  -2  -4   51.18    1.75
   7   2   4   50.67    1.65
  -7  -2   4   51.66    1.78
  -7   2  -4   52.38    1.85
   8   2  -4   11.68    0.63
   8  -2   4   11.28    0.57
  -8   2   4   12.60    0.73
  -8  -2  -4   11.61    0.71
  -8   2  -4   11.34    0.75
   8  -2  -4   12.58    0.65
   8   2   4   12.39    0.58
  -8  -2   4   12.21    0.73
  -9  -2  -4   20.64    1.02
   9   2  -4   20.65    0.96
   9  -2   4   20.70    0.87
  -9   2   4   21.77    1.09
  -9   2  -4   21.09    1.08
   9  -2  -4   20.60    0.96
  -9  -2   4   21.11    1.04
   9   2   4   19.68    0.85
  10   2  -4    0.56    0.23
  10  -2   4    0.51    0.24
 -10  -2  -4    0.15    0.34
 -10   2   4   -0.45    0.36
 -10   2  -4    0.51    0.40
 -10  -2   4   -0.18    0.33
  10  -2  -4    0.30    0.28
  11   2  -4    1.16    0.36
 -11  -2  -4    0.52    0.40
 -11   2   4    0.64    0.37
 -11   2  -4    0.83    0.46
  11  -2  -4    0.84    0.29
 -11  -2   4    0.53    0.33
 -12  -2  -4    2.25    0.54
 -12   2   4    1.69    0.58
  12   2  -4    1.50    0.39
  12  -2  -4    2.82    0.49
 -12   2  -4    2.85    0.61
 -12  -2   4    2.02    0.54
 -13  -2  -4   -0.17    0.43
  13   2  -4   -0.40    0.30
 -13   2   4    1.10    0.57
  13  -2  -4    0.43    0.37
 -13  -2   4   -0.01    0.34
 -13   2  -4   -0.36    0.46
   0   3  -4  321.71    9.23
   0   3   4  327.51    9.31
   0   3   4  334.32    9.23
   0   3  -4  341.21    9.35
  -1  -3  -4  129.43    3.61
   1   3  -4  133.15    3.71
  -1   3  -4  128.11    3.69
   1   3   4  123.45    3.64
  -1  -3   4  126.78    3.61
   1  -3  -4  124.64    3.68
   2   3  -4   19.44    0.71
  -2  -3  -4   18.74    0.64
  -2   3   4   17.84    0.67
  -2  -3   4   18.69    0.64
   2  -3  -4   19.43    0.70
  -2   3  -4   19.59    0.68
  -2   3  -4   19.47    0.69
   2   3   4   19.57    0.63
   3   3  -4  150.80    4.33
  -3  -3  -4  145.97    4.23
   3  -3   4  141.89    4.26
  -3   3   4  147.91    4.28
   3   3   4  147.05    4.22
  -3   3  -4  148.93    4.28
   3  -3  -4  153.07    4.31
  -3  -3   4  147.28    4.23
   4   3  -4   20.59    0.79
  -4   3   4   20.44    0.78
   4  -3   4   19.40    0.72
  -4  -3  -4   19.76    0.74
   4   3   4   19.61    0.68
  -4  -3   4   19.49    0.74
  -4   3  -4   19.86    0.78
   4  -3  -4   18.97    0.75
  -5  -3  -4   79.48    2.42
   5  -3   4   77.61    2.38
   5   3  -4   80.12    2.46
  -5   3   4   79.00    2.48
   5  -3  -4   75.80    2.43
   5   3   4   79.03    2.35
  -5   3  -4   78.25    2.47
  -5  -3   4   79.61    2.42
  -6   3   4    7.89    0.52
   6   3  -4    8.25    0.50
   6  -3   4    8.72    0.45
  -6  -3  -4    8.18    0.51
   6   3   4    9.18    0.42
   6  -3  -4    9.08    0.49
  -6  -3   4    8.66    0.49
  -6   3  -4    9.10    0.54
  -7  -3  -4    4.86    0.46
  -7   3   4    4.74    0.47
   7   3  -4    5.15    0.42
   7  -3   4    4.92    0.36
   7   3   4    5.41    0.34
  -7  -3   4    4.54    0.45
   7  -3  -4    4.70    0.44
  -7   3  -4    4.47    0.46
  -8  -3  -4    9.25    0.58
   8  -3   4    8.92    0.51
   8   3  -4    9.75    0.59
  -8   3   4    8.28    0.67
  -8  -3   4    9.22    0.59
  -8   3  -4    9.46    0.64
   8   3   4    9.07    0.51
   8  -3  -4    8.90    0.59
   9  -3   4   13.42    0.66
  -9  -3  -4   12.64    0.77
  -9   3   4   14.30    0.88
   9   3  -4   13.49    0.74
   9   3   4   12.38    0.64
   9  -3  -4   12.57    0.74
  -9  -3   4   11.72    0.72
  -9   3  -4   12.36    0.79
 -10  -3  -4    4.92    0.58
 -10   3   4    4.88    0.60
  10  -3   4    4.57    0.45
  10   3  -4    5.89    0.57
 -10  -3   4    5.78    0.62
 -10   3  -4    5.57    0.66
  10  -3  -4    5.77    0.58
  11  -3   4    1.53    0.33
  11   3  -4    1.46    0.39
 -11   3   4    2.50    0.58
 -11  -3  -4    1.36    0.43
 -11   3  -4    2.03    0.46
 -11  -3   4    1.52    0.48
  11  -3  -4    1.52    0.39
 -12  -3  -4    4.12    0.62
  12   3  -4    3.53    0.52
 -12   3   4    2.88    0.65
 -12   3  -4    3.50    0.62
 -12  -3   4    4.48    0.66
  12  -3  -4    3.19    0.53
 -13   3   4    4.60    0.77
 -13  -3  -4    2.31    0.55
  13   3  -4    2.08    0.47
 -13   3  -4    2.35    0.66
  13  -3  -4    2.43    0.53
 -13  -3   4    2.78    0.62
   0   4   4   45.76    1.45
   0   4   4   49.14    1.38
   0   4  -4   46.63    1.49
   0   4  -4   46.37    1.39
   1   4  -4    2.21    0.22
  -1   4   4    1.97    0.16
  -1   4  -4    2.44    0.24
  -1  -4   4    2.89    0.16
  -1   4  -4    2.73    0.20
   1   4   4    2.60    0.20
   1  -4  -4    2.46    0.23
   2   4  -4   12.13    0.53
  -2  -4  -4   11.67    0.43
  -2  -4   4   12.63    0.44
  -2   4  -4   11.41    0.50
  -2   4  -4   11.73    0.48
   2  -4  -4   11.66    0.52
   2   4   4   11.61    0.46
  -3   4   4   10.67    0.50
   3   4  -4   11.02    0.54
  -3  -4  -4   10.59    0.45
  -3  -4   4   11.79    0.46
  -3   4  -4   11.34    0.51
   3  -4  -4   11.37    0.51
   3   4   4   11.29    0.45
  -4   4   4   86.21    2.63
   4   4  -4   85.27    2.66
   4  -4   4   87.10    2.61
  -4  -4  -4   86.80    2.57
  -4  -4   4   85.71    2.57
  -4   4  -4   81.73    2.62
   4  -4  -4   88.19    2.66
   4   4   4   88.23    2.56
  -5  -4  -4   12.78    0.57
   5  -4   4   12.97    0.58
   5   4  -4   12.84    0.60
  -5   4   4   12.64    0.61
   5   4   4   11.82    0.52
  -5   4  -4   12.94    0.62
   5  -4  -4   12.23    0.61
  -5  -4   4   11.41    0.56
  -6  -4  -4    4.68    0.38
  -6   4   4    4.29    0.44
   6  -4   4    4.93    0.36
   6   4  -4    5.02    0.37
   6  -4  -4    5.39    0.42
   6   4   4    4.31    0.31
  -6   4  -4    4.76    0.44
  -6  -4   4    4.97    0.40
   7  -4   4   37.61    1.30
  -7  -4  -4   37.06    1.35
  -7   4   4   36.34    1.41
   7   4  -4   36.92    1.35
  -7   4  -4   37.30    1.44
  -7  -4   4   37.19    1.36
   7   4   4   36.28    1.26
   7  -4  -4   35.78    1.36
   8  -4   4    8.20    0.51
  -8   4   4    8.33    0.61
   8   4  -4    8.57    0.58
  -8  -4  -4    7.21    0.56
  -8  -4   4    8.81    0.56
  -8   4  -4    9.27    0.63
   8  -4  -4    9.50    0.57
   8   4   4    8.20    0.49
  -9   4   4   14.27    0.90
   9   4  -4   14.66    0.79
   9  -4   4   12.65    0.69
  -9  -4  -4   14.24    0.79
   9   4   4   14.76    0.69
  -9  -4   4   14.33    0.77
  -9   4  -4   14.79    0.91
   9  -4  -4   14.35    0.79
  10   4  -4   17.93    0.94
  10  -4   4   17.40    0.85
 -10  -4  -4   18.65    0.97
 -10   4   4   20.41    1.13
 -10   4  -4   20.89    1.13
 -10  -4   4   18.53    0.99
  10  -4  -4   18.08    0.95
  11   4  -4    4.73    0.56
 -11  -4  -4    5.60    0.64
  11  -4   4    5.09    0.52
 -11   4   4    5.54    0.70
 -11  -4   4    5.76    0.66
 -11   4  -4    5.23    0.74
  11  -4  -4    6.76    0.67
 -12   4   4    0.87    0.53
 -12  -4  -4    0.01    0.37
  12   4  -4    0.15    0.32
 -12  -4   4    0.17    0.32
  12  -4  -4    0.44    0.36
 -12   4  -4    0.24    0.49
 -13  -4  -4    1.33    0.51
  13   4  -4    0.49    0.37
 -13   4   4    0.77    0.55
 -13  -4   4    1.37    0.51
  13  -4  -4    0.72    0.39
 -13   4  -4    1.74    0.54
   0   5  -4    7.12    0.30
   0   5   4    7.65    0.29
   0   5   4    7.03    0.38
   0   5  -4    7.69    0.40
   1   5  -4   22.58    0.88
  -1   5   4   23.62    0.77
  -1   5  -4   23.72    0.79
  -1  -5   4   23.98    0.75
  -1   5  -4   25.03    0.90
   1   5   4   25.00    0.73
   1   5   4   24.04    0.84
   1  -5  -4   23.20    0.87
  -2   5   4   85.01    2.42
  -2  -5  -4   86.16    2.35
   2   5  -4   84.25    2.52
  -2   5  -4   69.33    2.40
   2   5   4   83.28    2.44
  -2  -5   4   79.37    2.35
   2  -5  -4   80.85    2.50
  -2   5  -4   85.04    2.51
  -3   5   4    4.63    0.32
  -3  -5  -4    4.92    0.26
   3   5  -4    4.88    0.34
   3  -5  -4    4.21    0.32
  -3   5  -4    4.31    0.34
   3   5   4    4.07    0.28
  -3   5  -4    4.41    0.31
  -3  -5   4    3.73    0.25
  -4   5   4    1.33    0.24
  -4  -5  -4    1.48    0.19
   4   5  -4    1.11    0.24
   4  -5   4    0.94    0.19
   4  -5  -4    1.10    0.24
   4   5   4    1.15    0.20
  -4  -5   4    1.30    0.20
  -4   5  -4    1.68    0.25
   5   5  -4    0.35    0.17
   5  -5   4    0.60    0.20
  -5   5   4    0.55    0.22
  -5  -5  -4    0.47    0.16
  -5   5  -4    0.64    0.23
   5   5   4    0.27    0.15
   5  -5  -4    0.46    0.21
  -5  -5   4    0.45    0.18
   6   5  -4   30.41    1.16
  -6  -5  -4   29.75    1.08
  -6   5   4   27.80    1.14
   6  -5   4   29.48    1.09
  -6   5  -4   29.04    1.17
   6   5   4   29.56    1.05
  -6  -5   4   30.54    1.09
   6  -5  -4   29.14    1.14
  -7  -5  -4    9.52    0.56
  -7   5   4    9.08    0.65
   7   5  -4    9.21    0.59
   7  -5   4    9.91    0.56
  -7  -5   4    9.50    0.57
  -7   5  -4    8.13    0.58
   7  -5  -4    8.71    0.55
   7   5   4    8.69    0.50
   8   5  -4   33.43    1.35
  -8   5   4   33.24    1.41
  -8  -5  -4   34.79    1.33
   8  -5   4   34.83    1.30
  -8  -5   4   36.25    1.35
  -8   5  -4   33.92    1.41
   8  -5  -4   36.25    1.39
   8   5   4   37.41    1.28
   9   5  -4    1.21    0.32
  -9   5   4    1.63    0.44
   9  -5   4    1.13    0.28
  -9  -5  -4    1.26    0.33
  -9  -5   4    1.30    0.34
  -9   5  -4    1.88    0.44
   9  -5  -4    1.51    0.32
  10   5  -4   -0.19    0.25
 -10  -5  -4    0.34    0.29
 -10   5   4    0.58    0.41
  10  -5   4    0.21    0.24
 -10   5  -4   -0.03    0.36
 -10  -5   4    0.36    0.31
  10  -5  -4    0.15    0.30
 -11   5   4    2.41    0.50
 -11  -5  -4    2.13    0.45
  11  -5   4    2.23    0.39
  11   5  -4    2.41    0.43
 -11   5  -4    2.75    0.52
  11  -5  -4    2.49    0.48
 -11  -5   4    1.86    0.45
 -12  -5  -4    0.38    0.39
  12   5  -4    0.24    0.32
 -12   5   4    0.20    0.49
 -12   5  -4   -0.41    0.44
 -12  -5   4    1.55    0.46
  12  -5  -4    0.75    0.39
 -13   5   4    0.77    0.58
  13   5  -4    0.13    0.33
 -13  -5  -4   -0.31    0.38
 -13  -5   4    0.20    0.42
  13  -5  -4    0.51    0.38
 -13   5  -4    0.81    0.57
   0   6  -4    1.90    0.24
   0   6   4    1.67    0.22
   0   6   4    1.58    0.13
  -1   6   4   14.99    0.53
   1   6  -4   14.74    0.67
  -1   6  -4   15.52    0.67
   1   6   4   14.95    0.47
  -1   6  -4   15.15    0.55
   1   6   4   14.87    0.62
  -1  -6   4   14.96    0.50
   2   6  -4   31.07    1.12
  -2   6   4   31.90    1.01
   2   6   4   30.91    1.06
  -2   6  -4   30.22    1.12
  -2  -6   4   29.50    0.94
   2  -6  -4   28.16    1.09
  -2   6  -4   32.09    1.02
  -3  -6  -4    0.58    0.11
  -3   6   4    0.52    0.14
   3   6  -4    0.59    0.21
  -3  -6   4    0.85    0.14
   3   6   4    0.49    0.15
   3  -6  -4    0.49    0.17
  -3   6  -4    0.26    0.19
  -4  -6  -4   24.70    0.83
  -4   6   4   24.87    0.93
   4   6  -4   24.34    0.98
   4  -6   4   24.07    0.96
  -4   6  -4   24.56    0.93
   4   6   4   24.21    0.89
   4  -6  -4   24.95    0.99
  -4  -6   4   23.85    0.84
   5  -6   4    3.07    0.35
   5   6  -4    3.35    0.39
  -5   6   4    3.17    0.36
  -5  -6  -4    3.34    0.30
   5  -6  -4    3.57    0.41
   5   6   4    3.42    0.32
  -5  -6   4    3.22    0.31
  -5   6  -4    3.03    0.36
   6   6  -4    3.38    0.38
  -6  -6  -4    3.79    0.35
  -6   6   4    3.23    0.41
   6  -6   4    4.00    0.38
   6   6   4    3.41    0.34
   6  -6  -4    3.28    0.41
  -6   6  -4    3.38    0.41
  -6  -6   4    4.06    0.38
   7   6  -4   49.42    1.76
   7  -6   4   48.25    1.71
  -7  -6  -4   51.04    1.67
  -7   6   4   45.87    1.77
   7  -6  -4   47.56    1.74
  -7   6  -4   49.85    1.79
   7   6   4   50.58    1.66
  -7  -6   4   49.77    1.67
  -8   6   4    7.35    0.67
  -8  -6  -4    7.39    0.53
   8   6  -4    7.49    0.57
   8  -6   4    6.70    0.48
  -8   6  -4    7.20    0.68
  -8  -6   4    7.32    0.54
   8  -6  -4    8.35    0.61
   8   6   4    7.74    0.51
  -9   6   4    0.87    0.32
   9   6  -4    0.62    0.28
   9  -6   4    0.95    0.27
  -9  -6  -4    1.07    0.30
  -9   6  -4    0.24    0.34
  -9  -6   4    0.95    0.31
   9  -6  -4    0.11    0.29
  10  -6   4    1.19    0.31
 -10  -6  -4    1.29    0.35
 -10   6   4    0.99    0.36
  10   6  -4    0.64    0.32
 -10   6  -4    0.96    0.42
 -10  -6   4    0.73    0.34
  10  -6  -4    1.27    0.38
  11  -6   4    1.52    0.37
 -11   6   4    0.85    0.47
  11   6  -4    1.52    0.41
 -11  -6   4    1.01    0.39
  11  -6  -4    2.30    0.48
 -11   6  -4    1.81    0.47
 -12   6   4    0.47    0.51
  12   6  -4    0.03    0.34
 -12   6  -4    0.76    0.52
  12  -6  -4    0.10    0.39
   0   7  -4   18.34    0.80
   0   7   4   19.08    0.78
   0  -7   4   17.66    0.59
   0   7   4   18.59    0.57
   1   7  -4    7.34    0.45
  -1   7   4    7.64    0.33
  -1   7   4    7.16    0.46
   1   7   4    8.17    0.46
  -1  -7   4    7.91    0.29
  -1   7  -4    8.19    0.35
  -1   7  -4    7.84    0.50
  -2   7   4    7.54    0.37
   2   7  -4    7.32    0.46
  -2   7  -4    7.73    0.38
  -2   7  -4    7.62    0.50
   2   7   4    8.03    0.45
   2   7   4    7.85    0.27
  -2  -7   4    7.63    0.30
   2  -7  -4    6.59    0.46
  -3   7   4   28.23    1.01
   3   7  -4   28.98    1.13
  -3  -7  -4   30.64    0.90
   3  -7  -4   27.88    1.11
  -3   7  -4   30.05    1.03
  -3  -7   4   29.09    0.93
  -3   7  -4   29.60    1.14
   3   7   4   28.83    1.05
  -4  -7  -4   21.80    0.72
   4   7  -4   21.00    0.91
   4  -7   4   19.97    0.90
  -4  -7   4   20.92    0.74
   4   7   4   21.17    0.83
  -4   7  -4   21.09    0.85
   4  -7  -4   20.10    0.89
   5  -7   4   26.65    1.07
   5   7  -4   24.55    1.08
  -5   7   4   25.66    1.02
  -5  -7  -4   26.83    0.92
  -5   7  -4   25.41    1.02
  -5  -7   4   27.61    0.93
   5  -7  -4   25.90    1.07
   5   7   4   24.72    0.99
   6   7  -4   17.42    0.83
  -6   7   4   16.35    0.82
   6  -7   4   16.88    0.82
  -6  -7  -4   17.96    0.73
  -6   7  -4   16.72    0.82
   6  -7  -4   18.31    0.88
  -6  -7   4   17.84    0.74
   6   7   4   16.81    0.75
   7  -7   4   12.87    0.71
  -7   7   4   12.77    0.76
   7   7  -4   11.99    0.73
   7  -7  -4   13.15    0.77
  -7  -7   4   14.61    0.69
   7   7   4   13.29    0.65
  -7   7  -4   11.95    0.70
  -8   7   4    7.77    0.66
   8   7  -4    8.34    0.62
   8  -7   4    8.63    0.60
   8   7   4    8.04    0.55
  -8  -7   4    8.01    0.56
   8  -7  -4    9.14    0.66
  -8   7  -4    7.78    0.65
   9   7  -4    2.44    0.42
  -9   7   4    3.12    0.51
   9  -7   4    3.04    0.42
   9  -7  -4    2.54    0.40
  -9   7  -4    2.59    0.44
  10  -7   4    5.53    0.58
  10   7  -4    5.94    0.62
 -10   7   4    6.45    0.74
 -10   7  -4    6.48    0.73
  10  -7  -4    5.99    0.66
 -11   7   4    2.82    0.60
  11  -7   4    3.51    0.49
  11   7  -4    2.77    0.48
 -11   7  -4    3.17    0.62
  11  -7  -4    2.75    0.47
 -12   7   4    2.85    0.64
  12   7  -4    4.17    0.59
 -12   7  -4    3.93    0.70
  12  -7  -4    2.89    0.57
   0   8  -4    2.11    0.31
   0  -8   4    2.60    0.16
   0   8   4    2.18    0.29
  -1   8   4   12.97    0.68
  -1   8   4   13.65    0.49
   1   8  -4   13.80    0.68
  -1   8  -4   14.42    0.70
  -1   8  -4   13.77    0.50
   1   8   4   13.45    0.66
   2   8  -4    4.57    0.39
  -2   8   4    4.18    0.28
   2   8   4    4.59    0.38
  -2   8  -4    4.41    0.30
   2  -8  -4    4.07    0.42
  -2   8  -4    4.30    0.45
  -3   8   4   36.06    1.16
   3   8  -4   31.99    1.30
   3  -8  -4   31.38    1.28
  -3   8  -4   35.49    1.17
   3   8   4   32.85    1.22
  -3   8  -4   33.65    1.31
   4  -8   4    8.65    0.59
   4   8  -4    9.49    0.61
  -4   8   4    8.97    0.50
  -4   8  -4    9.13    0.51
   4   8   4    8.71    0.51
   4  -8  -4    8.60    0.59
   5   8  -4    2.44    0.36
  -5   8   4    3.90    0.40
   5  -8   4    3.04    0.42
  -5   8  -4    3.76    0.39
   5   8   4    3.70    0.37
   5  -8  -4    3.63    0.42
   6  -8   4    6.13    0.52
  -6   8   4    5.64    0.51
   6   8  -4    6.17    0.57
   6  -8  -4    6.24    0.58
  -6   8  -4    6.87    0.51
   6   8   4    6.48    0.46
   7   8  -4    2.42    0.41
  -7   8   4    3.73    0.43
   7  -8   4    2.22    0.38
   7   8   4    2.83    0.37
   7  -8  -4    3.49    0.48
  -7   8  -4    3.40    0.44
  -8   8   4   10.89    0.74
   8   8  -4    8.41    0.66
   8  -8   4   10.55    0.69
   8  -8  -4   11.05    0.75
  -8   8  -4    9.97    0.72
   9   8  -4    2.55    0.45
  -9   8   4    2.96    0.51
   9  -8   4    2.61    0.42
  -9   8  -4    1.86    0.45
   9  -8  -4    2.73    0.43
 -10   8   4    2.99    0.56
  10   8  -4    2.46    0.45
  10  -8   4    2.93    0.47
 -10   8  -4    3.35    0.52
  10  -8  -4    2.81    0.51
  11  -8   4    1.72    0.42
 -11   8   4    1.18    0.49
  11   8  -4    1.08    0.39
 -11   8  -4    2.74    0.58
  11  -8  -4    1.81    0.49
  12   8  -4    2.17    0.47
 -12   8   4    1.90    0.49
  12  -8  -4    1.67    0.51
 -12   8  -4    1.66    0.56
   0   9  -4    9.03    0.58
   0   9   4    9.80    0.60
  -1   9   4   38.90    1.48
   1   9  -4   39.33    1.49
   1   9   4   40.86    1.47
  -1   9  -4   41.51    1.53
   2   9  -4    3.22    0.40
   2   9   4    3.36    0.39
  -2   9  -4    3.74    0.43
   2  -9  -4    3.42    0.43
   3   9  -4    1.63    0.32
   3  -9  -4    2.15    0.38
  -3   9  -4    2.54    0.28
  -3   9  -4    2.39    0.40
   3   9   4    2.44    0.34
   4   9  -4   25.78    1.20
  -4   9   4   31.34    1.08
   4  -9   4   25.99    1.21
  -4   9  -4   31.53    1.11
   4  -9  -4   28.96    1.21
   4   9   4   30.03    1.14
   5  -9   4    7.67    0.60
   5   9  -4    8.35    0.62
   5   9   4    7.38    0.51
   5  -9  -4    8.40    0.64
   6   9  -4    1.38    0.36
   6  -9   4    2.31    0.37
  -6   9   4    2.80    0.37
  -6   9  -4    2.19    0.35
   6  -9  -4    1.63    0.38
   6   9   4    2.37    0.34
   7   9  -4    7.02    0.64
  -7   9   4    6.21    0.59
   7  -9   4    6.58    0.61
  -7   9  -4    5.83    0.55
   7  -9  -4    5.42    0.60
   7   9   4    6.34    0.52
   8  -9   4    5.94    0.58
  -8   9   4    6.75    0.64
   8   9  -4    6.49    0.64
  -8   9  -4    5.97    0.62
   8  -9  -4    8.77    0.70
  -9   9   4    4.51    0.59
   9   9  -4    5.00    0.59
   9  -9   4    5.35    0.60
  -9   9  -4    4.62    0.59
   9  -9  -4    5.00    0.63
  10  -9   4    1.96    0.39
  10   9  -4    1.71    0.44
 -10   9   4    1.77    0.48
  10  -9  -4    1.90    0.43
 -10   9  -4    1.33    0.45
  11   9  -4    2.50    0.50
  11  -9   4    1.86    0.46
 -11   9   4    2.19    0.54
  11  -9  -4    1.51    0.50
 -11   9  -4    3.19    0.60
   0  10   4    1.18    0.33
   0  10  -4    1.89    0.34
  -1  10   4   10.02    0.62
   1  10  -4    8.86    0.66
  -1  10  -4    9.78    0.64
   1  10   4   10.40    0.61
   2  10  -4    5.55    0.54
   2  10   4    6.23    0.50
   2 -10  -4    5.17    0.54
  -2  10  -4    5.85    0.57
   3  10  -4    0.11    0.27
  -3  10  -4    0.10    0.28
   3 -10  -4   -0.04    0.19
   3  10   4    0.41    0.26
   4 -10   4    0.40    0.30
   4  10  -4    0.40    0.30
   4  10   4    0.16    0.23
   4 -10  -4    0.48    0.30
   5  10  -4    3.12    0.44
   5 -10   4    1.56    0.41
   5 -10  -4    3.27    0.47
   5  10   4    2.87    0.38
   6  10  -4   11.59    0.77
   6 -10   4   10.77    0.76
   6 -10  -4   12.21    0.80
   6  10   4   10.81    0.65
   7  10  -4    9.06    0.72
   7 -10   4    9.82    0.74
   7 -10  -4   11.36    0.81
   7  10   4    8.80    0.61
  -7  10  -4   10.16    0.67
   8  10  -4    5.98    0.65
   8 -10   4    6.77    0.68
  -8  10   4    5.47    0.60
  -8  10  -4    6.22    0.63
   8 -10  -4    7.65    0.75
   9 -10   4    4.63    0.60
   9  10  -4    5.19    0.62
  -9  10   4    5.06    0.61
  -9  10  -4    4.49    0.59
   9 -10  -4    5.01    0.62
 -10  10   4    0.60    0.40
  10  10  -4    0.95    0.40
  10 -10   4    0.53    0.38
  10 -10  -4    0.01    0.40
 -10  10  -4    0.60    0.39
  11  10  -4    0.56    0.38
  11 -10   4   -0.15    0.34
 -11  10   4    0.63    0.43
  11 -10  -4    0.15    0.43
 -11  10  -4    0.20    0.37
   0  11   4    6.01    0.59
   0  11  -4    6.09    0.59
   1  11  -4   32.96    1.42
  -1  11   4   35.87    1.43
   1  11   4   34.35    1.38
  -1  11  -4   32.70    1.43
   2  11  -4    8.50    0.62
   2  11   4    8.70    0.63
  -2  11  -4    8.91    0.65
   2 -11  -4    8.71    0.68
   3  11  -4   10.08    0.72
   3  11   4    9.26    0.64
   3 -11  -4   10.69    0.70
  -3  11  -4    9.71    0.70
   4 -11   4    7.24    0.69
   4  11  -4    6.76    0.57
   4  11   4    6.23    0.54
   4 -11  -4    6.62    0.64
   5  11  -4    6.13    0.64
   5 -11   4    5.93    0.65
   5 -11  -4    5.84    0.61
   5  11   4    4.28    0.49
   6  11  -4   12.11    0.83
   6 -11   4   13.28    0.82
   6 -11  -4   11.92    0.81
   6  11   4   11.67    0.72
   7  11  -4   16.19    0.97
   7 -11   4   16.75    1.01
   7 -11  -4   15.43    1.01
   8 -11   4    2.44    0.46
   8  11  -4    3.09    0.52
   8 -11  -4    3.01    0.58
   9 -11   4    3.69    0.60
   9  11  -4    3.40    0.56
   9 -11  -4    4.31    0.61
  10  11  -4    0.35    0.37
  10 -11   4    0.44    0.41
  10 -11  -4    0.73    0.47
   0  12  -4   17.62    0.95
   0  12   4   16.53    0.94
   1  12  -4    3.07    0.47
  -1  12  -4    2.96    0.46
   1  12   4    3.43    0.48
   2  12  -4    9.74    0.75
  -2  12  -4    9.45    0.77
   2 -12  -4    8.50    0.72
   2  12   4    8.92    0.67
   3  12  -4    4.03    0.51
  -3  12  -4    4.23    0.58
   3 -12  -4    4.39    0.54
   3  12   4    3.52    0.47
   4  12  -4    3.47    0.53
   4 -12   4    4.22    0.56
   4 -12  -4    4.88    0.58
   4  12   4    2.66    0.43
   5 -12   4    0.01    0.35
   5  12  -4    0.02    0.31
   5 -12  -4   -0.18    0.34
   5  12   4    0.23    0.31
   6  12  -4    1.00    0.41
   6 -12   4    0.79    0.42
   6 -12  -4    1.07    0.43
   6  12   4    0.73    0.32
   7 -12   4    1.17    0.45
   7  12  -4    1.73    0.46
   7 -12  -4    1.89    0.46
   8 -12   4    2.73    0.57
   8  12  -4    3.32    0.57
   8 -12  -4    2.64    0.59
   9  12  -4    3.10    0.55
   9 -12   4    2.33    0.56
   9 -12  -4    2.50    0.61
   0  13  -4    4.05    0.60
   0  13   4    4.31    0.57
   1  13  -4    4.42    0.61
  -1  13  -4    4.45    0.62
   1  13   4    4.38    0.57
   1 -13  -4    4.69    0.61
   2  13  -4    2.43    0.46
   2  13   4    1.59    0.35
   2 -13  -4    2.83    0.52
  -2  13  -4    2.72    0.54
   3  13  -4    8.22    0.80
  -3  13  -4    9.78    0.88
   3 -13  -4   10.50    0.83
   3  13   4    7.32    0.60
   4 -13   4    3.36    0.58
   4  13  -4    2.18    0.45
   4  13   4    3.15    0.47
   4 -13  -4    2.58    0.49
   5  13  -4    6.79    0.74
   5 -13   4    7.26    0.80
   5 -13  -4    7.22    0.81
   6  13  -4    2.36    0.50
   6 -13   4    1.57    0.44
   6 -13  -4    2.31    0.57
   7  13  -4    5.34    0.63
   7 -13   4    4.73    0.65
   7 -13  -4    3.94    0.67
   8  13  -4    3.91    0.61
   8 -13   4    3.18    0.64
   8 -13  -4    2.87    0.66
   0  14  -4   16.15    1.07
   0  14   4   15.85    0.95
   1  14  -4    4.00    0.63
   1 -14  -4    4.58    0.64
   1  14   4    4.56    0.61
  -1  14  -4    5.04    0.65
   2  14  -4    4.89    0.67
  -2  14  -4    3.99    0.64
   2  14   4    3.14    0.53
   2 -14  -4    4.86    0.68
   3  14  -4    3.99    0.65
   3 -14  -4    4.68    0.63
   3  14   4    3.22    0.52
   4  14  -4    4.02    0.63
   4 -14   4    3.69    0.67
   4  14   4    4.90    0.60
   4 -14  -4    5.11    0.72
   5  14  -4    7.04    0.79
   5 -14   4    6.84    0.83
   5 -14  -4    7.27    0.84
   5  14   4    5.93    0.64
   6  14  -4    0.24    0.41
   6 -14   4    0.46    0.46
   6 -14  -4    0.50    0.46
   7  14  -4    0.40    0.40
   7 -14   4    0.59    0.47
   7 -14  -4   -0.01    0.46
   0  15  -4    3.34    0.64
   1  15  -4    0.94    0.49
   1  15   4    0.62    0.44
   1 -15  -4    0.82    0.46
  -1  15  -4    1.58    0.52
   2  15  -4    1.97    0.54
  -2  15  -4    1.64    0.54
   2  15   4    1.68    0.49
   2 -15  -4    1.45    0.50
   3 -15   4    0.44    0.47
   3  15  -4   -0.01    0.32
   3  15   4    0.10    0.34
   3 -15  -4    0.94    0.46
   4 -15   4    1.63    0.57
   4  15  -4    0.78    0.47
   4  15   4    1.74    0.47
   4 -15  -4    1.99    0.55
   5 -15   4    6.23    0.78
   5  15  -4    6.87    0.83
   5  15   4    4.46    0.65
   5 -15  -4    8.12    0.87
   6  15  -4    0.56    0.45
   6 -15   4    0.81    0.51
   6 -15  -4    0.05    0.47
   0 -16  -4   -0.22    0.38
   0  16  -4   -0.27    0.44
   1  16  -4   -0.41    0.42
   1  16   4   -0.15    0.27
   1 -16  -4    0.16    0.44
  -1  16  -4    0.39    0.48
   2  16  -4    0.74    0.53
   2  16   4    0.86    0.48
   2 -16  -4    0.72    0.49
  -2  16  -4    0.17    0.48
   3  16  -4   -0.22    0.40
   3 -16   4    0.08    0.36
   3 -16  -4    0.51    0.48
   3  16   4   -0.19    0.39
   4 -16   4    4.31    0.75
   4  16  -4    3.41    0.66
   4 -16  -4    3.71    0.73
   4  16   4    4.47    0.65
   0   0  -5    0.00    0.06
   0   0   5   -0.05    0.10
  -1   0   5  347.68    9.75
   1   0  -5  347.09    9.79
  -1   0  -5  352.07    9.76
  -2   0  -5    0.49    0.14
  -2   0   5    0.19    0.13
   2   0  -5    0.21    0.12
  -3   0   5  227.32    6.42
  -3   0  -5  222.04    6.43
   3   0  -5  229.50    6.45
   3   0   5  224.65    6.34
   4   0   5    8.36    0.33
  -4   0   5    8.92    0.44
   4   0  -5    8.36    0.41
  -4   0  -5    8.62    0.46
   5   0  -5   16.69    0.70
  -5   0  -5   16.17    0.71
  -5   0   5   17.05    0.74
   5   0   5   16.19    0.58
   6   0  -5    2.23    0.28
  -6   0   5    1.95    0.33
  -6   0  -5    2.26    0.33
   6   0   5    1.82    0.20
  -7   0   5   -0.20    0.24
   7   0  -5   -0.07    0.19
   7   0   5   -0.02    0.13
  -7   0  -5    0.07    0.24
   8   0  -5   24.14    1.02
  -8   0   5   25.10    1.13
  -8   0  -5   25.01    1.12
   8   0   5   24.83    0.93
   9   0  -5   14.52    0.80
  -9   0  -5   15.80    0.90
   9   0   5   14.95    0.68
  -9   0   5   15.57    0.86
  10   0  -5   24.64    1.11
 -10   0  -5   24.01    1.21
 -10   0   5   22.93    1.16
 -11   0   5    1.08    0.48
  11   0  -5    1.89    0.41
 -11   0  -5    1.02    0.47
 -12   0   5    4.70    0.73
  12   0  -5    3.25    0.52
 -12   0  -5    3.18    0.62
  13   0  -5    2.05    0.48
 -13   0   5    2.34    0.56
 -13   0  -5    2.16    0.54
   0  -1  -5  201.79    5.59
   0   1  -5  201.56    5.61
   0   1   5  194.62    5.60
   1   1  -5  119.36    3.32
  -1   1   5  116.09    3.31
  -1  -1  -5  112.16    3.30
  -1  -1   5  113.54    3.30
   1  -1  -5  115.90    3.30
  -1   1  -5  114.81    3.31
  -1   1  -5  114.83    3.27
   2   1  -5  231.36    6.63
  -2   1   5  240.29    6.60
  -2  -1  -5  230.18    6.58
  -2  -1   5  229.81    6.58
  -2   1  -5  232.24    6.60
   2  -1  -5  234.64    6.61
  -3  -1  -5  199.38    5.78
  -3   1   5  203.46    5.79
   3  -1   5  199.29    5.72
   3   1  -5  201.78    5.82
   3  -1  -5  207.41    5.81
  -3  -1   5  204.24    5.78
   3   1   5  204.33    5.69
  -3   1  -5  202.68    5.80
   4  -1   5   75.12    2.19
  -4   1   5   74.13    2.30
  -4  -1  -5   74.50    2.29
   4   1  -5   74.51    2.29
   4   1   5   73.30    2.17
  -4   1  -5   75.44    2.31
  -4  -1   5   75.65    2.29
   4  -1  -5   75.48    2.29
   5   1  -5   18.44    0.74
  -5   1   5   19.11    0.80
   5  -1   5   18.74    0.65
  -5  -1  -5   19.53    0.79
   5  -1  -5   17.74    0.75
  -5  -1   5   18.34    0.78
  -5   1  -5   18.20    0.78
   5   1   5   18.68    0.64
  -6   1   5   11.28    0.60
   6  -1   5   10.80    0.47
  -6  -1  -5   11.27    0.62
   6   1  -5   11.51    0.56
   6  -1  -5   12.01    0.57
   6   1   5   10.99    0.47
  -6  -1   5   11.40    0.59
  -6   1  -5   11.65    0.64
   7   1  -5    6.32    0.43
   7  -1   5    6.26    0.38
  -7  -1  -5    6.47    0.52
  -7   1   5    5.96    0.55
   7   1   5    6.79    0.37
   7  -1  -5    6.96    0.45
  -7  -1   5    6.59    0.48
  -7   1  -5    6.77    0.50
  -8   1   5    7.36    0.57
   8  -1   5    8.06    0.47
  -8  -1  -5    7.61    0.61
   8   1  -5    8.03    0.52
  -8  -1   5    9.60    0.66
   8  -1  -5    8.06    0.52
   8   1   5    7.52    0.43
  -8   1  -5    6.61    0.55
  -9   1   5   25.25    1.18
   9  -1   5   25.93    0.99
  -9  -1  -5   27.55    1.21
   9   1  -5   23.94    1.10
   9  -1  -5   24.58    1.10
   9   1   5   26.69    1.00
  -9   1  -5   27.08    1.24
  -9  -1   5   26.19    1.17
  10  -1   5    3.53    0.39
  10   1  -5    3.25    0.46
 -10  -1  -5    3.07    0.46
 -10   1   5    4.25    0.56
  10  -1  -5    2.81    0.45
 -10  -1   5    3.47    0.49
 -10   1  -5    3.32    0.54
 -11  -1  -5   10.19    0.76
 -11   1   5    9.69    0.79
  11   1  -5    9.86    0.73
 -11   1  -5   11.81    0.91
  11  -1  -5   11.02    0.76
 -11  -1   5   10.71    0.87
 -12   1   5    0.36    0.50
 -12  -1  -5    0.59    0.37
  12   1  -5    0.52    0.35
  12  -1  -5    0.87    0.37
 -12  -1   5    1.57    0.55
 -12   1  -5    0.58    0.51
  13   1  -5    0.73    0.39
 -13   1   5    0.19    0.39
 -13  -1  -5    0.18    0.47
 -13   1  -5    0.78    0.42
 -13  -1   5    2.36    0.61
  13  -1  -5    1.08    0.43
   0  -2  -5   85.33    2.40
   0   2  -5   84.46    2.42
   0   2  -5   84.84    2.43
   0   2   5   79.24    2.40
  -1  -2  -5  220.93    6.35
  -1   2   5  226.51    6.36
   1   2  -5  225.53    6.42
  -1  -2   5  224.05    6.35
  -1   2  -5  228.02    6.37
   1  -2  -5  230.82    6.39
   2   2  -5   61.51    1.81
  -2  -2  -5   58.64    1.76
  -2   2   5   58.93    1.78
   2   2   5   58.69    1.68
  -2  -2   5   57.34    1.76
   2  -2  -5   58.89    1.78
  -2   2  -5   57.15    1.78
   3   2  -5  101.09    2.98
   3  -2   5   98.30    2.90
  -3   2   5  100.39    2.96
  -3  -2  -5  100.40    2.94
  -3   2  -5   96.43    2.96
   3  -2  -5  101.27    2.96
  -3  -2   5  100.78    2.94
   3   2   5  101.83    2.85
   4  -2   5   13.17    0.50
  -4  -2  -5   13.06    0.57
   4   2  -5   12.34    0.58
  -4   2   5   14.22    0.62
   4  -2  -5   13.79    0.57
  -4   2  -5   13.31    0.61
   4   2   5   13.18    0.47
  -4  -2   5   12.98    0.56
   5  -2   5    5.66    0.32
  -5   2   5    5.90    0.44
  -5  -2  -5    5.84    0.38
   5   2  -5    5.94    0.37
   5   2   5    5.61    0.29
   5  -2  -5    6.39    0.40
  -5  -2   5    6.09    0.41
  -5   2  -5    5.91    0.40
   6  -2   5   35.58    1.16
  -6   2   5   34.27    1.30
   6   2  -5   34.23    1.26
  -6  -2  -5   35.86    1.29
   6   2   5   35.57    1.14
  -6   2  -5   35.29    1.33
  -6  -2   5   34.97    1.28
   6  -2  -5   34.93    1.26
   7   2  -5    6.58    0.48
   7  -2   5    6.18    0.39
  -7  -2  -5    7.07    0.53
  -7   2   5    6.31    0.57
  -7  -2   5    6.32    0.53
   7  -2  -5    6.64    0.45
  -7   2  -5    7.32    0.57
   7   2   5    7.10    0.38
  -8  -2  -5    0.49    0.30
   8  -2   5    0.43    0.19
  -8   2   5    0.03    0.29
   8   2  -5    0.54    0.22
  -8   2  -5    0.32    0.32
   8  -2  -5    0.64    0.27
   8   2   5    0.65    0.20
  -8  -2   5    0.29    0.23
   9   2  -5    6.41    0.49
  -9   2   5    5.48    0.63
  -9  -2  -5    6.13    0.57
   9  -2   5    5.41    0.42
  -9   2  -5    5.89    0.64
  -9  -2   5    6.73    0.64
   9  -2  -5    5.46    0.54
  10   2  -5    3.91    0.46
 -10  -2  -5    3.70    0.54
 -10   2   5    3.56    0.59
  10  -2   5    4.21    0.42
 -10  -2   5    5.48    0.62
  10  -2  -5    3.90    0.50
 -10   2  -5    4.71    0.63
  11   2  -5    1.64    0.40
 -11   2   5    0.80    0.39
 -11  -2  -5    0.77    0.40
 -11  -2   5    0.72    0.41
 -11   2  -5    0.59    0.46
  11  -2  -5    0.54    0.34
 -12  -2  -5    4.03    0.63
  12   2  -5    5.08    0.60
 -12   2   5    3.29    0.68
 -12   2  -5    4.56    0.71
 -12  -2   5    4.24    0.62
  12  -2  -5    3.69    0.56
  13   2  -5    2.88    0.53
 -13   2   5    3.65    0.74
 -13  -2  -5    2.52    0.53
 -13   2  -5    3.72    0.66
 -13  -2   5    3.54    0.67
  13  -2  -5    3.08    0.55
   0   3   5    0.15    0.08
   0   3  -5    0.00    0.11
   1   3  -5  147.17    4.26
  -1  -3  -5  147.51    4.17
   1  -3  -5  144.94    4.23
  -1  -3   5  148.63    4.18
  -1   3  -5  150.76    4.24
  -1   3  -5  147.12    4.20
   1   3   5  144.50    4.18
  -2  -3  -5  106.30    3.04
  -2   3   5  106.07    3.07
   2   3  -5  109.18    3.13
  -2   3  -5  103.71    3.07
  -2  -3   5  102.28    3.04
   2  -3  -5  103.68    3.09
  -2   3  -5  104.92    3.08
   2   3   5  105.80    3.01
   3  -3   5   72.12    2.24
   3   3  -5   75.16    2.31
  -3  -3  -5   75.89    2.24
  -3   3   5   72.30    2.27
  -3   3  -5   75.23    2.28
   3   3   5   77.80    2.19
   3  -3  -5   76.79    2.29
  -3  -3   5   74.76    2.24
  -4   3   5   29.42    1.08
  -4  -3  -5   29.96    1.03
   4  -3   5   29.92    1.00
   4   3  -5   29.14    1.07
  -4   3  -5   30.68    1.08
  -4  -3   5   29.40    1.03
   4   3   5   30.90    0.96
   4  -3  -5   30.30    1.06
   5   3  -5   60.93    2.01
   5  -3   5   62.62    1.93
  -5   3   5   62.70    2.03
  -5  -3  -5   61.55    1.98
  -5  -3   5   64.30    1.99
  -5   3  -5   62.15    2.04
   5  -3  -5   63.05    2.01
   5   3   5   63.09    1.89
  -6   3   5   36.39    1.35
   6  -3   5   36.81    1.24
  -6  -3  -5   37.37    1.32
   6   3  -5   36.50    1.32
   6  -3  -5   38.61    1.33
  -6   3  -5   33.70    1.34
   6   3   5   36.39    1.19
  -6  -3   5   38.30    1.33
  -7  -3  -5   13.09    0.66
   7  -3   5   12.41    0.58
  -7   3   5   12.25    0.74
   7   3  -5   13.55    0.68
   7   3   5   12.64    0.55
  -7  -3   5   12.91    0.66
   7  -3  -5   12.29    0.67
  -7   3  -5   12.59    0.75
  -8   3   5    1.79    0.41
   8   3  -5    2.09    0.35
   8  -3   5    2.00    0.29
  -8  -3  -5    1.13    0.33
  -8  -3   5    1.50    0.37
   8  -3  -5    1.61    0.33
   8   3   5    2.01    0.26
  -8   3  -5    1.53    0.39
  -9  -3  -5    1.68    0.33
   9  -3   5    2.01    0.30
   9   3  -5    1.40    0.33
  -9   3   5    1.56    0.43
  -9   3  -5    1.32    0.36
  -9  -3   5    1.79    0.40
   9  -3  -5    1.83    0.36
  10   3  -5    1.45    0.37
 -10  -3  -5    1.87    0.42
 -10   3   5    1.46    0.39
  10  -3   5    1.57    0.30
 -10   3  -5    2.78    0.48
 -10  -3   5    1.74    0.38
  10  -3  -5    1.77    0.40
 -11  -3  -5    0.01    0.35
 -11   3   5    0.02    0.43
  11   3  -5    0.14    0.30
  11  -3  -5    0.09    0.23
 -11  -3   5   -0.23    0.38
 -11   3  -5    0.14    0.42
  12   3  -5    2.55    0.48
 -12  -3  -5    2.25    0.55
 -12   3   5    3.18    0.68
  12  -3  -5    3.51    0.55
 -12  -3   5    2.60    0.59
 -12   3  -5    3.55    0.60
 -13  -3  -5    2.09    0.56
 -13   3   5    2.30    0.64
  13   3  -5    2.19    0.49
 -13   3  -5    2.15    0.64
 -13  -3   5    2.29    0.59
  13  -3  -5    2.71    0.53
   0   4  -5  127.82    3.71
   0   4   5  129.29    3.60
   0   4  -5  123.04    3.61
  -1   4   5   55.43    1.63
   1   4  -5   53.11    1.71
  -1  -4   5   54.53    1.61
   1   4   5   54.00    1.64
   1   4   5   53.32    1.59
   1  -4  -5   53.34    1.68
  -1   4  -5   57.04    1.70
  -2  -4  -5   88.80    2.51
  -2   4   5   87.78    2.55
   2   4  -5   86.52    2.63
  -2   4  -5   85.99    2.56
  -2  -4   5   86.24    2.51
   2   4   5   87.85    2.53
   2  -4  -5   83.83    2.60
  -2   4  -5   84.08    2.59
  -3  -4  -5  206.00    5.85
   3   4  -5  208.22    6.00
  -3   4   5  200.59    5.91
  -3   4  -5  203.99    5.94
  -3   4  -5  197.85    5.91
  -3  -4   5  211.00    5.86
   3  -4  -5  212.78    5.98
   3   4   5  211.00    5.87
  -4  -4  -5   58.72    1.74
  -4   4   5   56.60    1.80
   4  -4   5   54.61    1.75
   4   4  -5   57.03    1.83
  -4   4  -5   52.32    1.78
   4   4   5   54.49    1.69
   4  -4  -5   55.22    1.80
  -4  -4   5   54.86    1.73
   5  -4   5   58.40    1.85
   5   4  -5   57.59    1.92
  -5   4   5   58.32    1.91
  -5  -4  -5   58.07    1.85
   5   4   5   58.89    1.79
  -5   4  -5   58.11    1.92
   5  -4  -5   58.25    1.90
  -5  -4   5   57.74    1.85
   6  -4   5    2.56    0.29
   6   4  -5    3.16    0.37
  -6  -4  -5    3.07    0.34
  -6   4   5    2.67    0.38
  -6  -4   5    3.38    0.36
  -6   4  -5    2.45    0.34
   6   4   5    3.01    0.27
   6  -4  -5    2.89    0.32
  -7  -4  -5    5.56    0.47
  -7   4   5    5.70    0.56
   7   4  -5    5.49    0.47
   7  -4   5    4.83    0.38
   7  -4  -5    5.45    0.49
  -7  -4   5    5.09    0.42
  -7   4  -5    5.36    0.54
   7   4   5    6.43    0.38
   8   4  -5    0.60    0.27
   8  -4   5    1.07    0.25
  -8   4   5    1.11    0.38
  -8  -4  -5    1.21    0.31
   8   4   5    1.00    0.21
  -8  -4   5    0.51    0.30
  -8   4  -5    1.20    0.38
   8  -4  -5    0.86    0.30
   9  -4   5    2.78    0.35
   9   4  -5    2.66    0.42
  -9  -4  -5    3.14    0.45
  -9   4   5    3.55    0.53
  -9  -4   5    3.56    0.47
  -9   4  -5    3.20    0.53
   9  -4  -5    2.69    0.38
 -10  -4  -5    1.08    0.35
  10  -4   5    0.95    0.27
  10   4  -5    0.68    0.32
 -10   4   5    0.72    0.34
 -10  -4   5    0.88    0.37
 -10   4  -5    0.65    0.41
  10  -4  -5    0.47    0.25
 -11  -4  -5    2.47    0.48
  11   4  -5    1.67    0.41
 -11   4   5    1.68    0.54
  11  -4  -5    1.53    0.37
 -11  -4   5    2.26    0.51
 -11   4  -5    2.41    0.58
 -12   4   5    1.39    0.48
  12   4  -5    0.97    0.39
 -12  -4  -5    0.91    0.43
 -12   4  -5    1.83    0.60
 -12  -4   5    0.99    0.50
  12  -4  -5    1.08    0.35
 -13  -4  -5    0.79    0.44
 -13   4   5    0.12    0.53
  13   4  -5    0.11    0.35
  13  -4  -5    0.33    0.37
 -13   4  -5    0.90    0.57
 -13  -4   5    0.25    0.43
   0   5   5    3.13    0.26
   0   5   5    3.08    0.18
   0   5  -5    2.96    0.20
   0   5  -5    3.66    0.30
  -1   5   5   12.38    0.47
   1   5  -5   12.43    0.57
  -1  -5   5   12.64    0.45
  -1   5  -5   12.61    0.48
   1   5   5   12.68    0.51
   1  -5  -5   12.19    0.54
  -1   5  -5   11.79    0.56
   1   5   5   12.01    0.43
  -2   5   5    4.07    0.28
   2   5  -5    4.02    0.34
  -2  -5  -5    4.29    0.22
   2   5   5    3.98    0.28
  -2   5  -5    4.26    0.33
  -2  -5   5    3.99    0.23
   2  -5  -5    4.57    0.33
  -3  -5  -5  109.29    3.17
  -3   5   5  110.97    3.24
   3   5  -5  112.53    3.34
  -3  -5   5  109.42    3.18
   3   5   5  109.75    3.21
   3  -5  -5  108.27    3.31
  -3   5  -5  107.94    3.25
  -3   5  -5  109.05    3.29
   4  -5   5   72.77    2.30
  -4  -5  -5   74.14    2.23
   4   5  -5   75.14    2.37
  -4   5   5   75.18    2.31
   4   5   5   75.28    2.24
  -4  -5   5   73.34    2.23
   4  -5  -5   75.04    2.35
  -4   5  -5   71.06    2.30
   5  -5   5   62.35    2.03
  -5  -5  -5   62.19    1.99
   5   5  -5   65.84    2.12
  -5   5   5   63.23    2.08
   5  -5  -5   63.60    2.09
  -5   5  -5   64.53    2.09
   5   5   5   64.63    1.97
  -5  -5   5   64.62    2.00
   6  -5   5   32.32    1.19
  -6   5   5   30.82    1.26
   6   5  -5   32.99    1.26
  -6  -5  -5   33.56    1.19
  -6   5  -5   32.29    1.27
  -6  -5   5   33.79    1.20
   6  -5  -5   32.10    1.24
   6   5   5   34.65    1.14
  -7   5   5   21.74    1.02
  -7  -5  -5   21.96    0.92
   7   5  -5   21.41    0.94
   7  -5   5   21.34    0.89
  -7   5  -5   20.99    1.01
   7  -5  -5   20.08    0.93
  -7  -5   5   21.61    0.93
   7   5   5   23.00    0.85
  -8   5   5    6.54    0.61
   8   5  -5    7.27    0.55
  -8  -5  -5    5.77    0.52
   8  -5   5    8.01    0.51
   8   5   5    6.30    0.46
  -8  -5   5    7.33    0.56
  -8   5  -5    5.87    0.61
   8  -5  -5    7.42    0.58
   9  -5   5    3.41    0.39
   9   5  -5    2.80    0.39
  -9   5   5    2.14    0.47
  -9  -5  -5    2.52    0.40
  -9  -5   5    3.21    0.43
   9  -5  -5    3.02    0.41
  -9   5  -5    2.76    0.49
 -10   5   5    0.38    0.31
  10  -5   5    0.45    0.25
  10   5  -5    0.40    0.24
 -10  -5  -5    0.25    0.30
 -10  -5   5    0.22    0.25
  10  -5  -5    0.76    0.34
 -10   5  -5    0.68    0.42
  11  -5   5    1.66    0.37
 -11  -5  -5    1.57    0.43
  11   5  -5    2.02    0.44
 -11   5   5    1.72    0.55
  11  -5  -5    1.54    0.43
 -11   5  -5    1.86    0.47
 -11  -5   5    1.55    0.45
 -12   5   5    1.87    0.58
  12   5  -5    1.66    0.45
 -12  -5  -5    2.09    0.48
 -12  -5   5    1.74    0.50
  12  -5  -5    2.39    0.53
 -12   5  -5    1.66    0.50
 -13   5   5    1.32    0.59
  13   5  -5    0.72    0.41
 -13  -5  -5    1.06    0.45
  13  -5  -5    1.07    0.45
 -13  -5   5    0.66    0.46
 -13   5  -5   -0.13    0.50
   0   6   5   14.82    0.63
   0   6  -5   15.34    0.68
   0   6   5   15.46    0.52
  -1   6   5   53.48    1.63
   1   6  -5   52.70    1.78
   1  -6  -5   53.62    1.76
  -1   6  -5   55.15    1.66
  -1   6  -5   54.61    1.79
  -1  -6   5   55.84    1.61
   1   6   5   56.46    1.59
   1   6   5   54.42    1.73
  -2   6   5   45.71    1.46
   2   6  -5   48.79    1.60
  -2   6  -5   44.66    1.56
   2  -6  -5   45.78    1.56
   2   6   5   48.04    1.51
  -2  -6   5   45.65    1.40
  -2   6  -5   48.42    1.48
   3   6  -5   10.04    0.57
  -3  -6  -5   10.34    0.41
   3  -6  -5    9.67    0.52
  -3  -6   5   10.01    0.43
   3   6   5   10.47    0.48
  -3   6  -5   10.29    0.55
  -3   6  -5   10.67    0.51
  -4  -6  -5    5.45    0.31
   4   6  -5    6.20    0.42
   4  -6   5    5.19    0.41
  -4   6   5    6.46    0.42
  -4   6  -5    5.39    0.39
   4  -6  -5    5.85    0.45
   4   6   5    5.71    0.35
  -4  -6   5    6.14    0.35
   5  -6   5   53.69    1.77
  -5   6   5   51.47    1.76
   5   6  -5   51.27    1.80
  -5  -6  -5   51.77    1.66
  -5  -6   5   52.91    1.68
  -5   6  -5   52.19    1.77
   5   6   5   55.86    1.70
   5  -6  -5   49.87    1.78
  -6   6   5   24.74    1.04
   6   6  -5   23.95    1.04
  -6  -6  -5   23.98    0.93
   6  -6   5   23.28    0.96
  -6   6  -5   21.99    1.01
   6   6   5   24.87    0.91
  -6  -6   5   25.57    0.95
   6  -6  -5   23.73    1.01
  -7  -6  -5    8.09    0.51
   7   6  -5    8.06    0.55
   7  -6   5    7.82    0.53
  -7   6   5    8.59    0.63
   7   6   5    9.31    0.51
  -7   6  -5    8.32    0.58
   7  -6  -5    7.61    0.54
  -7  -6   5    7.95    0.53
  -8   6   5    0.11    0.30
   8   6  -5    0.42    0.27
   8  -6   5    0.35    0.23
  -8  -6  -5    0.84    0.27
  -8   6  -5    0.31    0.31
  -8  -6   5    0.89    0.28
   8  -6  -5    1.15    0.34
  -9   6   5    5.57    0.60
   9  -6   5    4.69    0.48
   9   6  -5    4.58    0.53
  -9  -6  -5    4.65    0.50
  -9   6  -5    5.74    0.65
  -9  -6   5    6.22    0.57
   9  -6  -5    5.84    0.59
 -10  -6  -5    3.78    0.48
  10  -6   5    3.21    0.43
  10   6  -5    3.35    0.50
 -10   6   5    3.80    0.63
  10  -6  -5    2.93    0.49
 -10   6  -5    3.38    0.58
 -10  -6   5    3.84    0.51
  11  -6   5    0.53    0.30
 -11   6   5    0.95    0.51
  11   6  -5    0.60    0.37
 -11   6  -5    0.14    0.35
  11  -6  -5    0.40    0.37
 -11  -6   5    0.87    0.40
 -12   6   5    1.52    0.48
  12   6  -5    0.89    0.41
 -12   6  -5    0.96    0.43
  12  -6  -5    0.70    0.34
   0  -7   5   23.27    0.77
   0   7  -5   24.53    0.96
   0   7   5   23.61    0.92
   0   7   5   24.96    0.76
  -1   7   5   73.27    2.11
   1   7  -5   68.50    2.30
  -1   7  -5   70.52    2.31
   1   7   5   70.45    2.25
   1   7   5   74.92    2.05
  -1   7  -5   72.10    2.13
  -1  -7   5   73.84    2.09
   1  -7  -5   69.46    2.28
   2   7  -5    5.30    0.40
  -2   7   5    4.81    0.31
  -2  -7   5    5.13    0.25
   2  -7  -5    5.34    0.42
  -2   7  -5    5.19    0.39
  -2   7  -5    5.59    0.33
   2   7   5    5.51    0.37
   2   7   5    5.63    0.23
   3   7  -5    3.05    0.36
  -3  -7  -5    3.59    0.21
  -3   7   5    3.83    0.32
   3   7   5    2.86    0.30
  -3  -7   5    3.35    0.24
   3  -7  -5    3.78    0.38
  -3   7  -5    3.71    0.30
  -3   7  -5    3.49    0.39
   4  -7   5    8.60    0.55
  -4  -7  -5    8.90    0.39
   4   7  -5    8.32    0.53
   4   7   5    8.31    0.46
  -4   7  -5    8.12    0.48
   4  -7  -5    9.56    0.55
  -4  -7   5    8.35    0.42
  -5   7   5    3.65    0.39
   5   7  -5    3.43    0.42
   5  -7   5    3.69    0.40
  -5  -7  -5    4.24    0.30
  -5   7  -5    4.13    0.40
   5  -7  -5    3.00    0.41
   5   7   5    3.32    0.33
  -5  -7   5    4.16    0.34
   6   7  -5    4.97    0.51
  -6   7   5    4.74    0.44
  -6  -7  -5    5.17    0.38
   6  -7   5    4.26    0.45
  -6  -7   5    4.85    0.41
  -6   7  -5    4.67    0.47
   6   7   5    5.07    0.38
   6  -7  -5    5.36    0.52
  -7   7   5   18.38    0.92
   7  -7   5   18.69    0.87
   7   7  -5   18.71    0.92
   7   7   5   18.00    0.79
  -7  -7   5   17.78    0.82
  -7   7  -5   17.34    0.90
   7  -7  -5   18.37    0.93
   8  -7   5   15.96    0.83
   8   7  -5   16.50    0.89
  -8   7   5   18.31    0.96
  -8  -7   5   17.93    0.87
  -8   7  -5   16.19    0.88
   8  -7  -5   18.16    0.94
   9  -7   5    2.18    0.39
   9   7  -5    3.73    0.49
  -9   7   5    2.64    0.51
   9  -7  -5    3.40    0.47
  -9   7  -5    3.23    0.48
 -10   7   5    4.97    0.67
  10   7  -5    4.24    0.56
  10  -7   5    5.34    0.56
  10  -7  -5    4.63    0.60
 -10   7  -5    5.30    0.68
  11  -7   5    1.10    0.35
 -11   7   5    1.28    0.43
  11   7  -5    1.56    0.41
 -11   7  -5    1.66    0.45
  11  -7  -5    1.46    0.44
  12   7  -5    0.90    0.39
 -12   7   5    0.86    0.52
 -12   7  -5    0.56    0.38
  12  -7  -5    0.43    0.34
   0   8  -5    0.54    0.25
   0  -8   5    0.52    0.11
   0   8   5    0.52    0.22
  -1   8   5   25.14    0.79
   1   8  -5   22.73    0.98
   1   8   5   24.70    0.96
   1  -8  -5   22.81    0.97
  -1   8  -5   24.93    0.81
  -1   8  -5   22.89    1.01
  -2   8   5   28.02    0.92
   2   8  -5   27.02    1.11
  -2   8  -5   28.18    0.95
   2  -8  -5   26.05    1.08
  -2   8  -5   24.13    1.06
   2   8   5   27.28    1.03
  -3   8   5    3.47    0.32
   3   8  -5    2.30    0.35
  -3   8  -5    3.65    0.30
   3   8   5    3.16    0.34
  -3   8  -5    3.28    0.41
   3  -8  -5    3.06    0.40
   4   8  -5    3.07    0.42
  -4   8   5    3.85    0.38
   4  -8   5    4.02    0.45
   4   8   5    3.93    0.38
   4  -8  -5    3.52    0.40
   5   8  -5   13.09    0.77
  -5   8   5   14.30    0.69
   5  -8   5   13.83    0.75
   5   8   5   13.56    0.65
  -5   8  -5   14.00    0.69
   5  -8  -5   13.15    0.77
   6   8  -5   15.82    0.85
   6  -8   5   14.35    0.79
  -6   8   5   14.10    0.77
   6  -8  -5   16.41    0.87
   6   8   5   17.18    0.76
  -6   8  -5   15.14    0.78
   7  -8   5   11.89    0.69
   7   8  -5   10.10    0.66
  -7   8   5    9.01    0.66
   7  -8  -5   11.31    0.74
  -7   8  -5    9.66    0.67
   7   8   5   10.33    0.61
   8   8  -5    2.76    0.45
  -8   8   5    3.18    0.49
   8  -8   5    3.14    0.43
   8  -8  -5    3.10    0.48
  -8   8  -5    2.61    0.45
   9   8  -5    4.37    0.54
   9  -8   5    4.18    0.52
  -9   8   5    5.21    0.63
  -9   8  -5    4.56    0.60
   9  -8  -5    4.95    0.56
  10  -8   5    2.66    0.44
  10   8  -5    3.26    0.51
 -10   8   5    2.74    0.53
  10  -8  -5    3.08    0.54
 -10   8  -5    2.97    0.55
  11   8  -5    1.46    0.44
 -11   8   5    0.34    0.44
  11  -8   5    0.67    0.33
 -11   8  -5    0.67    0.45
  11  -8  -5    0.34    0.40
 -12   8   5    2.48    0.62
  12   8  -5    1.80    0.47
 -12   8  -5    1.91    0.57
  12  -8  -5    1.81    0.51
   0   9   5   69.74    2.28
   0   9  -5   69.06    2.34
   1   9  -5   18.95    0.94
   1   9   5   21.84    0.92
   1  -9  -5   20.44    0.92
  -1   9  -5   22.65    1.00
   2   9  -5   33.06    1.33
   2   9   5   34.49    1.26
  -2   9  -5   33.24    1.34
   2  -9  -5   35.84    1.36
   3   9  -5   39.50    1.54
   3   9   5   38.11    1.44
  -3   9  -5   45.32    1.40
   3  -9  -5   40.35    1.55
  -3   9  -5   40.06    1.56
  -4   9   5    5.58    0.43
   4  -9   5    4.95    0.53
   4   9  -5    5.45    0.56
  -4   9  -5    6.50    0.45
   4  -9  -5    5.66    0.56
   4   9   5    5.79    0.47
   5  -9   5    2.47    0.37
   5   9  -5    2.65    0.44
   5   9   5    2.58    0.33
   5  -9  -5    2.46    0.38
   6   9  -5    3.60    0.46
  -6   9   5    3.64    0.42
   6  -9   5    3.96    0.48
   6   9   5    3.51    0.39
   6  -9  -5    3.25    0.44
  -6   9  -5    4.58    0.48
   7  -9   5    0.80    0.32
   7   9  -5    0.57    0.26
  -7   9   5    0.81    0.31
  -7   9  -5    0.48    0.28
   7  -9  -5    0.33    0.25
   8  -9   5    5.18    0.56
   8   9  -5    5.21    0.59
  -8   9   5    4.64    0.55
   8  -9  -5    4.77    0.60
  -8   9  -5    5.34    0.59
  -9   9   5    2.34    0.47
   9   9  -5    1.60    0.41
   9  -9   5    3.21    0.44
  -9   9  -5    2.40    0.48
   9  -9  -5    2.16    0.51
  10   9  -5    3.88    0.56
  10  -9   5    4.49    0.57
 -10   9   5    4.07    0.63
  10  -9  -5    4.42    0.64
 -10   9  -5    5.15    0.67
  11  -9   5    4.31    0.62
 -11   9   5    5.39    0.74
  11   9  -5    4.75    0.64
 -11   9  -5    5.25    0.66
  11  -9  -5    4.89    0.69
   0  10  -5    5.83    0.56
   0  10   5    6.78    0.55
   1  10  -5   14.84    0.83
  -1  10  -5   14.23    0.78
   1  10   5   13.40    0.72
   1 -10  -5   14.94    0.78
   2  10  -5   12.39    0.72
   2 -10  -5   12.35    0.75
   2  10   5   12.76    0.69
  -2  10  -5   11.79    0.73
   3  10  -5   19.72    0.99
  -3  10  -5   19.64    0.96
   3 -10  -5   18.36    0.96
   3  10   5   19.14    0.88
   4 -10   5   21.35    1.06
   4  10  -5   20.83    1.01
   4 -10  -5   18.90    0.98
   4  10   5   21.82    0.94
   5  10  -5   -0.02    0.21
   5 -10   5   -0.39    0.26
   5 -10  -5    0.06    0.20
   5  10   5   -0.12    0.20
   6  10  -5    1.29    0.39
   6 -10   5    0.78    0.35
   6  10   5    0.71    0.26
   6 -10  -5    0.85    0.30
   7 -10   5    0.59    0.32
   7  10  -5    1.10    0.38
   7 -10  -5    0.41    0.35
  -7  10  -5    1.52    0.37
   8  10  -5    9.32    0.77
   8 -10   5   11.98    0.81
   8 -10  -5   11.56    0.86
  -8  10  -5   10.18    0.73
  -9  10   5   -0.12    0.29
   9  10  -5    0.10    0.33
   9 -10   5    0.58    0.36
  -9  10  -5    0.26    0.32
   9 -10  -5   -0.19    0.25
  10 -10   5    3.03    0.53
 -10  10   5    2.28    0.52
  10  10  -5    3.31    0.55
  10 -10  -5    2.33    0.56
 -10  10  -5    3.25    0.56
   0  11   5    3.31    0.46
   0  11  -5    3.65    0.48
   1  11  -5   35.53    1.52
   1 -11  -5   39.08    1.53
  -1  11  -5   35.69    1.52
   1  11   5   37.38    1.46
   2  11  -5    5.95    0.59
  -2  11  -5    6.89    0.65
   2  11   5    5.60    0.54
   2 -11  -5    6.18    0.62
   3  11  -5    6.30    0.65
   3 -11  -5    6.68    0.65
  -3  11  -5    7.18    0.60
   3  11   5    6.65    0.53
   4 -11   5    4.80    0.59
   4  11  -5    5.59    0.61
   4 -11  -5    4.07    0.55
   4  11   5    4.13    0.47
   5  11  -5    5.28    0.62
   5 -11   5    6.44    0.67
   5 -11  -5    5.99    0.65
   5  11   5    5.43    0.52
   6 -11   5   12.60    0.86
   6  11  -5   11.81    0.84
   6 -11  -5   11.33    0.78
   6  11   5   11.16    0.69
   7  11  -5    2.28    0.49
   7 -11   5    2.36    0.49
   7 -11  -5    3.21    0.57
   8 -11   5    4.07    0.59
   8  11  -5    3.66    0.56
   8 -11  -5    3.94    0.62
   9 -11   5    0.31    0.36
   9  11  -5    0.64    0.38
   9 -11  -5    0.22    0.34
  10  11  -5    0.03    0.38
  10 -11   5    0.55    0.38
  10 -11  -5    0.12    0.43
   0  12   5   -0.12    0.29
   0  12  -5    0.43    0.27
   1  12  -5   16.90    0.94
   1 -12  -5   16.23    0.90
   1  12   5   15.26    0.88
  -1  12  -5   14.89    0.90
   2  12  -5   12.63    0.86
   2 -12  -5   14.84    0.89
   2  12   5   10.87    0.70
  -2  12  -5   13.59    0.89
   3  12  -5    5.30    0.63
   3 -12  -5    4.90    0.60
  -3  12  -5    5.52    0.65
   3  12   5    3.81    0.48
   4 -12   5    2.62    0.50
   4  12  -5    3.24    0.53
   4  12   5    1.87    0.38
   4 -12  -5    2.33    0.50
   5 -12   5    2.48    0.51
   5  12  -5    2.22    0.48
   5  12   5    2.45    0.41
   5 -12  -5    1.99    0.44
   6 -12   5   11.05    0.87
   6  12  -5   10.10    0.83
   6 -12  -5   10.99    0.88
   7 -12   5    7.17    0.79
   7  12  -5    8.32    0.70
   7 -12  -5    8.05    0.81
   8  12  -5    3.64    0.59
   8 -12   5    2.92    0.56
   8 -12  -5    4.73    0.71
   9  12  -5    1.76    0.48
   9 -12   5    1.64    0.51
   9 -12  -5    2.06    0.50
   0  13   5    0.32    0.34
   0  13  -5    0.14    0.27
   1  13  -5    3.20    0.55
  -1  13  -5    3.63    0.58
   1  13   5    3.03    0.48
   1 -13  -5    2.73    0.51
   2  13  -5    4.37    0.58
   2  13   5    4.22    0.53
   2 -13  -5    5.05    0.63
  -2  13  -5    4.60    0.65
   3  13  -5    7.64    0.75
   3  13   5    7.27    0.68
   3 -13  -5    8.18    0.81
  -3  13  -5    9.26    0.86
   4  13  -5    7.26    0.77
   4 -13   5    6.95    0.73
   4 -13  -5    7.60    0.79
   4  13   5    5.86    0.60
   5  13  -5   15.09    0.96
   5 -13   5   17.61    1.04
   5  13   5   15.47    0.90
   5 -13  -5   16.69    1.09
   6 -13   5    1.86    0.52
   6  13  -5    1.72    0.50
   6 -13  -5    3.13    0.62
   7  13  -5    6.69    0.77
   7 -13   5    7.90    0.86
   7 -13  -5    5.69    0.79
   8  13  -5    1.27    0.48
   8 -13   5    1.14    0.51
   8 -13  -5    1.41    0.55
   0  14  -5    2.04    0.52
   1  14  -5    6.04    0.73
   1 -14  -5    5.49    0.69
   1  14   5    4.51    0.61
  -1  14  -5    5.13    0.71
   2  14  -5    2.39    0.57
  -2  14  -5    3.77    0.58
   2 -14  -5    2.99    0.56
   2  14   5    3.46    0.54
   3  14  -5    1.68    0.51
  -3  14  -5    1.12    0.48
   3 -14  -5    2.73    0.56
   3  14   5    1.60    0.42
   4  14  -5    0.91    0.41
   4 -14   5    0.81    0.47
   4 -14  -5    1.62    0.52
   4  14   5    1.21    0.39
   5  14  -5    1.41    0.49
   5 -14   5    2.25    0.57
   5 -14  -5    1.90    0.49
   6 -14   5    1.74    0.55
   6  14  -5    1.68    0.45
   6 -14  -5    1.60    0.56
   7  14  -5    0.91    0.46
   7 -14   5    0.52    0.48
   7 -14  -5    0.12    0.48
   0  15  -5    6.68    0.82
   0 -15  -5    6.87    0.78
   1  15  -5    4.42    0.70
   1  15   5    3.29    0.58
  -1  15  -5    5.04    0.69
   1 -15  -5    3.92    0.63
   2  15  -5    4.33    0.69
   2  15   5    3.71    0.59
   2 -15  -5    4.04    0.66
  -2  15  -5    3.66    0.67
   3 -15   5    3.51    0.60
   3  15  -5    5.00    0.68
   3  15   5    4.35    0.61
   3 -15  -5    5.07    0.72
   4 -15   5    2.15    0.60
   4  15  -5    3.55    0.64
   4  15   5    1.75    0.49
   4 -15  -5    2.56    0.54
   5 -15   5   -0.29    0.43
   5  15  -5    0.52    0.48
   5 -15  -5   -0.28    0.42
   6  15  -5    0.42    0.43
   6 -15   5   -0.07    0.44
   6 -15  -5    0.31    0.49
   0 -16  -5    1.08    0.39
   0  16  -5    1.34    0.55
   1  16  -5    1.67    0.56
  -1  16  -5    1.95    0.60
   1 -16  -5    0.52    0.47
   2  16  -5    6.01    0.76
  -2  16  -5    6.32    0.86
   2  16   5    4.10    0.66
   2 -16  -5    5.86    0.79
   3  16  -5   -0.03    0.44
   3 -16   5   -0.12    0.43
   3 -16  -5    0.44    0.46
   3  16   5   -0.12    0.36
   4 -16   5    0.09    0.45
   4  16  -5   -1.06    0.37
   4 -16  -5    0.14    0.47
   0   0  -6    5.53    0.23
   0   0   6    5.03    0.27
   1   0  -6    1.10    0.15
  -1   0   6    1.22    0.16
  -1   0  -6    0.98    0.17
  -1   0  -6    1.12    0.09
   2   0  -6   65.95    2.00
  -2   0   6   68.64    2.02
  -2   0  -6   66.12    2.02
  -3   0   6  190.10    5.55
   3   0  -6  195.86    5.57
  -3   0  -6  191.74    5.55
   3   0   6  196.87    5.43
  -4   0   6    3.68    0.33
   4   0  -6    3.89    0.28
  -4   0  -6    3.58    0.29
   4   0   6    3.96    0.19
   5   0  -6   28.39    1.03
   5   0   6   26.60    0.88
  -5   0   6   27.46    1.05
  -5   0  -6   28.49    1.06
   6   0   6   32.55    1.06
   6   0  -6   32.72    1.20
  -6   0  -6   32.80    1.23
  -6   0   6   32.41    1.24
  -7   0  -6    2.93    0.38
   7   0   6    3.07    0.27
  -7   0   6    2.76    0.36
   7   0  -6    3.43    0.37
   8   0  -6    9.20    0.60
  -8   0   6    8.06    0.65
   8   0   6    8.83    0.45
  -8   0  -6    6.73    0.55
   9   0  -6    3.18    0.41
  -9   0  -6    3.27    0.46
  -9   0   6    3.90    0.49
  10   0  -6   24.75    1.13
 -10   0  -6   26.07    1.27
 -10   0   6   26.54    1.24
 -11   0   6    0.24    0.32
  11   0  -6   -0.59    0.26
 -11   0  -6   -0.36    0.38
 -12   0   6    0.14    0.36
  12   0  -6    0.41    0.37
 -12   0  -6    0.38    0.46
 -13   0  -6    0.07    0.50
 -13   0   6    0.29    0.55
  13   0  -6    0.14    0.36
   0  -1  -6  678.80   18.96
   0   1  -6  678.83   18.68
   0   1   6  657.89   18.66
   1   1  -6  138.46    3.87
  -1   1   6  136.08    3.86
  -1  -1  -6  129.40    3.85
  -1   1  -6  137.38    3.81
  -1   1  -6  131.74    3.86
   1  -1  -6  134.21    3.84
  -1  -1   6  134.15    3.85
  -2   1   6    5.32    0.29
   2   1  -6    5.08    0.28
  -2  -1  -6    4.57    0.29
  -2   1  -6    4.97    0.29
  -2   1  -6    5.43    0.22
  -2  -1   6    5.03    0.28
   2  -1  -6    5.24    0.27
   3   1  -6   96.89    2.85
  -3  -1  -6   93.30    2.83
  -3   1   6   96.96    2.85
   3  -1   6   93.57    2.74
   3   1   6   97.45    2.70
   3  -1  -6   95.05    2.83
  -3   1  -6   94.28    2.85
  -3  -1   6   97.12    2.83
   4  -1   6   75.37    2.22
  -4   1   6   77.27    2.36
   4   1  -6   76.73    2.34
  -4  -1  -6   76.00    2.33
  -4  -1   6   73.61    2.33
  -4   1  -6   75.54    2.36
   4  -1  -6   78.48    2.33
   4   1   6   75.12    2.19
   5  -1   6   25.30    0.83
  -5  -1  -6   25.17    0.98
   5   1  -6   24.88    0.96
  -5   1   6   25.15    0.99
   5  -1  -6   24.78    0.94
  -5   1  -6   26.05    1.00
  -5  -1   6   25.14    0.96
   5   1   6   24.92    0.81
  -6  -1  -6    6.30    0.47
   6   1  -6    5.56    0.42
   6  -1   6    5.78    0.31
  -6   1   6    6.10    0.44
   6   1   6    6.18    0.31
  -6  -1   6    5.68    0.47
  -6   1  -6    6.27    0.49
   6  -1  -6    5.13    0.38
  -7   1   6    2.91    0.43
   7  -1   6    3.87    0.29
  -7  -1  -6    3.44    0.43
   7   1  -6    3.54    0.39
  -7   1  -6    3.09    0.39
  -7  -1   6    3.39    0.42
   7  -1  -6    3.25    0.39
   7   1   6    3.49    0.27
   8  -1   6   30.66    1.07
   8   1  -6   31.65    1.23
  -8  -1  -6   28.76    1.25
  -8   1   6   28.91    1.25
   8  -1  -6   28.40    1.19
   8   1   6   30.56    1.05
  -8  -1   6   28.12    1.25
  -8   1  -6   31.15    1.30
   9   1  -6    2.54    0.41
  -9   1   6    2.19    0.46
   9  -1   6    2.73    0.31
  -9  -1  -6    2.39    0.45
  -9   1  -6    2.57    0.44
   9  -1  -6    2.96    0.40
  -9  -1   6    2.73    0.43
  10   1  -6    2.92    0.42
 -10   1   6    2.39    0.52
 -10  -1  -6    3.06    0.47
  10  -1  -6    3.26    0.44
 -10   1  -6    3.77    0.59
 -10  -1   6    3.01    0.47
 -11   1   6   14.21    1.00
  11   1  -6   11.85    0.82
 -11  -1  -6   12.56    0.85
 -11   1  -6   13.48    0.97
 -11  -1   6   12.24    0.86
  11  -1  -6   13.23    0.84
 -12  -1  -6    2.10    0.48
 -12   1   6    2.74    0.55
  12   1  -6    1.77    0.46
 -12   1  -6    3.13    0.65
 -12  -1   6    3.09    0.56
  12  -1  -6    2.56    0.51
  13   1  -6    5.74    0.70
 -13  -1  -6    5.88    0.78
 -13   1   6    5.25    0.83
 -13   1  -6    7.49    0.88
 -13  -1   6    5.53    0.79
  13  -1  -6    5.69    0.69
   0   2  -6  126.82    3.65
   0   2  -6  128.81    3.64
   0   2   6  122.88    3.62
   0  -2  -6  128.68    3.61
  -1  -2  -6  168.63    4.90
  -1  -2  -6  171.25    4.85
   1   2  -6  173.37    4.95
  -1   2   6  172.83    4.91
   1  -2  -6  174.51    4.92
  -1  -2   6  169.52    4.90
  -1   2  -6  178.82    4.93
  -2  -2  -6   22.53    0.81
  -2   2   6   23.58    0.83
   2   2  -6   23.81    0.85
  -2  -2   6   24.62    0.82
   2   2   6   24.42    0.71
   2  -2  -6   24.72    0.83
  -2   2  -6   24.19    0.78
  -2   2  -6   24.20    0.84
   3   2  -6   64.96    1.96
  -3  -2  -6   62.99    1.92
  -3   2   6   65.54    1.94
   3  -2   6   61.70    1.85
   3  -2  -6   62.52    1.92
  -3  -2   6   61.15    1.91
  -3   2  -6   59.20    1.93
   3   2   6   62.20    1.79
  -4  -2  -6   54.99    1.74
   4  -2   6   53.12    1.65
  -4   2   6   52.65    1.75
   4   2  -6   56.40    1.76
  -4   2  -6   54.33    1.77
   4  -2  -6   56.41    1.74
   4   2   6   53.95    1.60
  -4  -2   6   53.94    1.73
  -5  -2  -6   88.40    2.75
  -5   2   6   88.06    2.78
   5  -2   6   87.34    2.65
   5   2  -6   90.08    2.77
   5  -2  -6   91.91    2.76
  -5  -2   6   91.09    2.75
  -5   2  -6   90.31    2.80
   5   2   6   89.98    2.61
   6  -2   6    3.45    0.27
  -6  -2  -6    3.46    0.38
   6   2  -6    3.38    0.36
  -6   2   6    3.04    0.37
  -6  -2   6    3.80    0.39
  -6   2  -6    3.51    0.38
   6   2   6    3.58    0.24
   6  -2  -6    3.54    0.37
   7  -2   6    7.69    0.41
  -7   2   6    7.54    0.55
  -7  -2  -6    7.18    0.55
   7   2  -6    8.28    0.54
   7  -2  -6    7.86    0.49
   7   2   6    8.18    0.40
  -7  -2   6    7.91    0.53
  -7   2  -6    6.91    0.53
   8  -2   6   14.61    0.64
   8   2  -6   14.20    0.77
  -8  -2  -6   14.96    0.82
  -8   2   6   15.30    0.87
  -8   2  -6   14.28    0.81
  -8  -2   6   15.04    0.83
   8  -2  -6   16.49    0.81
   8   2   6   14.88    0.63
  -9   2   6    4.86    0.60
   9  -2   6    4.33    0.39
  -9  -2  -6    4.55    0.54
   9   2  -6    4.35    0.47
  -9  -2   6    3.68    0.52
   9  -2  -6    4.04    0.45
  -9   2  -6    3.54    0.48
 -10   2   6    1.16    0.45
  10   2  -6    1.02    0.34
 -10  -2  -6    0.84    0.37
 -10  -2   6    1.29    0.44
 -10   2  -6    1.51    0.47
  10  -2  -6    1.63    0.38
 -11   2   6    2.78    0.60
  11   2  -6    1.89    0.43
 -11  -2  -6    2.13    0.50
  11  -2  -6    2.00    0.44
 -11  -2   6    2.19    0.53
 -11   2  -6    1.58    0.54
 -12   2   6    6.99    0.86
 -12  -2  -6    7.84    0.81
  12   2  -6    5.90    0.63
 -12  -2   6    5.59    0.76
 -12   2  -6    7.37    0.86
  12  -2  -6    6.18    0.69
  13   2  -6    0.40    0.39
 -13   2   6    0.62    0.42
 -13  -2  -6    0.44    0.46
 -13  -2   6    0.26    0.47
  13  -2  -6    0.01    0.36
 -13   2  -6    0.59    0.55
   0   3  -6   11.00    0.46
   0   3  -6   10.76    0.43
  -1   3   6   15.16    0.56
  -1  -3  -6   14.54    0.54
   1   3  -6   14.57    0.59
  -1  -3   6   15.49    0.55
  -1   3  -6   14.95    0.56
  -1   3  -6   15.02    0.57
   1  -3  -6   15.23    0.56
  -2   3   6    3.81    0.25
  -2  -3  -6    3.67    0.24
   2   3  -6    3.58    0.29
  -2  -3   6    3.83    0.23
  -2   3  -6    3.96    0.25
   2   3   6    3.98    0.20
   2  -3  -6    4.07    0.25
  -2   3  -6    3.71    0.26
   3   3  -6    6.68    0.38
  -3  -3  -6    6.44    0.34
  -3   3   6    6.81    0.39
  -3   3  -6    5.50    0.37
   3   3   6    6.11    0.27
   3  -3  -6    7.02    0.36
  -3  -3   6    6.11    0.32
   4   3  -6    2.04    0.28
  -4  -3  -6    2.08    0.25
  -4   3   6    2.43    0.28
   4  -3   6    2.36    0.22
  -4  -3   6    2.00    0.24
  -4   3  -6    2.55    0.28
   4  -3  -6    2.10    0.25
   4   3   6    2.30    0.17
   5  -3   6    3.90    0.28
  -5  -3  -6    4.13    0.35
   5   3  -6    3.96    0.32
  -5   3   6    4.05    0.38
   5  -3  -6    4.04    0.37
   5   3   6    3.64    0.23
  -5  -3   6    3.84    0.36
  -5   3  -6    3.89    0.37
  -6  -3  -6   16.95    0.75
   6  -3   6   14.85    0.64
   6   3  -6   15.14    0.73
  -6   3   6   15.76    0.79
  -6  -3   6   16.21    0.72
   6  -3  -6   16.38    0.75
  -6   3  -6   16.44    0.80
   6   3   6   16.00    0.60
   7   3  -6    7.63    0.53
   7  -3   6    7.75    0.44
  -7   3   6    7.46    0.55
  -7  -3  -6    8.55    0.53
   7   3   6    8.14    0.41
   7  -3  -6    8.30    0.55
  -7   3  -6    8.01    0.62
  -7  -3   6    8.57    0.58
  -8  -3  -6   28.33    1.20
  -8   3   6   28.66    1.27
   8  -3   6   27.97    1.06
   8   3  -6   29.76    1.20
   8  -3  -6   29.40    1.20
  -8   3  -6   29.27    1.28
  -8  -3   6   29.78    1.23
   9  -3   6   18.71    0.81
  -9  -3  -6   17.94    0.95
   9   3  -6   18.09    0.93
  -9   3   6   18.69    1.04
   9  -3  -6   20.40    0.97
  -9  -3   6   19.03    0.99
  -9   3  -6   20.78    1.08
 -10  -3  -6    5.48    0.60
 -10   3   6    6.04    0.72
  10   3  -6    6.15    0.61
 -10   3  -6    4.67    0.59
 -10  -3   6    5.13    0.57
  10  -3  -6    4.89    0.53
 -11   3   6    2.32    0.51
 -11  -3  -6    2.50    0.50
  11   3  -6    2.23    0.45
 -11  -3   6    2.19    0.45
  11  -3  -6    1.90    0.43
 -11   3  -6    1.17    0.52
 -12   3   6    1.50    0.57
 -12  -3  -6    0.33    0.40
  12   3  -6    0.82    0.37
 -12   3  -6   -0.30    0.45
  12  -3  -6   -0.03    0.35
 -12  -3   6    0.24    0.35
 -13  -3  -6    2.99    0.62
 -13   3   6    3.92    0.76
  13   3  -6    4.00    0.60
 -13  -3   6    2.71    0.62
  13  -3  -6    3.65    0.55
 -13   3  -6    2.93    0.71
   0   4   6    1.53    0.16
   0   4  -6    1.45    0.21
   0   4  -6    0.98    0.14
   1   4  -6   85.81    2.60
  -1   4  -6   79.19    2.52
  -1   4  -6   89.01    2.59
   1  -4  -6   89.06    2.57
   1   4   6   87.93    2.52
   1   4   6   84.81    2.49
  -1  -4   6   86.59    2.51
  -2  -4  -6   23.47    0.78
  -2   4   6   23.01    0.81
   2   4  -6   22.67    0.87
  -2   4  -6   22.78    0.82
   2   4   6   24.00    0.77
  -2  -4   6   23.40    0.78
  -2   4  -6   23.89    0.84
   2  -4  -6   22.33    0.84
  -3   4   6  114.07    3.42
  -3  -4  -6  115.96    3.37
   3   4  -6  115.67    3.49
  -3  -4   6  114.97    3.37
  -3   4  -6  116.22    3.42
  -3   4  -6  116.24    3.44
   3  -4  -6  117.85    3.46
   3   4   6  116.98    3.35
  -4   4   6   11.23    0.57
  -4  -4  -6   11.03    0.51
   4   4  -6   10.66    0.56
   4  -4   6   11.71    0.52
  -4   4  -6   11.87    0.58
  -4  -4   6   11.78    0.53
   4   4   6   12.39    0.47
   4  -4  -6   12.84    0.59
   5  -4   6    0.35    0.15
   5   4  -6    0.47    0.20
  -5  -4  -6    0.48    0.18
  -5   4   6    0.60    0.20
  -5   4  -6    0.52    0.18
   5   4   6    0.54    0.13
   5  -4  -6    0.75    0.22
  -5  -4   6    0.17    0.18
   6   4  -6    2.66    0.36
   6  -4   6    2.89    0.30
  -6   4   6    2.84    0.37
  -6  -4  -6    2.39    0.31
  -6   4  -6    2.63    0.35
   6   4   6    3.12    0.25
   6  -4  -6    2.91    0.37
  -6  -4   6    2.68    0.34
  -7   4   6    7.52    0.62
   7  -4   6    6.92    0.45
  -7  -4  -6    6.49    0.51
   7   4  -6    8.11    0.56
  -7  -4   6    7.55    0.55
   7   4   6    8.34    0.43
  -7   4  -6    7.59    0.55
   7  -4  -6    7.34    0.54
   8  -4   6    0.35    0.22
   8   4  -6    0.54    0.28
  -8   4   6   -0.02    0.30
  -8  -4  -6    0.19    0.20
  -8  -4   6    0.33    0.28
   8  -4  -6    0.56    0.28
  -8   4  -6    0.34    0.25
  -9   4   6    6.65    0.69
  -9  -4  -6    5.98    0.59
   9   4  -6    6.58    0.61
   9  -4   6    7.35    0.51
  -9  -4   6    7.57    0.63
  -9   4  -6    5.76    0.61
   9  -4  -6    6.48    0.60
 -10   4   6    0.50    0.44
  10   4  -6    0.55    0.32
  10  -4   6    0.61    0.24
 -10  -4  -6    0.74    0.34
  10  -4  -6    1.13    0.37
 -10   4  -6    0.95    0.44
 -10  -4   6    0.49    0.34
  11   4  -6    3.94    0.56
 -11  -4  -6    4.08    0.57
 -11   4   6    4.29    0.62
 -11  -4   6    5.20    0.65
 -11   4  -6    4.98    0.66
  11  -4  -6    5.84    0.64
  12   4  -6    2.75    0.52
 -12   4   6    3.17    0.69
 -12  -4  -6    2.51    0.52
 -12   4  -6    3.01    0.59
 -12  -4   6    3.36    0.61
  12  -4  -6    2.85    0.53
 -13   4   6    0.24    0.39
 -13  -4  -6   -0.28    0.39
  13   4  -6   -0.25    0.34
  13  -4  -6   -0.43    0.35
 -13   4  -6   -0.58    0.45
 -13  -4   6    0.05    0.47
   0   5  -6    9.77    0.49
   0  -5  -6    8.89    0.44
   0   5   6   10.24    0.39
  -1   5   6   43.96    1.36
   1   5  -6   41.97    1.46
   1  -5  -6   43.79    1.43
   1   5   6   45.28    1.40
   1   5   6   44.66    1.33
  -1   5  -6   44.44    1.45
  -1   5  -6   44.04    1.38
  -1  -5   6   44.66    1.35
   2   5  -6   33.45    1.20
  -2  -5  -6   34.38    1.06
  -2   5  -6   34.86    1.14
  -2   5  -6   34.41    1.17
   2  -5  -6   32.77    1.17
   2   5   6   34.68    1.10
  -2  -5   6   32.21    1.07
  -3   5   6    8.96    0.46
  -3  -5  -6    9.44    0.41
   3   5  -6    9.57    0.50
   3   5   6    8.69    0.40
  -3  -5   6    9.09    0.41
  -3   5  -6    8.83    0.45
   3  -5  -6    8.29    0.48
  -3   5  -6    9.11    0.47
  -4   5   6   24.92    0.96
   4   5  -6   25.03    0.99
  -4  -5  -6   24.25    0.88
   4  -5   6   25.87    0.94
   4   5   6   25.71    0.86
   4  -5  -6   25.76    0.99
  -4   5  -6   23.50    0.94
  -4  -5   6   25.36    0.90
  -5   5   6    1.28    0.28
  -5  -5  -6    1.08    0.21
   5   5  -6    0.66    0.20
   5  -5   6    0.83    0.20
   5   5   6    0.87    0.15
  -5  -5   6    1.19    0.25
  -5   5  -6    1.13    0.23
   5  -5  -6    0.75    0.24
  -6   5   6   12.12    0.66
   6  -5   6   11.35    0.59
  -6  -5  -6   11.92    0.62
   6   5  -6   12.80    0.66
  -6   5  -6   11.96    0.69
  -6  -5   6   13.25    0.64
   6   5   6   12.64    0.55
   6  -5  -6   12.40    0.68
  -7  -5  -6    4.48    0.44
   7   5  -6    4.95    0.49
   7  -5   6    4.59    0.41
  -7   5   6    3.92    0.45
   7   5   6    3.98    0.34
  -7  -5   6    4.44    0.44
  -7   5  -6    3.70    0.46
   7  -5  -6    3.72    0.44
   8  -5   6    1.54    0.30
   8   5  -6    1.56    0.30
  -8  -5  -6    1.82    0.34
  -8   5   6    0.92    0.30
   8  -5  -6    1.80    0.36
  -8  -5   6    1.30    0.33
  -8   5  -6    1.50    0.40
   9   5  -6    5.30    0.56
  -9  -5  -6    5.14    0.52
   9  -5   6    5.63    0.46
  -9   5   6    4.98    0.62
   9  -5  -6    5.56    0.57
  -9  -5   6    4.62    0.53
  -9   5  -6    4.74    0.61
  10   5  -6    4.42    0.55
  10  -5   6    3.69    0.44
 -10  -5  -6    3.75    0.50
 -10   5   6    4.54    0.67
  10  -5  -6    3.48    0.47
 -10  -5   6    3.66    0.52
 -10   5  -6    4.22    0.63
 -11   5   6    5.48    0.70
  11   5  -6    5.57    0.65
 -11  -5  -6    5.33    0.62
 -11  -5   6    5.37    0.63
 -11   5  -6    6.33    0.74
  11  -5  -6    5.91    0.63
 -12   5   6    1.70    0.62
  12   5  -6    0.57    0.37
 -12  -5  -6    1.77    0.46
  12  -5  -6    1.53    0.41
 -12  -5   6    1.00    0.45
 -12   5  -6    1.92    0.60
   0   6   6    0.14    0.09
   0   6  -6    0.11    0.13
   0   6   6    0.06    0.14
   0  -6   6    0.16    0.09
   1   6  -6   68.71    2.19
  -1   6   6   69.55    2.03
  -1  -6   6   67.59    2.01
   1   6   6   70.77    2.00
   1  -6  -6   65.53    2.14
  -1   6  -6   67.88    2.17
   1   6   6   67.34    2.11
  -1   6  -6   69.56    2.05
   2   6  -6   53.21    1.80
  -2   6   6   53.76    1.67
  -2   6  -6   55.93    1.70
  -2  -6   6   54.99    1.63
   2  -6  -6   51.09    1.75
   2   6   6   54.37    1.70
  -2   6  -6   53.38    1.77
  -3  -6  -6   54.99    1.67
   3   6  -6   55.80    1.88
   3  -6  -6   54.41    1.84
  -3   6  -6   56.05    1.83
  -3   6  -6   56.99    1.78
   3   6   6   55.51    1.74
  -3  -6   6   54.94    1.69
  -4  -6  -6    6.03    0.34
   4   6  -6    6.63    0.49
   4  -6   6    6.20    0.43
  -4   6   6    5.99    0.42
   4  -6  -6    5.90    0.46
   4   6   6    6.59    0.37
  -4  -6   6    6.89    0.37
  -4   6  -6    6.61    0.43
   5   6  -6    6.95    0.52
  -5   6   6    6.72    0.49
   5  -6   6    6.70    0.46
  -5  -6  -6    7.17    0.40
  -5  -6   6    7.38    0.45
   5  -6  -6    6.42    0.50
   5   6   6    7.65    0.41
  -5   6  -6    6.55    0.48
  -6  -6  -6   39.19    1.34
   6  -6   6   38.71    1.39
   6   6  -6   36.19    1.44
  -6   6   6   38.12    1.43
   6   6   6   40.73    1.32
  -6   6  -6   38.08    1.45
  -6  -6   6   38.80    1.36
   6  -6  -6   39.20    1.47
   7  -6   6    2.10    0.32
   7   6  -6    2.21    0.38
  -7  -6  -6    1.86    0.30
  -7   6   6    1.33    0.31
  -7  -6   6    2.76    0.37
  -7   6  -6    2.18    0.41
   7  -6  -6    2.07    0.37
   7   6   6    2.60    0.31
  -8  -6  -6    5.87    0.51
   8   6  -6    4.64    0.53
   8  -6   6    5.27    0.48
  -8   6   6    5.09    0.59
  -8  -6   6    5.58    0.51
   8  -6  -6    5.98    0.58
  -8   6  -6    5.67    0.57
   9   6  -6    3.78    0.47
  -9  -6  -6    3.44    0.45
   9  -6   6    4.10    0.44
  -9   6   6    3.22    0.54
  -9   6  -6    3.42    0.50
   9  -6  -6    4.58    0.50
  -9  -6   6    3.82    0.48
  10  -6   6    0.99    0.30
 -10   6   6    1.46    0.51
 -10  -6  -6    0.79    0.33
  10   6  -6    0.69    0.29
 -10  -6   6    0.50    0.35
 -10   6  -6    0.76    0.42
  10  -6  -6    0.57    0.37
  11   6  -6    6.56    0.69
 -11   6   6    7.81    0.82
 -11  -6   6    6.20    0.68
 -11   6  -6    6.84    0.81
  11  -6  -6    6.90    0.72
 -12   6   6    0.37    0.51
  12   6  -6    0.26    0.35
 -12   6  -6    0.65    0.53
  12  -6  -6    0.36    0.41
   0   7   6   -0.23    0.15
   0   7   6   -0.03    0.09
   0  -7   6   -0.02    0.08
   0   7  -6    0.12    0.18
   1   7  -6    7.67    0.52
  -1   7   6    8.64    0.39
   1   7   6    9.28    0.34
  -1   7  -6    8.84    0.54
  -1  -7   6    8.98    0.37
   1   7   6    9.12    0.48
  -1   7  -6    9.16    0.40
   1  -7  -6    7.95    0.49
   2   7  -6   23.59    0.99
  -2   7   6   25.51    0.87
  -2   7  -6   25.88    0.90
   2   7   6   26.73    0.79
  -2   7  -6   24.03    0.99
   2   7   6   23.88    0.91
   2  -7  -6   22.47    0.95
  -2  -7   6   24.62    0.81
   3   7  -6   27.15    1.10
  -3   7   6   26.62    0.99
  -3  -7  -6   29.28    0.90
   3   7   6   27.13    0.99
   3  -7  -6   26.54    1.07
  -3  -7   6   28.87    0.92
  -3   7  -6   26.74    1.07
   4   7  -6   39.91    1.51
   4  -7   6   40.25    1.45
  -4   7   6   39.34    1.39
  -4  -7  -6   41.35    1.29
   4  -7  -6   40.59    1.49
   4   7   6   39.08    1.35
  -4  -7   6   42.65    1.32
  -4   7  -6   41.01    1.41
  -5   7   6    3.62    0.40
   5  -7   6    2.97    0.38
  -5  -7  -6    3.46    0.29
   5   7  -6    3.38    0.41
   5  -7  -6    3.34    0.39
  -5   7  -6    3.21    0.38
   5   7   6    3.80    0.33
  -5  -7   6    2.68    0.30
   6   7  -6    3.08    0.45
   6  -7   6    3.33    0.37
  -6   7   6    2.65    0.40
  -6  -7  -6    3.51    0.34
   6  -7  -6    3.96    0.44
  -6   7  -6    4.29    0.45
  -6  -7   6    4.18    0.38
   6   7   6    3.55    0.35
   7   7  -6    0.99    0.27
  -7   7   6    1.13    0.33
   7  -7   6    0.60    0.26
  -7   7  -6    0.59    0.24
  -7  -7   6    0.98    0.27
   7  -7  -6    1.19    0.34
  -8   7   6    1.42    0.39
   8   7  -6    1.00    0.28
   8  -7   6    0.82    0.28
  -8  -7   6    1.17    0.30
  -8   7  -6    0.84    0.35
   8  -7  -6    0.78    0.34
   9   7  -6    3.28    0.49
  -9   7   6    3.69    0.51
   9  -7   6    3.71    0.45
  -9   7  -6    2.47    0.49
   9  -7  -6    3.23    0.46
 -10   7   6    2.82    0.57
  10   7  -6    3.57    0.49
  10  -7   6    3.10    0.44
 -10   7  -6    3.84    0.61
  10  -7  -6    2.66    0.50
  11   7  -6    0.39    0.36
 -11   7   6    0.50    0.47
  11  -7  -6    0.41    0.39
 -11   7  -6    0.50    0.34
 -12   7   6   -0.61    0.43
  12   7  -6    0.20    0.37
 -12   7  -6   -0.81    0.41
  12  -7  -6   -0.21    0.39
   0   8   6   69.95    2.28
   0   8  -6   71.40    2.34
   0  -8   6   71.39    2.08
  -1   8   6   17.47    0.62
   1   8  -6   15.69    0.81
   1  -8  -6   16.83    0.80
  -1  -8   6   18.38    0.61
  -1   8  -6   16.58    0.82
   1   8   6   17.89    0.77
  -1   8  -6   18.10    0.64
  -2   8   6    2.39    0.25
   2   8  -6    2.50    0.38
  -2   8  -6    2.37    0.36
   2  -8  -6    2.98    0.38
  -2   8  -6    3.37    0.30
   2   8   6    2.41    0.30
  -3   8   6   28.61    1.02
   3   8  -6   29.51    1.20
  -3   8  -6   31.30    1.06
   3  -8  -6   25.55    1.13
   3   8   6   27.45    1.06
  -3   8  -6   28.14    1.14
  -4   8   6    6.46    0.43
   4   8  -6    5.78    0.56
   4   8   6    6.30    0.42
   4  -8  -6    5.47    0.53
   5  -8   6   90.58    2.92
   5   8  -6   89.58    2.97
  -5   8   6   89.43    2.84
   5   8   6   91.27    2.80
  -5   8  -6   94.73    2.86
   5  -8  -6   87.09    2.93
  -6   8   6    4.31    0.46
   6   8  -6    3.40    0.46
   6  -8   6    3.22    0.42
  -6   8  -6    4.08    0.45
   6   8   6    4.37    0.37
   6  -8  -6    3.83    0.45
   7   8  -6    3.19    0.47
   7  -8   6    2.23    0.34
  -7   8   6    2.73    0.43
  -7   8  -6    3.36    0.45
   7  -8  -6    2.39    0.43
   8  -8   6    1.81    0.36
  -8   8   6    2.27    0.44
   8   8  -6    1.75    0.36
  -8   8  -6    1.81    0.36
   8  -8  -6    2.10    0.44
   9  -8   6    4.21    0.51
   9   8  -6    5.20    0.60
  -9   8   6    4.46    0.60
   9  -8  -6    4.96    0.57
  -9   8  -6    5.02    0.63
 -10   8   6    2.49    0.46
  10   8  -6    2.83    0.50
  10  -8   6    2.55    0.46
  10  -8  -6    2.77    0.54
 -10   8  -6    2.66    0.53
  11   8  -6    1.43    0.42
 -11   8   6    1.69    0.53
  11  -8  -6    1.83    0.50
 -11   8  -6    2.81    0.57
   0   9   6   59.31    2.02
   0   9  -6   61.22    2.10
   1   9  -6   27.14    1.15
   1   9   6   27.74    1.09
  -1   9  -6   26.66    1.13
   1  -9  -6   26.27    1.09
   2   9  -6   16.81    0.84
   2  -9  -6   16.70    0.84
  -2   9  -6   16.47    0.86
   2   9   6   16.14    0.76
   3   9  -6    4.88    0.51
   3   9   6    6.66    0.47
  -3   9  -6    7.38    0.59
  -3   9  -6    7.90    0.46
   3  -9  -6    5.67    0.48
  -4   9   6    6.25    0.43
   4   9  -6    5.29    0.57
  -4   9  -6    6.62    0.46
   4  -9  -6    5.75    0.57
   4   9   6    6.19    0.45
   5   9  -6    5.12    0.57
   5  -9   6    6.67    0.51
   5   9   6    5.27    0.43
   5  -9  -6    6.31    0.60
   6  -9   6    5.47    0.56
  -6   9   6    5.44    0.51
   6   9  -6    3.78    0.52
   6  -9  -6    5.43    0.58
  -6   9  -6    5.27    0.51
   6   9   6    5.47    0.48
   7   9  -6    0.17    0.30
   7  -9   6   -0.20    0.23
  -7   9   6    0.01    0.26
  -7   9  -6   -0.01    0.26
   7  -9  -6   -0.07    0.21
   8  -9   6    4.83    0.53
  -8   9   6    5.36    0.58
   8   9  -6    5.35    0.58
   8  -9  -6    4.63    0.60
  -8   9  -6    4.96    0.57
   9   9  -6    5.72    0.65
   9  -9   6    4.84    0.58
  -9   9   6    4.37    0.55
  -9   9  -6    5.39    0.64
   9  -9  -6    5.73    0.67
  10   9  -6    1.26    0.42
 -10   9   6    1.91    0.49
  10  -9   6    1.86    0.43
  10  -9  -6    0.68    0.43
 -10   9  -6    1.46    0.47
 -11   9   6    0.66    0.46
  11   9  -6    0.33    0.40
  11  -9   6   -0.13    0.31
 -11   9  -6    0.87    0.46
  11  -9  -6    0.17    0.32
   0  10  -6   10.74    0.67
   0  10   6   10.14    0.65
   1  10  -6   21.51    1.01
   1 -10  -6   21.82    0.97
  -1  10  -6   19.12    0.96
   1  10   6   19.11    0.92
   2  10  -6   14.73    0.80
   2 -10  -6   14.45    0.82
   2  10   6   14.65    0.75
  -2  10  -6   14.68    0.81
   3  10  -6    9.27    0.67
   3  10   6    7.47    0.53
   3 -10  -6    7.45    0.62
  -3  10  -6    8.26    0.60
   4  10  -6   28.67    1.26
   4 -10  -6   28.67    1.26
   4  10   6   27.83    1.15
   5  10  -6   14.24    0.86
   5 -10   6   14.15    0.85
   5 -10  -6   13.48    0.84
   5  10   6   12.85    0.70
   6 -10   6    2.58    0.45
   6  10  -6    2.31    0.40
   6 -10  -6    2.17    0.45
   7 -10   6    1.48    0.38
   7  10  -6    1.13    0.40
  -7  10  -6    1.34    0.35
   7 -10  -6    1.64    0.38
   8  10  -6    1.62    0.42
   8 -10   6    1.61    0.41
  -8  10  -6    1.62    0.38
   8 -10  -6    2.35    0.50
   9  10  -6    0.59    0.31
   9 -10   6   -0.07    0.32
  -9  10   6    1.36    0.43
  -9  10  -6    1.08    0.39
   9 -10  -6    1.02    0.37
 -10  10   6    0.76    0.42
  10 -10   6    0.60    0.37
  10  10  -6    0.03    0.38
 -10  10  -6    0.40    0.37
  10 -10  -6    0.38    0.43
   0  11   6    0.52    0.30
   0  11  -6    0.84    0.30
   1  11  -6    1.82    0.36
   1 -11  -6    1.43    0.37
   1  11   6    2.74    0.41
  -1  11  -6    1.80    0.41
   2  11  -6    1.36    0.34
   2  11   6    1.67    0.35
   2 -11  -6    1.81    0.36
  -2  11  -6    1.15    0.33
   3  11  -6    3.07    0.51
   3  11   6    3.41    0.43
   3 -11  -6    2.92    0.44
  -3  11  -6    3.92    0.50
   4 -11   6    1.61    0.37
   4  11  -6    3.05    0.50
   4 -11  -6    1.59    0.37
   4  11   6    1.58    0.32
   5 -11   6    2.37    0.47
   5  11  -6    2.06    0.46
   5  11   6    2.19    0.37
   5 -11  -6    2.23    0.46
   6 -11   6    1.37    0.44
   6  11  -6    1.15    0.41
   6 -11  -6    0.90    0.41
   7  11  -6    1.31    0.44
   7 -11   6    2.27    0.47
   7 -11  -6    2.03    0.43
   8 -11   6   -0.10    0.33
   8  11  -6   -0.29    0.33
   8 -11  -6   -0.10    0.38
   9  11  -6    2.22    0.53
   9 -11   6    2.34    0.51
   9 -11  -6    2.67    0.58
  10  11  -6    1.74    0.49
  10 -11   6    1.30    0.45
  10 -11  -6    1.00    0.50
   0  12  -6    5.09    0.58
   0  12   6    5.86    0.57
   1  12  -6    4.76    0.61
  -1  12  -6    6.26    0.64
   1  12   6    6.32    0.60
   1 -12  -6    6.81    0.67
   2  12  -6   14.23    0.91
   2 -12  -6   13.98    0.88
  -2  12  -6   13.59    0.90
   2  12   6   13.31    0.79
   3  12  -6    1.64    0.44
   3  12   6    1.45    0.36
   3 -12  -6    1.47    0.37
  -3  12  -6    1.34    0.37
   4  12  -6   -0.03    0.33
   4 -12   6    0.35    0.36
   4  12   6    0.27    0.27
   4 -12  -6    0.11    0.33
   5 -12   6    0.88    0.33
   5  12  -6    1.09    0.35
   5  12   6    0.46    0.28
   5 -12  -6    0.78    0.41
   6  12  -6    5.12    0.62
   6 -12   6    5.79    0.71
   6 -12  -6    5.61    0.72
   7  12  -6    1.45    0.48
   7 -12   6    1.69    0.43
   7 -12  -6    1.44    0.50
   8  12  -6    1.78    0.45
   8 -12   6   -0.04    0.38
   8 -12  -6    0.15    0.43
   9  12  -6    1.60    0.43
   9 -12   6    1.54    0.48
   9 -12  -6    1.16    0.43
   0  13  -6    2.53    0.48
   1  13  -6    3.53    0.59
   1  13   6    3.31    0.50
   1 -13  -6    3.43    0.54
  -1  13  -6    2.83    0.49
   2  13  -6    8.03    0.81
  -2  13  -6    6.36    0.74
   2  13   6    6.41    0.65
   2 -13  -6    7.53    0.75
   3  13  -6    3.27    0.56
   3  13   6    2.53    0.45
   3 -13  -6    3.48    0.57
  -3  13  -6    2.90    0.50
   4  13  -6    4.18    0.64
   4 -13   6    5.28    0.70
   4 -13  -6    5.56    0.69
   4  13   6    5.00    0.55
   5  13  -6    2.88    0.55
   5 -13   6    2.35    0.53
   5 -13  -6    2.90    0.51
   6  13  -6    0.93    0.43
   6 -13   6    1.80    0.53
   6 -13  -6    1.16    0.51
   7  13  -6    1.45    0.49
   7 -13   6    1.51    0.53
   7 -13  -6    0.74    0.50
   8  13  -6    0.48    0.43
   8 -13   6    0.77    0.46
   8 -13  -6    0.74    0.40
   0  14  -6    1.02    0.38
   0 -14  -6    0.69    0.32
   1  14  -6   -0.14    0.37
  -1  14  -6    0.14    0.40
   1 -14  -6   -0.11    0.25
   1  14   6    0.12    0.32
   2  14  -6    2.39    0.57
   2 -14  -6    2.06    0.52
   2  14   6    3.26    0.52
  -2  14  -6    1.45    0.49
   3  14  -6    9.63    0.92
  -3  14  -6   10.86    0.84
   3 -14  -6    9.48    0.90
   3  14   6    8.13    0.76
   4  14  -6    3.24    0.62
   4 -14   6    3.68    0.59
   4  14   6    3.20    0.51
   4 -14  -6    4.67    0.69
   5 -14   6    0.14    0.32
   5  14  -6   -0.14    0.29
   5 -14  -6    0.06    0.32
   6  14  -6    2.20    0.56
   6 -14   6    1.64    0.47
   6 -14  -6    2.29    0.60
   7 -14   6    0.69    0.40
   7  14  -6    0.12    0.42
   7 -14  -6    0.44    0.51
   0 -15  -6   -0.40    0.34
   0  15  -6    0.41    0.35
   1  15  -6    3.04    0.62
   1 -15  -6    2.79    0.50
  -1  15  -6    3.64    0.66
   2  15  -6    0.51    0.38
   2 -15  -6    0.75    0.35
   2  15   6    0.99    0.41
  -2  15  -6    1.03    0.51
   3  15  -6    2.44    0.60
   3 -15  -6    1.30    0.43
   3  15   6    1.50    0.44
   4  15  -6    4.58    0.67
   4 -15   6    4.72    0.70
   4 -15  -6    3.87    0.69
   5  15  -6    1.11    0.42
   5 -15   6    0.88    0.52
   5 -15  -6    2.09    0.58
   6 -15  -6    3.86    0.74
   0 -16  -6    3.52    0.64
   0  16  -6    1.71    0.58
   1  16  -6   -0.08    0.33
  -1 -16  -6    0.85    0.44
  -1  16  -6    0.29    0.37
   1 -16  -6    1.27    0.49
   2  16  -6   -0.22    0.44
   2  16   6    0.00    0.40
  -2  16  -6    0.12    0.48
   2 -16  -6    0.24    0.41
   3 -16   6    0.94    0.54
   3  16  -6    1.78    0.56
   3  16   6    0.81    0.44
   3 -16  -6    1.55    0.54
   0   0   7   -0.01    0.08
   0   0  -7    0.04    0.07
   1   0  -7  145.39    4.09
  -1   0  -7  140.76    4.10
  -1   0   7  142.79    4.10
  -1   0  -7  141.32    4.01
  -2   0   7   15.78    0.61
   2   0  -7   16.10    0.60
  -2   0  -7   15.78    0.62
  -3   0   7   13.31    0.59
  -3   0  -7   13.54    0.59
   3   0  -7   14.69    0.58
   3   0   7   14.07    0.43
   4   0   7    1.36    0.11
   4   0  -7    1.12    0.19
  -4   0  -7    1.33    0.21
  -4   0   7    0.97    0.23
   5   0   7   48.91    1.46
   5   0  -7   48.07    1.62
  -5   0  -7   48.92    1.65
  -5   0   7   48.53    1.64
   6   0   7    9.82    0.41
  -6   0   7    9.47    0.55
  -6   0  -7    9.16    0.55
   6   0  -7    8.77    0.53
   7   0   7   32.59    1.08
  -7   0  -7   31.69    1.28
   7   0  -7   32.48    1.25
  -7   0   7   33.53    1.31
   8   0  -7    9.28    0.58
   8   0   7    8.25    0.44
  -8   0   7    8.45    0.67
  -8   0  -7    7.91    0.65
  -9   0  -7    0.32    0.35
  -9   0   7    0.56    0.28
   9   0  -7    0.20    0.28
 -10   0   7   12.94    0.91
 -10   0  -7   11.16    0.79
  10   0  -7   13.41    0.81
 -11   0  -7    7.65    0.81
  11   0  -7    7.29    0.71
 -11   0   7    8.25    0.83
  12   0  -7    4.29    0.60
 -12   0  -7    6.46    0.79
 -12   0   7    6.37    0.84
  13   0  -7    3.84    0.62
 -13   0   7    4.84    0.79
 -13   0  -7    3.31    0.70
   0  -1  -7  261.36    7.10
   0   1   7  246.72    7.12
   0  -1   7  249.73    7.13
  -1   1   7   32.86    1.08
  -1  -1  -7   32.75    1.08
   1   1  -7   34.34    1.07
  -1  -1   7   33.54    1.08
   1  -1  -7   33.34    1.04
  -1   1  -7   33.18    1.09
  -1   1  -7   33.79    1.01
  -2   1   7   81.35    2.41
   2   1  -7   80.41    2.41
  -2  -1  -7   77.92    2.40
  -2   1  -7   79.87    2.41
  -2   1  -7   80.72    2.30
  -2  -1   7   80.84    2.40
   2  -1  -7   81.03    2.39
  -3  -1  -7    0.85    0.19
  -3   1   7    1.10    0.18
   3   1  -7    0.75    0.18
   3  -1   7    1.00    0.11
  -3   1  -7    1.07    0.21
   3  -1  -7    1.27    0.19
  -3  -1   7    0.87    0.17
  -4   1   7   16.66    0.71
   4  -1   7   16.34    0.55
   4   1  -7   16.67    0.68
  -4  -1  -7   16.52    0.68
   4   1   7   15.80    0.51
  -4   1  -7   16.35    0.69
   4  -1  -7   16.05    0.67
  -4  -1   7   15.22    0.68
  -5   1   7   19.84    0.84
  -5  -1  -7   19.18    0.79
   5   1  -7   19.07    0.78
   5  -1   7   19.14    0.65
   5  -1  -7   18.37    0.77
  -5  -1   7   18.72    0.81
  -5   1  -7   18.28    0.80
   5   1   7   18.87    0.63
  -6  -1  -7   21.39    0.91
  -6   1   7   20.59    0.94
   6   1  -7   20.95    0.90
   6  -1   7   22.31    0.76
  -6  -1   7   22.04    0.94
   6  -1  -7   21.77    0.89
  -6   1  -7   22.15    0.94
   6   1   7   22.20    0.74
  -7   1   7    8.37    0.56
   7   1  -7    7.41    0.49
  -7  -1  -7    8.70    0.60
   7  -1   7    7.96    0.40
   7  -1  -7    7.08    0.53
  -7  -1   7    7.25    0.58
   7   1   7    7.84    0.39
  -7   1  -7    7.01    0.58
   8  -1   7   20.78    0.80
   8   1  -7   22.48    0.99
  -8  -1  -7   19.70    0.97
  -8   1   7   19.87    0.99
  -8  -1   7   21.55    1.03
   8  -1  -7   21.53    0.98
  -8   1  -7   22.58    1.06
  -9  -1  -7    0.24    0.25
  -9   1   7   -0.04    0.35
   9   1  -7    0.27    0.22
  -9  -1   7    0.52    0.28
   9  -1  -7    0.50    0.30
  -9   1  -7    1.31    0.40
 -10   1   7    0.98    0.44
  10   1  -7    1.01    0.36
 -10  -1  -7    1.50    0.45
  10  -1  -7    1.13    0.36
 -10   1  -7    1.74    0.48
 -10  -1   7    0.89    0.44
 -11   1   7    2.98    0.60
 -11  -1  -7    2.39    0.47
  11   1  -7    3.38    0.52
 -11  -1   7    3.65    0.61
  11  -1  -7    3.02    0.50
 -11   1  -7    3.85    0.64
 -12   1   7    3.65    0.70
 -12  -1  -7    3.11    0.61
  12   1  -7    3.19    0.57
  12  -1  -7    3.50    0.56
 -12   1  -7    3.23    0.64
 -12  -1   7    3.54    0.67
 -13   1   7    2.59    0.68
  13   1  -7    2.16    0.50
 -13  -1  -7    1.62    0.47
 -13   1  -7    2.03    0.63
  13  -1  -7    1.88    0.47
 -13  -1   7    1.38    0.61
   0  -2  -7   54.88    1.61
   0   2  -7   55.68    1.66
   0   2  -7   55.02    1.65
   0   2   7   52.46    1.64
  -1  -2  -7   27.76    0.91
  -1   2   7   28.90    0.93
   1   2  -7   27.05    0.92
  -1  -2  -7   29.32    0.83
  -1   2  -7   24.54    0.90
   1  -2  -7   27.41    0.89
  -1  -2   7   27.05    0.91
  -1   2  -7   27.85    0.93
  -2   2   7  365.46   10.41
   2   2  -7  373.86   10.49
  -2  -2  -7  377.27   10.40
  -2   2  -7  371.41   10.40
  -2  -2   7  363.05   10.39
   2  -2  -7  373.00   10.45
  -2   2  -7  367.08   10.42
   3   2  -7   23.15    0.84
  -3  -2  -7   22.63    0.82
   3  -2   7   22.59    0.75
  -3   2   7   23.14    0.84
   3  -2  -7   22.40    0.82
   3   2   7   23.03    0.67
  -3   2  -7   20.97    0.83
  -3  -2   7   22.56    0.82
  -4   2   7   63.65    2.02
   4  -2   7   64.72    1.91
  -4  -2  -7   65.97    2.01
   4   2  -7   65.27    2.03
  -4   2  -7   60.81    2.02
   4  -2  -7   63.58    2.00
  -4  -2   7   61.38    1.99
   4   2   7   64.00    1.84
  -5   2   7   24.03    0.96
  -5  -2  -7   23.60    0.94
   5   2  -7   24.72    0.96
   5  -2   7   23.84    0.82
  -5  -2   7   24.85    0.95
   5  -2  -7   24.74    0.94
   5   2   7   23.92    0.78
  -5   2  -7   23.61    0.96
  -6   2   7   52.77    1.81
  -6  -2  -7   52.68    1.76
   6  -2   7   48.86    1.60
   6   2  -7   48.62    1.74
   6   2   7   54.49    1.59
  -6  -2   7   55.79    1.79
  -6   2  -7   50.68    1.79
   6  -2  -7   51.23    1.75
  -7   2   7   28.51    1.17
   7  -2   7   28.04    0.98
  -7  -2  -7   28.50    1.16
   7   2  -7   29.19    1.13
  -7   2  -7   28.00    1.17
   7   2   7   28.39    0.96
   7  -2  -7   25.75    1.09
  -7  -2   7   27.84    1.15
  -8  -2  -7    6.42    0.51
   8   2  -7    6.40    0.58
   8  -2   7    6.64    0.39
  -8   2   7    6.53    0.63
  -8   2  -7    6.62    0.64
   8  -2  -7    5.58    0.54
  -8  -2   7    5.44    0.56
   9   2  -7    1.45    0.36
  -9  -2  -7    1.78    0.41
  -9   2   7    1.75    0.39
   9  -2  -7    2.28    0.41
  -9  -2   7    1.96    0.45
  -9   2  -7    2.17    0.48
  10   2  -7   19.91    1.01
 -10   2   7   19.47    1.06
 -10  -2  -7   17.22    0.96
  10  -2  -7   18.92    0.95
 -10   2  -7   19.00    1.10
 -10  -2   7   18.08    1.04
  11   2  -7    0.94    0.38
 -11  -2  -7    0.26    0.40
 -11   2   7    0.67    0.39
 -11   2  -7    0.68    0.47
 -11  -2   7    2.02    0.51
  11  -2  -7    1.04    0.39
 -12   2   7    5.27    0.72
 -12  -2  -7    5.97    0.74
  12   2  -7    5.17    0.63
 -12  -2   7    7.46    0.82
 -12   2  -7    5.83    0.80
  12  -2  -7    5.19    0.65
 -13  -2  -7    2.91    0.62
  13   2  -7    3.01    0.56
 -13   2   7    3.22    0.74
  13  -2  -7    3.42    0.57
 -13  -2   7    3.08    0.66
 -13   2  -7    3.41    0.71
   0   3  -7  100.74    3.00
   0   3   7  103.24    2.99
   0   3  -7  104.06    3.03
   0  -3  -7  104.51    2.99
  -1   3   7   53.19    1.63
  -1  -3  -7   52.99    1.57
   1   3  -7   51.61    1.66
  -1  -3  -7   50.81    1.60
  -1   3  -7   56.36    1.64
  -1  -3   7   52.83    1.62
   1  -3  -7   54.46    1.63
  -1   3  -7   52.04    1.64
   2   3  -7  124.43    3.74
  -2   3   7  125.25    3.68
  -2  -3  -7  127.31    3.66
  -2   3  -7  128.85    3.70
   2  -3  -7  125.48    3.69
   2   3   7  126.87    3.59
  -2  -3   7  127.07    3.66
   3   3  -7   24.14    0.89
  -3  -3  -7   23.38    0.83
  -3   3   7   22.81    0.86
  -3   3  -7   21.44    0.85
   3   3   7   22.98    0.71
  -3  -3   7   23.72    0.83
   3  -3  -7   21.95    0.84
   4  -3   7   39.93    1.29
  -4   3   7   40.67    1.38
  -4  -3  -7   40.89    1.35
   4   3  -7   41.23    1.41
  -4   3  -7   39.91    1.39
   4   3   7   41.82    1.22
   4  -3  -7   39.90    1.36
  -4  -3   7   39.48    1.34
   5   3  -7   26.67    1.07
  -5  -3  -7   28.36    1.06
  -5   3   7   29.20    1.12
   5  -3   7   29.07    0.98
   5   3   7   28.50    0.91
  -5   3  -7   29.01    1.12
  -5  -3   7   28.69    1.06
   5  -3  -7   29.34    1.07
   6  -3   7   10.95    0.51
  -6   3   7   12.12    0.65
  -6  -3  -7   11.86    0.62
   6   3  -7   11.81    0.61
  -6   3  -7   11.93    0.68
   6   3   7   11.65    0.47
   6  -3  -7   11.11    0.59
  -6  -3   7   10.51    0.61
   7  -3   7   19.57    0.78
  -7  -3  -7   19.97    0.88
   7   3  -7   20.15    0.91
  -7   3   7   19.19    0.93
  -7  -3   7   19.53    0.88
  -7   3  -7   19.14    0.93
   7   3   7   20.56    0.74
   7  -3  -7   19.50    0.90
  -8  -3  -7   12.00    0.73
   8  -3   7   11.73    0.57
   8   3  -7   10.97    0.70
  -8   3   7   12.81    0.82
   8  -3  -7   13.27    0.74
  -8  -3   7   12.55    0.71
  -8   3  -7   13.57    0.82
  -9   3   7   23.11    1.18
   9  -3   7   23.38    0.93
  -9  -3  -7   21.69    1.08
   9   3  -7   24.22    1.10
  -9   3  -7   24.62    1.21
   9  -3  -7   23.67    1.07
  -9  -3   7   23.54    1.12
  10   3  -7    1.68    0.41
 -10   3   7    3.21    0.57
 -10  -3  -7    1.76    0.37
  10  -3  -7    2.01    0.43
 -10  -3   7    2.28    0.47
 -10   3  -7    2.13    0.45
 -11   3   7    2.47    0.59
 -11  -3  -7    2.84    0.53
  11   3  -7    2.98    0.52
 -11  -3   7    2.96    0.57
  11  -3  -7    2.50    0.48
 -11   3  -7    2.45    0.57
 -12  -3  -7    1.59    0.49
  12   3  -7    1.43    0.45
 -12   3   7    0.69    0.57
 -12   3  -7    2.36    0.64
  12  -3  -7    1.59    0.46
 -12  -3   7    1.79    0.54
 -13  -3  -7    1.92    0.55
 -13   3   7    0.82    0.48
  13   3  -7    0.42    0.40
 -13   3  -7    0.77    0.57
  13  -3  -7    0.68    0.43
 -13  -3   7    1.78    0.57
   0   4   7   65.08    1.92
   0   4  -7   63.73    1.99
   1   4  -7  139.72    4.07
  -1  -4   7  138.21    3.97
  -1   4  -7  140.78    4.00
   1   4   7  137.46    3.95
  -1   4  -7  139.26    4.04
   1  -4  -7  134.46    4.02
   2   4  -7  108.07    3.21
  -2   4   7  103.53    3.12
  -2  -4  -7  105.53    3.09
  -2   4  -7  109.91    3.16
  -2  -4   7  106.64    3.10
   2  -4  -7  104.15    3.16
  -2   4  -7  105.81    3.15
   2   4   7  106.67    3.07
  -3  -4  -7   62.33    1.91
  -3   4   7   60.63    1.95
   3   4  -7   64.11    2.02
  -3  -4   7   61.80    1.91
  -3   4  -7   62.45    1.97
  -3   4  -7   62.55    1.93
   3  -4  -7   61.30    1.97
   3   4   7   63.29    1.85
   4   4  -7   26.11    1.01
   4  -4   7   24.92    0.90
  -4  -4  -7   25.16    0.91
  -4   4   7   23.95    0.96
   4  -4  -7   26.66    0.98
  -4   4  -7   24.56    0.97
  -4  -4   7   25.69    0.92
   4   4   7   25.49    0.83
  -5   4   7   17.10    0.81
   5  -4   7   18.42    0.72
  -5  -4  -7   19.07    0.76
   5   4  -7   18.79    0.80
  -5  -4   7   17.63    0.76
  -5   4  -7   17.47    0.79
   5   4   7   18.96    0.65
   5  -4  -7   17.00    0.78
   6  -4   7   11.30    0.56
   6   4  -7   11.70    0.65
  -6   4   7   11.24    0.68
  -6  -4  -7   11.23    0.60
   6   4   7   12.93    0.51
   6  -4  -7   11.36    0.64
  -6   4  -7   10.54    0.63
  -6  -4   7   12.59    0.64
   7   4  -7   54.51    1.94
  -7   4   7   56.68    1.99
   7  -4   7   55.18    1.81
  -7  -4  -7   56.35    1.90
   7  -4  -7   54.54    1.91
  -7  -4   7   55.99    1.91
  -7   4  -7   56.38    1.98
  -8  -4  -7    2.64    0.39
   8  -4   7    3.24    0.34
   8   4  -7    3.48    0.42
  -8   4   7    3.27    0.50
  -8   4  -7    2.26    0.45
  -8  -4   7    2.51    0.37
   8  -4  -7    2.62    0.41
  -9   4   7    1.50    0.44
   9  -4   7    1.47    0.27
   9   4  -7    1.19    0.35
  -9  -4  -7    1.25    0.34
  -9   4  -7    1.43    0.42
  -9  -4   7    1.55    0.40
   9  -4  -7    1.72    0.38
  10   4  -7    1.48    0.40
 -10   4   7    0.95    0.46
 -10  -4  -7    1.29    0.38
 -10  -4   7    2.15    0.40
 -10   4  -7    1.04    0.46
  10  -4  -7    1.59    0.42
  11   4  -7    1.83    0.44
 -11   4   7    1.30    0.54
 -11  -4  -7    1.35    0.40
 -11  -4   7    1.10    0.45
 -11   4  -7    0.81    0.38
  11  -4  -7    1.57    0.43
 -12   4   7    0.66    0.43
 -12  -4  -7    0.95    0.43
  12   4  -7    1.22    0.44
 -12   4  -7    0.77    0.44
 -12  -4   7    1.67    0.52
  12  -4  -7    0.90    0.35
 -13  -4  -7    0.37    0.47
 -13   4   7    0.20    0.53
  13   4  -7    0.41    0.41
 -13  -4   7    0.07    0.44
  13  -4  -7   -0.04    0.40
 -13   4  -7    0.27    0.43
   0   5   7  211.20    5.87
   0   5  -7  207.48    6.01
   0  -5  -7  209.24    5.96
   0  -5   7  202.16    5.87
  -1   5   7   22.38    0.76
   1   5  -7   21.37    0.84
  -1  -5   7   21.32    0.74
   1  -5  -7   20.78    0.80
   1   5   7   21.44    0.76
   1   5   7   21.92    0.73
  -1   5  -7   20.93    0.82
  -2  -5  -7   66.38    2.02
   2   5  -7   69.05    2.18
   2  -5  -7   65.18    2.12
  -2   5  -7   69.55    2.14
  -2   5  -7   69.88    2.10
   2   5   7   69.16    2.05
  -2  -5   7   67.07    2.04
  -3   5   7   26.98    0.95
  -3  -5  -7   25.70    0.89
   3   5  -7   25.32    1.02
   3   5   7   25.88    0.87
  -3   5  -7   27.53    0.97
  -3   5  -7   26.18    0.96
  -3  -5   7   24.24    0.88
   3  -5  -7   25.41    0.97
  -4   5   7   93.83    2.84
   4  -5   7   90.90    2.81
  -4  -5  -7   91.17    2.75
   4   5  -7   91.09    2.90
  -4  -5   7   94.11    2.77
  -4   5  -7   90.61    2.84
   4  -5  -7   92.60    2.87
   4   5   7   93.33    2.72
   5  -5   7   55.04    1.80
  -5  -5  -7   55.16    1.79
   5   5  -7   56.16    1.91
  -5   5   7   54.57    1.87
   5   5   7   57.37    1.73
  -5   5  -7   55.16    1.87
   5  -5  -7   55.20    1.88
  -5  -5   7   57.00    1.81
   6   5  -7   44.76    1.63
  -6  -5  -7   45.41    1.54
  -6   5   7   44.68    1.63
   6  -5   7   43.92    1.52
   6  -5  -7   43.23    1.59
  -6  -5   7   46.92    1.56
  -6   5  -7   45.36    1.62
   6   5   7   45.50    1.44
   7   5  -7   19.97    0.94
   7  -5   7   20.43    0.83
  -7   5   7   18.75    0.92
  -7  -5  -7   20.45    0.88
  -7   5  -7   17.55    0.94
   7  -5  -7   19.28    0.92
  -7  -5   7   18.27    0.87
   8  -5   7    3.12    0.36
  -8   5   7    4.02    0.49
  -8  -5  -7    3.01    0.41
   8   5  -7    3.26    0.45
  -8   5  -7    2.79    0.42
   8  -5  -7    2.97    0.43
  -8  -5   7    2.31    0.40
   9   5  -7    6.31    0.62
  -9  -5  -7    5.10    0.54
   9  -5   7    5.97    0.46
  -9   5   7    5.70    0.61
  -9  -5   7    5.26    0.56
  -9   5  -7    5.92    0.63
   9  -5  -7    5.83    0.59
 -10  -5  -7    3.17    0.48
 -10   5   7    4.39    0.65
  10   5  -7    4.43    0.56
 -10   5  -7    4.20    0.65
 -10  -5   7    2.99    0.49
  10  -5  -7    4.98    0.58
  11   5  -7    8.49    0.78
 -11  -5  -7    8.74    0.72
 -11   5   7    8.91    0.93
  11  -5  -7    8.70    0.81
 -11   5  -7    9.89    0.95
 -11  -5   7    8.52    0.80
 -12  -5  -7   -0.23    0.33
  12   5  -7    0.71    0.33
 -12   5   7    0.99    0.47
 -12  -5   7    1.28    0.50
  12  -5  -7    0.93    0.45
 -12   5  -7    0.53    0.52
   0  -6   7    6.13    0.31
   0   6   7    6.28    0.31
   0   6  -7    5.89    0.41
   0  -6  -7    6.18    0.37
   1   6  -7   18.98    0.78
  -1   6   7   18.20    0.65
   1   6   7   17.26    0.68
  -1   6  -7   18.22    0.76
  -1  -6   7   16.62    0.62
   1  -6  -7   17.17    0.72
   1   6   7   17.49    0.61
  -1   6  -7   17.49    0.66
   2   6  -7   31.41    1.20
  -2   6   7   32.95    1.09
  -2   6  -7   33.41    1.18
   2   6   7   31.97    1.09
   2   6   7   33.83    1.03
   2  -6  -7   29.47    1.14
  -2  -6   7   32.17    1.04
  -3  -6  -7   60.15    1.84
  -3   6   7   60.63    1.92
   3   6  -7   58.36    2.02
  -3   6  -7   64.81    1.95
   3  -6  -7   58.58    1.98
  -3  -6   7   60.23    1.86
   3   6   7   60.59    1.88
  -3   6  -7   63.18    1.99
  -4  -6  -7   27.72    0.93
  -4   6   7   28.00    1.02
   4   6  -7   26.69    1.07
   4   6   7   26.78    0.93
  -4   6  -7   25.04    0.99
  -4  -6   7   25.07    0.93
   4  -6  -7   25.86    1.04
  -5   6   7   20.03    0.84
   5   6  -7   17.58    0.84
  -5  -6  -7   17.55    0.72
   5  -6   7   16.77    0.77
  -5   6  -7   18.03    0.82
   5   6   7   17.89    0.70
   5  -6  -7   17.85    0.84
  -5  -6   7   17.36    0.74
   6   6  -7   57.22    1.99
   6  -6   7   54.78    1.87
  -6   6   7   57.25    1.96
  -6  -6  -7   56.88    1.84
  -6  -6   7   54.13    1.84
   6  -6  -7   55.13    1.94
  -6   6  -7   55.86    1.95
   6   6   7   58.15    1.79
  -7  -6  -7    4.86    0.44
  -7   6   7    5.26    0.55
   7  -6   7    5.63    0.44
   7   6  -7    5.02    0.53
   7  -6  -7    4.51    0.50
  -7  -6   7    4.61    0.45
  -7   6  -7    4.37    0.48
   8  -6   7    1.96    0.32
   8   6  -7    1.74    0.39
  -8   6   7    1.50    0.41
  -8  -6  -7    1.80    0.33
   8  -6  -7    1.08    0.29
  -8   6  -7    1.93    0.42
  -8  -6   7    1.52    0.34
   9   6  -7    8.95    0.70
   9  -6   7   10.78    0.63
  -9   6   7    9.41    0.79
  -9  -6  -7    9.87    0.66
   9  -6  -7    8.61    0.65
  -9  -6   7    9.91    0.68
  -9   6  -7   11.69    0.76
  10   6  -7    2.72    0.50
 -10  -6  -7    3.28    0.47
 -10   6   7    2.89    0.52
  10  -6   7    2.91    0.40
  10  -6  -7    3.47    0.54
 -10  -6   7    3.42    0.51
 -10   6  -7    3.69    0.55
 -11   6   7    7.58    0.87
  11   6  -7    5.95    0.65
 -11   6  -7    8.62    0.88
  11  -6  -7    7.50    0.76
 -11  -6   7    6.48    0.68
 -12   6   7    0.54    0.51
  12   6  -7    0.40    0.40
  12  -6  -7    1.08    0.47
 -12   6  -7    1.90    0.60
   0   7  -7   47.10    1.63
   0   7   7   48.72    1.44
   0  -7  -7   47.55    1.59
   0  -7   7   45.48    1.44
  -1   7   7   25.55    0.85
   1   7  -7   23.86    1.01
   1   7   7   25.49    0.81
  -1  -7   7   25.21    0.83
   1   7   7   25.32    0.93
  -1   7  -7   24.36    0.86
  -1   7  -7   24.76    1.01
   1  -7  -7   24.48    0.97
   2   7  -7  111.54    3.59
  -2   7   7  119.01    3.43
   2   7   7  122.31    3.36
   2   7   7  116.50    3.48
   2  -7  -7  111.95    3.55
  -2   7  -7  121.61    3.46
  -2   7  -7  111.66    3.57
  -2  -7   7  118.73    3.38
  -3   7   7   16.96    0.70
   3   7  -7   16.36    0.82
  -3  -7  -7   16.31    0.61
   3  -7  -7   16.63    0.76
   3   7   7   17.28    0.70
  -3  -7   7   17.76    0.65
  -3   7  -7   17.74    0.80
   4   7  -7   22.12    0.98
  -4   7   7   22.09    0.87
  -4  -7  -7   20.86    0.75
  -4   7  -7   19.87    0.88
  -4  -7   7   20.14    0.77
   4  -7  -7   19.91    0.92
  -4   7  -7   21.28    0.87
   4   7   7   21.60    0.82
   5   7  -7   35.95    1.39
  -5  -7  -7   34.92    1.17
  -5   7   7   32.78    1.27
   5  -7   7   34.35    1.30
   5   7   7   35.41    1.20
  -5   7  -7   33.59    1.29
   5  -7  -7   34.36    1.35
  -5  -7   7   33.97    1.20
   6  -7   7   18.41    0.86
  -6  -7  -7   18.68    0.78
  -6   7   7   18.63    0.91
   6   7  -7   19.04    0.96
  -6  -7   7   20.23    0.83
   6   7   7   20.00    0.80
   6  -7  -7   19.83    0.95
  -6   7  -7   20.48    0.90
  -7   7   7   15.14    0.80
   7  -7   7   12.89    0.73
   7   7  -7   14.85    0.84
  -7  -7   7   17.32    0.79
  -7   7  -7   15.21    0.84
   7  -7  -7   14.75    0.80
   8  -7   7    2.15    0.35
  -8   7   7    2.26    0.45
   8   7  -7    2.34    0.43
  -8  -7   7    1.87    0.35
  -8   7  -7    2.26    0.44
   8  -7  -7    2.44    0.44
  -9   7   7    5.19    0.63
   9  -7   7    5.83    0.55
   9   7  -7    4.08    0.51
  -9   7  -7    5.29    0.63
   9  -7  -7    5.27    0.61
  10  -7   7    1.46    0.36
 -10   7   7    1.80    0.52
  10   7  -7    1.72    0.44
  10  -7  -7    1.96    0.42
 -10   7  -7    2.19    0.51
  11   7  -7    4.42    0.61
 -11   7   7    2.61    0.55
  11  -7  -7    2.87    0.56
 -11   7  -7    3.85    0.66
  12   7  -7    7.61    0.78
 -12   7   7    7.39    0.92
 -12   7  -7    7.32    0.90
  12  -7  -7    5.94    0.74
   0   8  -7   17.02    0.83
   0  -8   7   18.35    0.64
  -1   8   7    5.33    0.31
   1   8  -7    4.07    0.45
  -1   8  -7    4.66    0.30
  -1  -8   7    5.16    0.29
   1  -8  -7    4.66    0.38
  -1   8  -7    4.59    0.47
   1   8   7    4.97    0.39
  -2   8   7   19.61    0.73
   2   8  -7   19.26    0.91
  -2  -8   7   19.26    0.69
   2   8   7   18.31    0.78
  -2   8  -7   17.99    0.87
   2  -8  -7   18.76    0.86
  -2   8  -7   19.31    0.75
  -3   8   7   84.26    2.54
   3   8  -7   82.35    2.74
   3  -8  -7   79.37    2.67
  -3   8  -7   79.88    2.68
  -3   8  -7   90.61    2.59
   3   8   7   80.84    2.57
   4   8  -7   10.20    0.65
  -4   8  -7   12.02    0.68
   4   8   7   10.60    0.56
   4  -8  -7   10.38    0.66
   5  -8   7    4.19    0.46
   5   8  -7    4.26    0.48
  -5   8   7    3.86    0.41
  -5   8  -7    3.90    0.42
   5  -8  -7    3.72    0.46
   5   8   7    3.71    0.36
  -6   8   7    0.49    0.27
   6   8  -7    0.43    0.31
   6  -8   7    0.46    0.27
   6  -8  -7    0.38    0.30
  -6   8  -7    0.80    0.28
   7  -8   7    0.73    0.29
  -7   8   7    0.56    0.30
   7   8  -7    0.52    0.25
   7  -8  -7    0.70    0.26
  -7   8  -7    0.47    0.29
   8  -8   7    3.63    0.46
   8   8  -7    3.25    0.50
  -8   8   7    4.34    0.55
  -8   8  -7    3.69    0.51
   8  -8  -7    3.73    0.54
  -9   8   7    5.45    0.66
   9  -8   7    5.39    0.56
   9   8  -7    5.44    0.60
   9  -8  -7    6.36    0.64
  -9   8  -7    5.29    0.64
 -10   8   7    0.33    0.43
  10   8  -7   -0.08    0.32
  10  -8   7    0.14    0.28
 -10   8  -7   -0.09    0.35
  10  -8  -7   -0.02    0.28
 -11   8   7    2.22    0.59
  11   8  -7    1.96    0.50
  11  -8  -7    3.95    0.62
 -11   8  -7    3.59    0.57
   0   9  -7   93.68    3.03
   1   9  -7   34.91    1.40
   1  -9  -7   37.37    1.38
  -1   9  -7   35.39    1.39
   1   9   7   35.02    1.31
   2   9  -7   88.38    2.96
   2  -9  -7   90.77    2.94
  -2   9  -7   92.81    2.97
   2   9   7   91.78    2.85
   3   9  -7   21.41    1.04
  -3   9  -7   23.37    1.06
  -3   9  -7   25.91    0.94
   3   9   7   22.03    0.93
   3  -9  -7   22.11    1.00
   4   9  -7    7.00    0.65
  -4   9   7    6.33    0.44
   4  -9  -7    6.43    0.51
  -4   9  -7    6.25    0.48
   4   9   7    6.16    0.45
  -4   9  -7    5.71    0.56
   5  -9   7    0.67    0.31
   5   9  -7    1.24    0.32
  -5   9  -7    1.33    0.29
   5  -9  -7    1.11    0.29
   5   9   7    0.87    0.24
  -6   9   7    1.26    0.33
   6  -9   7    0.71    0.30
   6   9  -7    0.79    0.33
   6  -9  -7    0.88    0.34
  -6   9  -7    0.79    0.31
   7  -9   7    2.99    0.41
  -7   9   7    3.56    0.47
   7   9  -7    2.92    0.45
  -7   9  -7    3.82    0.48
   7  -9  -7    3.75    0.53
  -8   9   7   16.50    0.96
   8   9  -7   18.38    1.03
   8  -9   7   18.01    0.95
  -8   9  -7   17.79    0.93
   8  -9  -7   19.51    1.06
   9   9  -7    4.35    0.60
   9  -9   7    3.47    0.49
  -9   9   7    3.27    0.55
   9  -9  -7    3.72    0.58
  -9   9  -7    4.28    0.57
 -10   9   7    0.92    0.44
  10  -9   7    1.39    0.41
  10   9  -7    1.74    0.48
  10  -9  -7    1.75    0.50
 -10   9  -7    1.06    0.44
  11   9  -7    2.27    0.54
 -11   9   7    2.14    0.58
 -11   9  -7    1.72    0.55
  11  -9  -7    2.19    0.56
   0  10  -7   54.06    1.96
   1  10  -7    7.35    0.61
   1  10   7    7.25    0.54
  -1  10  -7    7.40    0.56
   1 -10  -7    6.99    0.52
   2  10  -7    5.70    0.59
   2  10   7    5.91    0.52
  -2  10  -7    6.97    0.54
   2 -10  -7    5.50    0.54
   3  10  -7    0.89    0.34
   3 -10  -7    0.87    0.32
  -3  10  -7    0.51    0.31
   3  10   7    0.65    0.26
   4  10  -7   14.86    0.87
   4 -10  -7   12.81    0.75
  -4  10  -7   11.42    0.78
   4  10   7   12.01    0.66
   5  10  -7    6.35    0.66
   5 -10   7    7.11    0.57
   5 -10  -7    5.97    0.60
   5  10   7    5.97    0.51
   6  10  -7    2.33    0.48
   6 -10   7    1.91    0.40
   6 -10  -7    2.39    0.47
   7  10  -7    0.45    0.36
   7 -10   7    1.07    0.34
  -7  10  -7    0.76    0.32
   7 -10  -7    0.27    0.28
   8  10  -7   12.01    0.88
   8 -10   7   13.00    0.83
  -8  10  -7   12.23    0.81
   8 -10  -7   12.89    0.92
   9 -10   7   -0.28    0.29
   9  10  -7    0.34    0.38
   9 -10  -7   -0.07    0.37
  -9  10  -7    0.04    0.32
 -10  10   7    1.11    0.47
  10 -10   7    0.06    0.33
  10  10  -7    0.67    0.42
  10 -10  -7    0.38    0.42
 -10  10  -7    1.67    0.47
   0 -11  -7    3.36    0.47
   0  11  -7    2.91    0.45
   1  11  -7   25.67    1.17
   1 -11  -7   23.80    1.10
  -1  11  -7   24.78    1.18
   1  11   7   24.35    1.09
   2  11  -7   14.08    0.82
   2 -11  -7   14.36    0.80
  -2  11  -7   12.73    0.85
   2  11   7   12.79    0.74
   3  11  -7   10.22    0.75
   3  11   7    8.25    0.62
  -3  11  -7    9.23    0.67
   3 -11  -7    9.57    0.71
   4  11  -7   23.13    1.18
  -4  11  -7   22.11    1.11
   4 -11  -7   24.75    1.17
   4  11   7   21.29    0.98
   5 -11   7    0.83    0.31
   5  11  -7    0.80    0.31
   5 -11  -7    1.26    0.34
   6 -11   7    8.17    0.76
   6  11  -7    7.39    0.72
   6 -11  -7    8.27    0.79
   7  11  -7    3.99    0.60
   7 -11   7    4.61    0.61
   7 -11  -7    6.06    0.68
   8  11  -7    1.07    0.38
   8 -11   7    1.93    0.45
   8 -11  -7    0.79    0.46
   9 -11   7    0.10    0.35
   9  11  -7    0.43    0.33
   9 -11  -7    0.65    0.46
  10  11  -7    4.15    0.66
  10 -11   7    4.19    0.62
  10 -11  -7    4.32    0.64
   0 -12  -7    3.82    0.52
   0  12  -7    4.05    0.55
   1  12  -7    9.68    0.77
   1 -12  -7    7.56    0.71
  -1  12  -7   10.02    0.76
   1  12   7    8.28    0.65
   2  12  -7   10.38    0.73
   2 -12  -7    9.78    0.69
   2  12   7    7.45    0.62
  -2  12  -7    9.68    0.78
   3  12  -7    5.49    0.66
   3 -12  -7    5.75    0.65
   3  12   7    5.12    0.54
  -3  12  -7    5.84    0.63
   4  12  -7    1.03    0.40
   4 -12  -7    1.38    0.37
   4  12   7    1.33    0.34
   5  12  -7   21.70    1.20
   5 -12   7   23.24    1.21
   5 -12  -7   20.21    1.17
   6 -12   7    5.71    0.69
   6  12  -7    4.78    0.66
   6 -12  -7    4.10    0.59
   7  12  -7    7.21    0.79
   7 -12   7    9.26    0.85
   7 -12  -7    7.76    0.84
   8  12  -7   -0.45    0.36
   8 -12   7    0.18    0.37
   8 -12  -7    0.80    0.49
   9 -12   7    2.97    0.59
   9  12  -7    3.70    0.64
   9 -12  -7    2.78    0.57
   0  13  -7    1.46    0.44
   0 -13  -7    0.52    0.36
   1  13  -7    6.37    0.75
   1  13   7    7.03    0.67
   1 -13  -7    7.34    0.63
  -1  13  -7    6.90    0.71
   2  13  -7    2.64    0.54
   2 -13  -7    3.00    0.52
   2  13   7    2.02    0.42
  -2  13  -7    2.96    0.50
   3  13  -7    8.35    0.83
  -3  13  -7    9.21    0.86
   3  13   7    7.49    0.64
   3 -13  -7    9.65    0.81
   4 -13   7    7.28    0.81
   4  13  -7    7.53    0.80
   4 -13  -7    7.03    0.73
   4  13   7    6.46    0.62
   5 -13   7    1.51    0.49
   5  13  -7    1.35    0.49
   5 -13  -7    0.82    0.45
   6  13  -7    9.63    0.91
   6 -13   7   10.71    0.83
   6 -13  -7    7.48    0.86
   7  13  -7    3.34    0.57
   7 -13   7    3.81    0.65
   7 -13  -7    3.89    0.62
   8 -13   7    1.44    0.51
   8  13  -7    0.15    0.41
   8 -13  -7    0.56    0.40
   0 -14  -7    2.28    0.49
   0  14  -7    2.34    0.56
   1  14  -7    2.89    0.52
  -1  14  -7    2.07    0.55
   1 -14  -7    2.28    0.51
   2  14  -7    2.41    0.51
   2  14   7    1.61    0.44
  -2  14  -7    1.78    0.52
   2 -14  -7    2.66    0.54
   3  14  -7    1.41    0.43
  -3  14  -7    0.08    0.39
   3 -14  -7    0.69    0.36
   3  14   7    1.12    0.37
   4 -14   7    4.83    0.72
   4  14  -7    4.87    0.71
   4 -14  -7    4.20    0.61
   5 -14   7    5.43    0.75
   5  14  -7    4.89    0.74
   5 -14  -7    5.01    0.73
   6 -14   7    3.49    0.65
   6  14  -7    4.08    0.69
   6 -14  -7    4.03    0.71
   7 -14   7    2.07    0.59
   7  14  -7    2.54    0.50
   7 -14  -7    2.23    0.60
   0  15  -7   -0.62    0.37
   0 -15  -7   -0.44    0.36
  -1 -15  -7   -0.36    0.30
   1  15  -7    0.48    0.45
  -1  15  -7   -0.02    0.44
   1 -15  -7    0.55    0.42
   2  15  -7    3.06    0.64
  -2  15  -7    1.95    0.50
   2 -15  -7    1.82    0.52
   2  15   7    1.70    0.47
   3  15  -7    0.23    0.47
   3 -15  -7    1.61    0.53
   3  15   7    0.50    0.37
  -3  15  -7    1.76    0.56
   4  15  -7    2.82    0.65
   4 -15   7    3.78    0.69
   4 -15  -7    3.43    0.68
   5  15  -7    1.30    0.54
   5 -15   7    1.26    0.51
   5 -15  -7    0.83    0.50
   0 -16  -7   -0.54    0.34
   0  16  -7   -0.04    0.47
   1  16  -7    2.86    0.67
  -1 -16  -7    3.21    0.60
  -1  16  -7    2.02    0.61
   1 -16  -7    2.49    0.58
   2  16  -7    0.93    0.54
   2 -16  -7    0.58    0.44
  -2  16  -7    0.01    0.48
   3  16  -7    4.20    0.75
   3 -16   7    4.13    0.68
   3 -16  -7    5.08    0.70
   0   0  -8   17.09    0.56
   0   0   8   15.97    0.61
  -1   0  -8   90.81    2.57
  -1   0   8   91.36    2.68
  -1   0  -8   87.82    2.68
   1   0  -8   91.52    2.65
  -2   0   8  473.36   13.03
   2   0  -8  466.43   13.07
  -2   0  -8  453.02   13.03
  -3   0  -8    1.24    0.19
   3   0  -8    1.33    0.20
   3   0   8    1.25    0.08
  -3   0   8    1.00    0.21
   4   0   8    0.13    0.06
  -4   0  -8    0.54    0.21
   4   0  -8    0.26    0.16
  -4   0   8    0.13    0.18
   5   0  -8    8.25    0.49
  -5   0   8    8.66    0.53
  -5   0  -8    8.32    0.52
   5   0   8    8.42    0.33
   6   0  -8    1.72    0.30
  -6   0   8    1.49    0.29
   6   0   8    1.75    0.17
  -6   0  -8    1.47    0.31
   7   0  -8   35.64    1.34
  -7   0   8   35.38    1.38
  -7   0  -8   34.19    1.35
   7   0   8   33.77    1.13
   8   0  -8    2.03    0.38
  -8   0   8    1.85    0.42
  -8   0  -8    2.21    0.38
   9   0  -8   13.65    0.78
  -9   0   8   14.99    0.92
  -9   0  -8   16.07    0.88
 -10   0   8   15.15    0.99
 -10   0  -8   15.45    0.92
  10   0  -8   15.53    0.90
 -11   0   8    0.81    0.38
 -11   0  -8    0.98    0.47
  11   0  -8    1.27    0.41
 -12   0   8    1.19    0.45
 -12   0  -8    0.58    0.48
  12   0  -8    0.70    0.40
 -13   0  -8    0.40    0.50
  13   0  -8   -0.22    0.38
 -13   0   8   -0.37    0.37
   0   1  -8  129.51    3.65
   0  -1   8  123.06    3.63
   0   1   8  122.70    3.63
   0  -1  -8  127.22    3.58
  -1   1   8   16.86    0.66
  -1  -1  -8   17.39    0.53
   1   1  -8   16.51    0.63
  -1  -1  -8   17.17    0.65
  -1  -1   8   17.37    0.65
  -1   1  -8   17.78    0.67
   1  -1  -8   17.70    0.63
  -1   1  -8   18.15    0.58
   2   1  -8   80.24    2.48
  -2   1   8   82.68    2.49
  -2  -1  -8   80.61    2.48
  -2   1  -8   84.45    2.50
   2  -1  -8   81.41    2.46
  -2  -1   8   87.11    2.49
  -2   1  -8   82.47    2.37
  -3   1   8   30.54    1.10
  -3  -1  -8   32.86    1.11
   3   1  -8   31.94    1.09
   3  -1   8   32.12    0.96
   3  -1  -8   32.97    1.09
  -3  -1   8   30.82    1.10
  -3   1  -8   31.33    1.11
   4   1  -8   33.11    1.12
   4  -1   8   30.38    0.95
  -4  -1  -8   31.42    1.12
  -4   1   8   31.28    1.12
  -4   1  -8   29.78    1.11
   4   1   8   30.16    0.91
   4  -1  -8   30.19    1.09
  -4  -1   8   31.39    1.10
  -5   1   8   56.33    1.87
   5   1  -8   56.59    1.85
   5  -1   8   55.21    1.67
  -5  -1  -8   55.11    1.86
  -5  -1   8   56.47    1.85
   5  -1  -8   55.74    1.84
   5   1   8   56.47    1.65
  -5   1  -8   57.49    1.88
   6  -1   8    3.07    0.23
  -6  -1  -8    3.43    0.37
   6   1  -8    3.16    0.35
  -6   1   8    3.13    0.41
   6  -1  -8    3.19    0.35
  -6  -1   8    3.04    0.39
   6   1   8    3.50    0.22
  -6   1  -8    3.16    0.37
  -7   1   8   21.55    0.97
   7   1  -8   19.73    0.94
   7  -1   8   21.08    0.77
  -7  -1  -8   22.24    1.00
  -7  -1   8   23.19    1.01
  -7   1  -8   21.15    1.01
   7  -1  -8   21.07    0.95
  -8   1   8    8.84    0.62
  -8  -1  -8    7.37    0.66
   8   1  -8    7.84    0.59
  -8   1  -8    8.22    0.61
   8  -1  -8    7.46    0.58
  -8  -1   8    8.35    0.66
  -9   1   8    6.37    0.67
  -9  -1  -8    5.39    0.60
   9   1  -8    5.51    0.57
  -9  -1   8    5.34    0.61
   9  -1  -8    6.72    0.53
  -9   1  -8    4.99    0.61
 -10  -1  -8   -0.04    0.34
  10   1  -8   -0.13    0.28
 -10   1   8   -0.09    0.29
 -10  -1   8   -0.09    0.37
  10  -1  -8    0.30    0.25
 -10   1  -8    0.13    0.37
 -11  -1  -8    0.92    0.39
 -11   1   8    1.50    0.45
  11   1  -8    1.20    0.41
 -11  -1   8    1.88    0.45
 -11   1  -8    1.58    0.54
  11  -1  -8    1.68    0.39
 -12   1   8    1.57    0.60
 -12  -1  -8    1.01    0.47
  12   1  -8    1.70    0.47
 -12  -1   8    1.17    0.45
 -12   1  -8    0.90    0.43
  12  -1  -8    1.09    0.43
 -13  -1  -8    3.07    0.66
  13   1  -8    3.33    0.58
 -13   1   8    2.39    0.59
 -13  -1   8    3.64    0.63
  13  -1  -8    2.41    0.55
 -13   1  -8    2.77    0.61
   0   2  -8  251.66    7.21
   0   2   8  255.49    7.19
   0  -2   8  250.67    7.19
   0  -2  -8  259.98    7.16
   1   2  -8  106.90    3.15
  -1   2   8  107.69    3.14
  -1  -2  -8  107.35    3.03
  -1  -2  -8  104.44    3.12
   1  -2  -8  106.59    3.12
  -1   2  -8  108.86    3.10
  -1  -2   8  105.04    3.13
  -1   2  -8  109.44    3.15
   2   2  -8    5.63    0.35
  -2   2   8    5.29    0.32
  -2  -2  -8    5.17    0.32
  -2  -2   8    5.02    0.33
  -2   2  -8    5.52    0.27
   2  -2  -8    5.20    0.31
  -2   2  -8    5.37    0.36
   3   2  -8   37.08    1.28
  -3   2   8   37.10    1.27
  -3  -2  -8   37.95    1.26
   3  -2  -8   36.85    1.25
  -3   2  -8   38.36    1.28
  -3  -2   8   38.42    1.26
   4  -2   8    7.60    0.34
  -4  -2  -8    7.47    0.45
  -4   2   8    7.95    0.49
   4   2  -8    7.49    0.46
   4  -2  -8    7.78    0.45
  -4  -2   8    8.63    0.47
   4   2   8    8.35    0.28
  -4   2  -8    8.46    0.50
  -5   2   8    0.37    0.24
  -5  -2  -8    0.21    0.15
   5   2  -8    0.32    0.16
   5  -2   8    0.29    0.11
  -5  -2   8    0.54    0.22
   5  -2  -8    0.41    0.20
  -5   2  -8    0.23    0.17
   5   2   8    0.35    0.09
  -6   2   8    5.15    0.50
   6  -2   8    5.23    0.31
  -6  -2  -8    6.10    0.47
   6   2  -8    4.91    0.46
   6  -2  -8    5.88    0.41
  -6  -2   8    5.53    0.49
  -6   2  -8    5.07    0.44
   6   2   8    6.20    0.29
   7  -2   8   16.02    0.63
  -7  -2  -8   16.20    0.82
  -7   2   8   16.76    0.83
   7   2  -8   15.23    0.79
  -7  -2   8   16.04    0.82
  -7   2  -8   15.46    0.85
   7  -2  -8   14.82    0.76
   8  -2   8    7.24    0.42
  -8   2   8    6.83    0.65
  -8  -2  -8    7.31    0.61
   8   2  -8    6.85    0.52
  -8  -2   8    6.66    0.62
   8  -2  -8    7.49    0.53
  -8   2  -8    6.67    0.57
  -9   2   8    1.15    0.43
   9   2  -8    1.33    0.35
  -9  -2  -8    1.17    0.38
  -9  -2   8    0.78    0.38
  -9   2  -8    0.79    0.39
   9  -2  -8    1.19    0.35
  10   2  -8    4.35    0.55
 -10   2   8    3.38    0.59
 -10  -2  -8    3.77    0.57
  10  -2  -8    4.47    0.55
 -10  -2   8    4.06    0.53
 -10   2  -8    4.12    0.61
 -11  -2  -8    0.13    0.37
 -11   2   8    0.24    0.49
  11   2  -8    0.19    0.35
  11  -2  -8    0.11    0.33
 -11   2  -8    0.32    0.44
 -11  -2   8   -0.14    0.41
  12   2  -8    2.08    0.48
 -12   2   8    2.32    0.65
 -12  -2  -8    3.03    0.59
 -12  -2   8    2.33    0.60
 -12   2  -8    2.32    0.54
  12  -2  -8    2.45    0.53
 -13  -2  -8    2.27    0.58
 -13   2   8    1.18    0.63
  13   2  -8    1.13    0.48
 -13  -2   8    1.97    0.63
 -13   2  -8    1.85    0.53
  13  -2  -8    1.69    0.51
   0  -3   8    1.13    0.16
   0   3   8    1.28    0.18
   0   3  -8    1.48    0.19
   0  -3  -8    1.41    0.15
   1   3  -8   10.14    0.47
  -1   3   8    9.46    0.45
  -1  -3  -8   10.18    0.44
  -1  -3  -8    9.92    0.37
  -1  -3   8   10.38    0.45
  -1   3  -8    9.96    0.47
   1  -3  -8   10.43    0.43
  -1   3  -8   11.10    0.45
  -2  -3  -8  118.11    3.48
   2   3  -8  118.13    3.55
  -2  -3  -8  120.52    3.38
  -2   3   8  118.07    3.50
  -2  -3   8  120.46    3.49
   2  -3  -8  119.74    3.50
  -2   3  -8  119.61    3.52
  -3   3   8    4.17    0.33
   3   3  -8    3.48    0.34
  -3  -3  -8    3.22    0.28
  -3   3  -8    3.23    0.31
  -3   3  -8    3.60    0.25
   3   3   8    3.85    0.17
   3  -3  -8    3.58    0.30
  -3  -3   8    3.79    0.27
  -4   3   8    8.99    0.52
   4  -3   8    9.01    0.41
   4   3  -8    8.46    0.50
  -4  -3  -8    9.15    0.47
  -4  -3   8    9.50    0.48
   4   3   8    8.71    0.33
   4  -3  -8    8.90    0.48
  -4   3  -8    9.06    0.49
   5   3  -8   20.72    0.88
  -5  -3  -8   20.65    0.85
  -5   3   8   19.64    0.87
   5  -3   8   20.85    0.76
   5   3   8   21.11    0.68
  -5   3  -8   20.80    0.90
  -5  -3   8   20.23    0.83
   5  -3  -8   22.24    0.88
  -6  -3  -8    2.79    0.36
   6  -3   8    2.96    0.27
   6   3  -8    2.67    0.33
  -6   3   8    2.52    0.35
   6   3   8    2.98    0.22
  -6   3  -8    2.30    0.34
  -6  -3   8    2.99    0.36
   6  -3  -8    3.17    0.37
  -7   3   8   61.30    2.13
   7   3  -8   60.80    2.10
  -7  -3  -8   63.19    2.09
   7  -3   8   61.87    1.93
  -7  -3   8   61.67    2.08
   7  -3  -8   61.45    2.08
  -7   3  -8   58.49    2.12
  -8  -3  -8   12.48    0.76
   8   3  -8   13.19    0.77
  -8   3   8   13.77    0.85
   8  -3   8   13.87    0.61
  -8  -3   8   13.83    0.75
   8  -3  -8   12.28    0.75
  -8   3  -8   14.55    0.82
  -9   3   8    4.23    0.54
   9   3  -8    4.73    0.51
  -9  -3  -8    3.88    0.51
  -9  -3   8    3.69    0.48
  -9   3  -8    4.10    0.53
   9  -3  -8    3.82    0.50
  10   3  -8    3.58    0.52
 -10   3   8    4.52    0.65
 -10  -3  -8    4.39    0.55
 -10  -3   8    4.30    0.58
  10  -3  -8    4.33    0.55
 -10   3  -8    4.63    0.60
  11   3  -8   10.26    0.81
 -11  -3  -8    8.80    0.81
 -11   3   8    9.72    0.94
 -11   3  -8   11.29    1.01
  11  -3  -8   10.39    0.80
 -11  -3   8   10.10    0.85
 -12  -3  -8    1.15    0.46
  12   3  -8    0.93    0.43
 -12   3   8    1.02    0.49
  12  -3  -8    0.33    0.40
 -12   3  -8   -0.30    0.46
 -12  -3   8    0.32    0.36
  13   3  -8    1.41    0.47
 -13  -3  -8    0.61    0.45
 -13   3   8    0.57    0.46
 -13  -3   8    0.76    0.43
 -13   3  -8    1.38    0.59
  13  -3  -8    1.72    0.50
   0   4  -8   34.03    1.18
   0  -4   8   36.14    1.14
  -1  -4  -8  101.65    2.97
  -1   4   8  102.33    3.00
   1   4  -8  101.45    3.07
  -1  -4   8  102.10    3.00
  -1   4  -8  104.07    3.03
  -1   4  -8  101.25    3.04
   1  -4  -8  102.98    3.02
  -2   4   8    0.15    0.14
   2   4  -8    0.40    0.18
  -2  -4  -8    0.19    0.13
  -2  -4   8    0.24    0.13
  -2   4  -8    0.43    0.15
   2   4   8    0.28    0.10
   2  -4  -8    0.29    0.12
  -2   4  -8    0.09    0.11
  -3  -4  -8   73.04    2.14
  -3   4   8   71.59    2.18
   3   4  -8   72.54    2.25
  -3   4  -8   69.47    2.19
   3   4   8   68.63    2.04
  -3  -4   8   67.54    2.13
   3  -4  -8   67.49    2.18
  -3   4  -8   69.44    2.14
   4   4  -8   61.52    2.03
   4  -4   8   59.80    1.91
  -4   4   8   61.18    1.99
  -4  -4  -8   60.82    1.93
  -4   4  -8   61.64    2.00
   4  -4  -8   62.23    1.99
  -4  -4   8   62.74    1.94
   4   4   8   62.28    1.82
  -5  -4  -8   36.99    1.29
  -5   4   8   35.80    1.33
   5   4  -8   37.84    1.36
   5  -4   8   36.50    1.24
  -5  -4   8   37.14    1.30
  -5   4  -8   36.16    1.34
   5  -4  -8   35.48    1.31
   5   4   8   38.41    1.16
   6   4  -8   16.58    0.83
   6  -4   8   17.24    0.71
  -6  -4  -8   17.60    0.79
  -6   4   8   16.96    0.86
  -6  -4   8   17.81    0.81
  -6   4  -8   18.68    0.85
   6  -4  -8   16.89    0.79
  -7   4   8   16.91    0.90
   7   4  -8   15.48    0.83
   7  -4   8   16.36    0.70
  -7  -4  -8   16.21    0.80
  -7  -4   8   16.99    0.83
   7  -4  -8   15.85    0.79
  -7   4  -8   17.29    0.90
   8   4  -8    1.15    0.34
   8  -4   8    1.33    0.25
  -8  -4  -8    1.05    0.31
  -8   4   8    1.31    0.33
   8  -4  -8    1.71    0.32
  -8  -4   8    0.54    0.32
  -8   4  -8    1.30    0.38
  -9  -4  -8    6.13    0.59
   9   4  -8    4.97    0.58
  -9   4   8    5.17    0.60
  -9  -4   8    5.23    0.58
   9  -4  -8    5.78    0.60
  -9   4  -8    5.98    0.67
 -10  -4  -8    0.84    0.36
  10   4  -8    1.36    0.41
 -10   4   8    1.67    0.44
 -10   4  -8    1.41    0.49
  10  -4  -8    0.95    0.39
 -10  -4   8    0.83    0.41
 -11  -4  -8    1.31    0.42
 -11   4   8    1.27    0.44
  11   4  -8    0.69    0.39
 -11   4  -8    0.52    0.37
 -11  -4   8    0.71    0.43
  11  -4  -8    0.67    0.33
 -12   4   8    0.40    0.54
 -12  -4  -8    2.15    0.51
  12   4  -8    1.16    0.45
  12  -4  -8    1.03    0.43
 -12   4  -8    0.58    0.53
 -12  -4   8    0.73    0.50
  13   4  -8    0.78    0.45
  13  -4  -8    0.63    0.45
   0   5  -8    2.07    0.24
   0   5   8    2.45    0.21
   0  -5   8    2.57    0.21
  -1  -5  -8   30.72    1.01
  -1   5   8   28.74    1.01
   1   5  -8   28.90    1.09
   1  -5  -8   30.71    1.05
  -1   5  -8   30.51    1.03
  -1   5  -8   31.05    1.08
  -1  -5   8   30.42    1.00
   1   5   8   31.18    0.99
  -2  -5  -8   51.42    1.60
  -2   5   8   53.46    1.65
   2   5  -8   49.74    1.73
  -2  -5   8   51.98    1.62
   2  -5  -8   53.05    1.69
  -2   5  -8   53.32    1.70
  -2   5  -8   52.73    1.68
   2   5   8   51.54    1.59
  -3  -5  -8  102.80    3.04
  -3   5   8  102.82    3.10
   3   5  -8  104.92    3.20
  -3   5  -8  101.03    3.10
  -3  -5   8  102.16    3.04
   3   5   8  105.73    3.01
   3  -5  -8  102.11    3.14
  -3   5  -8  102.66    3.11
   4  -5   8   27.06    1.00
   4   5  -8   25.07    1.08
  -4   5   8   28.20    1.05
  -4  -5  -8   27.01    0.97
   4   5   8   27.99    0.91
   4  -5  -8   27.55    1.06
  -4  -5   8   27.76    0.98
  -4   5  -8   26.82    1.04
   5   5  -8   35.55    1.34
   5  -5   8   35.02    1.22
  -5  -5  -8   33.43    1.20
  -5   5   8   34.85    1.30
  -5  -5   8   35.19    1.23
  -5   5  -8   33.83    1.28
   5   5   8   35.15    1.12
   5  -5  -8   33.96    1.28
   6  -5   8   27.62    1.06
   6   5  -8   30.19    1.20
  -6  -5  -8   29.38    1.10
  -6   5   8   28.43    1.18
  -6   5  -8   28.05    1.18
   6  -5  -8   27.66    1.16
  -6  -5   8   28.86    1.11
  -7  -5  -8   18.48    0.85
  -7   5   8   17.63    0.89
   7   5  -8   18.09    0.91
   7  -5   8   18.00    0.80
  -7  -5   8   18.80    0.87
  -7   5  -8   18.41    0.94
   7  -5  -8   18.28    0.90
  -8  -5  -8    0.64    0.28
   8  -5   8    0.72    0.23
   8   5  -8    0.33    0.29
  -8   5   8    0.23    0.34
   8  -5  -8    0.88    0.32
  -8  -5   8    1.03    0.28
  -8   5  -8    0.50    0.32
   9  -5   8    1.39    0.28
  -9   5   8    0.85    0.42
  -9  -5  -8    0.36    0.28
   9   5  -8    1.22    0.37
  -9  -5   8    1.62    0.39
   9  -5  -8    1.90    0.40
  -9   5  -8    2.10    0.41
  10   5  -8   -0.30    0.29
 -10  -5  -8    0.12    0.30
 -10   5   8    0.32    0.41
 -10  -5   8    0.40    0.35
  10  -5  -8    0.34    0.35
 -10   5  -8    0.48    0.41
 -11   5   8    3.48    0.58
 -11  -5  -8    3.70    0.54
  11   5  -8    3.49    0.55
 -11  -5   8    2.90    0.54
 -11   5  -8    3.12    0.64
  11  -5  -8    3.25    0.56
 -12   5   8    0.29    0.55
 -12  -5  -8    0.35    0.37
  12   5  -8    1.00    0.43
 -12  -5   8    0.52    0.45
  12  -5  -8   -0.23    0.36
 -12   5  -8    1.24    0.55
   0  -6  -8   40.47    1.34
   0   6   8   41.78    1.28
   0   6  -8   39.41    1.40
   0  -6   8   39.71    1.28
   1   6  -8   13.94    0.69
  -1   6   8   15.89    0.59
  -1   6  -8   15.26    0.69
  -1   6  -8   14.92    0.61
   1  -6  -8   14.59    0.65
   1   6   8   15.92    0.57
  -1  -6   8   15.47    0.58
   2   6  -8   10.65    0.57
  -2   6   8   12.40    0.51
  -2   6  -8   12.55    0.54
   2  -6  -8    9.52    0.54
  -2  -6   8   10.82    0.47
   2   6   8   10.43    0.48
   2   6   8   12.27    0.47
  -2   6  -8   10.14    0.56
   3   6  -8   19.52    0.86
  -3  -6  -8   19.07    0.71
  -3   6   8   19.20    0.78
  -3   6  -8   19.94    0.81
  -3   6  -8   20.24    0.83
   3   6   8   19.54    0.72
  -3  -6   8   19.97    0.73
   3  -6  -8   19.25    0.81
  -4   6   8    8.76    0.51
  -4  -6  -8    8.00    0.41
   4   6  -8    7.50    0.55
  -4  -6   8    7.45    0.43
  -4   6  -8    7.58    0.48
  -4   6  -8    8.33    0.47
   4   6   8    8.07    0.41
   4  -6  -8    6.98    0.47
  -5   6   8   27.56    1.10
   5   6  -8   27.52    1.16
  -5  -6  -8   26.89    0.99
   5  -6   8   26.84    1.05
   5   6   8   28.53    0.95
  -5  -6   8   26.42    1.01
  -5   6  -8   27.62    1.10
   5  -6  -8   25.58    1.08
   6   6  -8    0.94    0.31
  -6  -6  -8    0.76    0.22
   6  -6   8    0.75    0.23
  -6   6   8    0.51    0.30
  -6   6  -8    1.24    0.28
  -6  -6   8    1.15    0.28
   6  -6  -8    0.78    0.30
   7   6  -8   21.18    1.02
   7  -6   8   21.97    0.95
  -7  -6  -8   22.66    0.96
  -7   6   8   24.12    1.10
  -7   6  -8   23.95    1.09
  -7  -6   8   23.57    0.99
   7  -6  -8   23.97    1.07
  -8   6   8    0.04    0.23
   8   6  -8    0.00    0.20
   8  -6   8   -0.18    0.18
  -8  -6  -8    0.42    0.24
   8  -6  -8    0.35    0.23
  -8  -6   8   -0.18    0.26
  -8   6  -8   -0.13    0.29
  -9   6   8    4.42    0.60
   9   6  -8    5.06    0.58
   9  -6   8    4.14    0.44
  -9  -6  -8    4.54    0.50
   9  -6  -8    5.21    0.56
  -9  -6   8    3.66    0.49
  -9   6  -8    4.62    0.56
 -10  -6  -8    2.98    0.46
 -10   6   8    2.41    0.56
  10   6  -8    1.12    0.42
  10  -6  -8    2.42    0.45
 -10   6  -8    2.71    0.49
 -10  -6   8    2.46    0.46
 -11   6   8    2.45    0.60
  11   6  -8    0.59    0.39
 -11  -6   8    0.18    0.41
 -11   6  -8    1.54    0.53
  11  -6  -8    0.78    0.35
  12   6  -8   -0.03    0.37
 -12   6   8   -0.10    0.49
  12  -6  -8   -0.36    0.27
 -12   6  -8   -0.20    0.33
   0   7   8    0.19    0.11
   0  -7   8    0.01    0.11
   0  -7  -8    0.03    0.16
   0   7  -8    0.00    0.18
   1   7  -8   36.01    1.36
  -1   7   8   36.83    1.20
   1   7   8   38.46    1.17
  -1   7  -8   36.58    1.35
   1   7   8   35.50    1.26
  -1  -7   8   37.67    1.19
  -1   7  -8   37.41    1.22
   1  -7  -8   37.10    1.30
  -2   7   8    2.68    0.26
   2   7  -8    2.60    0.36
  -2   7  -8    2.53    0.33
   2  -7  -8    2.17    0.32
  -2   7  -8    2.37    0.27
  -2  -7   8    2.37    0.23
   2   7   8    2.28    0.27
   2   7   8    2.53    0.22
  -3   7   8    4.34    0.38
   3   7  -8    4.86    0.49
  -3  -7  -8    5.77    0.30
  -3   7  -8    5.32    0.39
   3   7   8    5.17    0.35
  -3   7  -8    5.89    0.46
  -3  -7   8    5.25    0.33
   3  -7  -8    5.17    0.47
  -4  -7  -8   14.47    0.59
  -4   7   8   14.23    0.69
   4   7  -8   13.86    0.75
  -4  -7   8   15.60    0.64
   4   7   8   15.04    0.64
  -4   7  -8   13.56    0.69
  -4   7  -8   15.90    0.75
   4  -7  -8   14.11    0.75
  -5  -7  -8    4.38    0.34
   5   7  -8    4.43    0.48
   5  -7   8    4.47    0.44
  -5   7   8    5.26    0.48
   5  -7  -8    4.88    0.49
  -5  -7   8    5.04    0.42
  -5   7  -8    5.04    0.47
   5   7   8    5.36    0.34
   6   7  -8   18.45    0.90
  -6  -7  -8   18.07    0.75
  -6   7   8   17.35    0.87
   6  -7   8   17.76    0.83
  -6  -7   8   18.38    0.79
  -6   7  -8   16.49    0.86
   6  -7  -8   16.87    0.86
   7  -7   8    7.91    0.55
  -7   7   8    7.64    0.58
   7   7  -8    8.01    0.65
   7  -7  -8    8.72    0.65
  -7   7  -8    7.91    0.63
  -7  -7   8    8.82    0.57
   8  -7   8    5.60    0.53
  -8   7   8    6.88    0.67
   8   7  -8    6.58    0.65
  -8  -7   8    6.72    0.55
   8  -7  -8    7.06    0.66
  -8   7  -8    6.47    0.65
   9  -7   8    7.49    0.56
   9   7  -8    7.15    0.70
  -9   7   8    6.94    0.74
   9  -7  -8    7.18    0.70
  -9   7  -8    7.47    0.74
 -10   7   8    6.06    0.73
  10   7  -8    7.17    0.73
  10  -7  -8    5.63    0.64
 -10   7  -8    5.60    0.70
  11   7  -8    0.91    0.43
 -11   7   8    1.38    0.54
 -11   7  -8    0.40    0.46
  11  -7  -8    2.10    0.46
 -12   7   8    1.41    0.57
 -12   7  -8    0.93    0.43
  12  -7  -8    0.56    0.37
   0  -8   8    4.86    0.29
   0   8  -8    4.37    0.46
   0  -8  -8    4.96    0.41
  -1   8   8   49.98    1.53
   1   8  -8   45.39    1.71
   1   8   8   49.23    1.64
  -1  -8   8   50.43    1.52
  -1   8  -8   50.76    1.55
   1  -8  -8   49.54    1.69
  -1   8  -8   44.85    1.71
  -2   8   8    4.02    0.32
   2   8  -8    3.47    0.42
  -2  -8   8    3.29    0.28
  -2   8  -8    4.47    0.34
  -2   8  -8    3.41    0.41
   2   8   8    3.68    0.35
   2  -8  -8    3.60    0.38
   3   8  -8   19.51    0.91
  -3   8   8   18.38    0.76
   3  -8  -8   17.33    0.86
   3   8   8   18.99    0.78
  -3   8  -8   19.66    0.79
  -3   8  -8   16.57    0.83
   4   8  -8    2.71    0.43
  -4   8  -8    2.65    0.36
   4   8   8    3.52    0.34
   4  -8  -8    2.95    0.42
  -4   8  -8    2.32    0.38
  -5   8   8    5.98    0.48
   5  -8   8    5.71    0.53
   5   8  -8    5.30    0.57
  -5   8  -8    5.69    0.47
   5   8   8    6.02    0.40
   5  -8  -8    6.25    0.58
   6   8  -8    0.52    0.31
   6  -8   8    0.04    0.22
  -6   8   8    0.07    0.25
  -6   8  -8   -0.30    0.22
   6  -8  -8    0.11    0.26
   7  -8   8    0.01    0.23
   7   8  -8    0.79    0.33
  -7   8   8    0.02    0.28
   7  -8  -8    0.17    0.28
  -7   8  -8   -0.06    0.27
   8  -8   8    3.07    0.43
  -8   8   8    3.44    0.48
   8   8  -8    3.22    0.51
  -8   8  -8    3.33    0.50
   8  -8  -8    3.24    0.52
   9   8  -8    9.73    0.79
  -9   8   8    9.50    0.80
   9  -8   8    8.55    0.65
   9  -8  -8    8.34    0.68
  -9   8  -8   10.04    0.79
 -10   8   8    4.35    0.65
  10   8  -8    4.72    0.64
 -10   8  -8    4.65    0.66
  10  -8  -8    4.99    0.62
  11   8  -8    2.09    0.51
 -11   8   8    1.03    0.52
 -11   8  -8    0.83    0.48
  11  -8  -8    1.57    0.43
   0  -9  -8    1.95    0.33
   0   9  -8    1.68    0.31
   1   9  -8   20.82    0.97
   1  -9  -8   22.71    0.98
   1   9   8   22.15    0.92
  -1   9  -8   21.09    1.00
   2   9  -8   15.84    0.86
  -2   9  -8   14.35    0.77
   2  -9  -8   15.26    0.80
   2   9   8   15.30    0.74
   3   9  -8    2.19    0.40
  -3   9  -8    2.21    0.39
   3  -9  -8    2.57    0.37
   3   9   8    2.11    0.31
  -3   9  -8    2.20    0.30
  -4   9   8    3.23    0.36
   4   9  -8    2.76    0.41
  -4   9  -8    3.76    0.47
   4   9   8    2.94    0.34
   4  -9  -8    3.31    0.45
   5   9  -8    3.69    0.51
   5  -9   8    3.08    0.44
   5  -9  -8    3.71    0.49
  -5   9  -8    4.29    0.44
   6   9  -8    7.98    0.73
   6  -9   8    7.99    0.57
  -6   9   8    7.86    0.58
   6  -9  -8    6.69    0.57
  -6   9  -8    7.61    0.57
   7   9  -8    5.89    0.66
  -7   9   8    5.31    0.56
   7  -9   8    4.83    0.54
  -7   9  -8    6.30    0.60
   7  -9  -8    4.86    0.60
   8   9  -8    5.63    0.66
   8  -9   8    4.14    0.51
  -8   9   8    4.28    0.57
   8  -9  -8    5.49    0.61
  -8   9  -8    4.52    0.56
  -9   9   8    2.61    0.52
   9  -9   8    1.57    0.40
   9   9  -8    2.54    0.53
  -9   9  -8    2.07    0.47
   9  -9  -8    1.86    0.49
 -10   9   8    2.11    0.53
  10   9  -8    1.34    0.39
  10  -9   8    1.18    0.39
 -10   9  -8    2.05    0.51
  10  -9  -8    1.03    0.48
  11   9  -8   -0.78    0.33
 -11   9   8    0.26    0.42
 -11   9  -8   -0.27    0.39
  11  -9  -8    0.04    0.43
   0  10  -8   60.47    2.22
   0 -10  -8   67.19    2.20
   1  10  -8    8.17    0.65
   1 -10  -8    9.34    0.63
   1  10   8    8.81    0.57
  -1  10  -8    7.62    0.58
   2  10  -8    4.47    0.54
   2  10   8    4.78    0.46
   2 -10  -8    4.64    0.48
  -2  10  -8    4.43    0.52
   3  10  -8   33.98    1.44
   3 -10  -8   33.22    1.38
   3  10   8   34.36    1.31
  -3  10  -8   35.96    1.45
   4  10  -8    2.17    0.44
   4 -10  -8    2.16    0.41
  -4  10  -8    1.77    0.39
   4  10   8    1.88    0.33
   5  10  -8   -0.44    0.17
   5 -10   8   -0.20    0.26
   5 -10  -8    0.03    0.29
   6  10  -8    0.18    0.24
   6 -10   8    0.16    0.29
   6 -10  -8    0.33    0.26
   7 -10   8   19.92    1.05
   7  10  -8   22.19    1.15
   7 -10  -8   20.47    1.12
  -7  10  -8   18.93    0.98
   8  10  -8    1.55    0.38
   8 -10   8    1.32    0.40
   8 -10  -8    1.43    0.47
  -8  10  -8    1.73    0.40
   9 -10   8    0.91    0.39
   9  10  -8    0.91    0.36
  -9  10  -8    1.35    0.43
   9 -10  -8    0.73    0.43
  10  10  -8    3.39    0.60
  10 -10   8    2.13    0.49
 -10  10  -8    2.17    0.52
  10 -10  -8    1.71    0.46
   0 -11  -8    3.65    0.48
   0  11  -8    4.30    0.55
   1  11  -8   17.95    0.99
  -1  11  -8   17.13    0.93
   1 -11  -8   18.21    0.91
   1  11   8   18.43    0.90
   2  11  -8    0.65    0.34
  -2  11  -8    0.69    0.34
   2  11   8    1.00    0.29
   2 -11  -8    1.17    0.35
   3  11  -8    0.52    0.28
  -3  11  -8    0.09    0.31
   3 -11  -8    0.64    0.34
   3  11   8    0.67    0.27
   4  11  -8    7.63    0.66
   4 -11  -8    9.05    0.66
   4  11   8    7.80    0.59
  -4  11  -8    9.69    0.74
   5 -11   8    8.25    0.76
   5  11  -8    6.81    0.73
   5 -11  -8    6.77    0.70
   6 -11   8    1.26    0.41
   6  11  -8    2.34    0.50
   6 -11  -8    2.14    0.43
   7  11  -8    2.54    0.53
   7 -11   8    2.60    0.48
   7 -11  -8    3.01    0.56
   8  11  -8   -0.02    0.40
   8 -11   8    0.04    0.35
   8 -11  -8   -0.12    0.39
   9 -11   8    0.86    0.41
   9  11  -8   -0.22    0.39
   9 -11  -8    0.05    0.43
   0  12  -8   19.60    1.08
   0 -12  -8   19.36    1.01
   1  12  -8    1.37    0.42
  -1  12  -8    0.99    0.39
   1 -12  -8    0.96    0.36
   2  12  -8    4.32    0.59
  -2  12  -8    4.71    0.58
   2 -12  -8    3.75    0.53
   2  12   8    3.37    0.46
   3  12  -8    4.08    0.55
   3 -12  -8    4.25    0.53
   3  12   8    4.30    0.49
  -3  12  -8    4.47    0.60
   4  12  -8    0.62    0.39
   4 -12  -8    0.26    0.37
  -4  12  -8    0.67    0.32
   5 -12   8    3.62    0.58
   5  12  -8    3.28    0.59
   5 -12  -8    4.47    0.58
   6 -12   8    6.60    0.73
   6  12  -8    6.78    0.77
   6 -12  -8    8.20    0.82
   7  12  -8    0.09    0.38
   7 -12   8    0.26    0.40
   7 -12  -8   -0.01    0.42
   8  12  -8    0.50    0.44
   8 -12   8    1.55    0.46
   8 -12  -8    2.03    0.56
   9 -12   8   -0.56    0.34
   9  12  -8   -0.24    0.35
   9 -12  -8   -0.19    0.32
   0  13  -8    2.14    0.51
   0 -13  -8    1.54    0.43
  -1 -13  -8    1.85    0.43
   1  13  -8    1.80    0.43
   1 -13  -8    2.60    0.49
  -1  13  -8    2.38    0.51
   2  13  -8    9.16    0.88
   2 -13  -8    8.00    0.77
  -2  13  -8    7.61    0.80
   2  13   8    7.51    0.64
   3  13  -8    0.45    0.40
   3  13   8    0.78    0.33
   3 -13  -8    1.48    0.44
  -3  13  -8    0.48    0.41
   4  13  -8    3.84    0.62
   4 -13  -8    4.56    0.64
   5  13  -8    1.40    0.42
   5 -13   8    0.32    0.41
   5 -13  -8    0.85    0.46
   6 -13   8    8.48    0.87
   6  13  -8    6.60    0.76
   6 -13  -8    8.72    0.90
   7 -13   8   -0.19    0.37
   7  13  -8    0.47    0.46
   7 -13  -8   -0.09    0.31
   8 -13   8    1.67    0.52
   8  13  -8    1.68    0.54
   8 -13  -8    1.04    0.53
   0 -14  -8    3.15    0.54
   0  14  -8    2.63    0.57
   1  14  -8    2.54    0.57
  -1 -14  -8    2.50    0.49
  -1  14  -8    2.87    0.59
   1 -14  -8    2.41    0.51
   2  14  -8    0.90    0.47
   2  14   8    1.04    0.38
  -2  14  -8    0.62    0.36
   2 -14  -8    0.77    0.41
   3  14  -8    4.06    0.67
  -3  14  -8    2.54    0.59
   3 -14  -8    2.20    0.53
   3  14   8    2.01    0.50
   4 -14   8    3.76    0.63
   4  14  -8    3.60    0.60
   4 -14  -8    3.91    0.66
   5  14  -8    7.57    0.86
   5 -14   8    7.85    0.88
   5 -14  -8    7.54    0.88
   6 -14   8    1.15    0.41
   6  14  -8    0.93    0.42
   6 -14  -8    1.03    0.52
   7  14  -8    2.49    0.59
   7 -14   8    1.11    0.50
   7 -14  -8    2.33    0.63
   0  15  -8    2.00    0.57
   0 -15  -8    2.40    0.52
  -1 -15  -8    2.94    0.54
   1  15  -8    2.64    0.61
   1 -15  -8    3.22    0.53
  -1  15  -8    2.44    0.54
   2  15  -8    2.54    0.63
   2 -15  -8    3.01    0.59
  -2  15  -8    1.83    0.55
   3  15  -8    3.00    0.60
  -3  15  -8    3.12    0.58
   3 -15  -8    4.31    0.67
   4  15  -8    0.54    0.50
   4 -15   8    1.34    0.50
   4 -15  -8   -0.30    0.44
   5  15  -8    1.49    0.56
   5 -15   8    1.13    0.51
   5 -15  -8    1.53    0.55
   0  16  -8    2.04    0.62
   0 -16  -8    1.76    0.53
   1  16  -8   -0.14    0.46
  -1 -16  -8    1.84    0.50
  -1  16  -8    0.61    0.51
   1 -16  -8    0.15    0.39
   2  16  -8    0.90    0.43
  -2  16  -8    0.48    0.40
   2 -16  -8    0.32    0.45
   3  16  -8    0.59    0.53
   3 -16  -8    0.92    0.50
   0   0  -9   -0.09    0.09
   0   0   9   -0.30    0.12
   1   0  -9    7.46    0.35
  -1   0  -9    7.65    0.28
  -1   0   9    7.29    0.38
  -1   0  -9    7.59    0.39
  -2   0  -9    1.68    0.21
  -2   0   9    1.89    0.22
   2   0  -9    1.76    0.21
   3   0  -9   60.39    1.89
  -3   0   9   60.58    1.92
  -3   0  -9   59.46    1.91
  -4   0  -9  131.25    3.99
   4   0   9  134.93    3.78
   4   0  -9  134.23    3.99
  -4   0   9  136.37    4.00
   5   0   9   13.92    0.47
  -5   0   9   14.13    0.67
  -5   0  -9   14.44    0.68
   5   0  -9   13.55    0.66
  -6   0  -9   22.11    0.96
  -6   0   9   22.15    0.99
   6   0   9   23.69    0.75
   6   0  -9   21.76    0.93
  -7   0   9   -0.06    0.28
  -7   0  -9   -0.09    0.26
   7   0  -9   -0.01    0.17
  -8   0  -9   15.73    0.92
  -8   0   9   17.50    0.90
   8   0  -9   18.27    0.91
  -9   0   9   -0.41    0.31
  -9   0  -9    0.49    0.29
   9   0  -9    0.17    0.29
 -10   0   9   -0.04    0.37
  10   0  -9    0.20    0.31
 -10   0  -9    0.03    0.26
  11   0  -9    5.62    0.63
 -11   0   9    6.83    0.79
 -11   0  -9    8.32    0.83
 -12   0   9   19.98    1.25
 -12   0  -9   17.03    1.09
  12   0  -9   17.71    1.09
 -13   0  -9    0.05    0.38
 -13   0   9    0.10    0.57
  13   0  -9    0.99    0.47
   0   1  -9   37.43    1.16
   0  -1  -9   38.57    1.14
   0  -1   9   36.91    1.21
   0   1   9   35.97    1.20
  -1   1   9   68.08    2.08
  -1  -1  -9   70.20    1.95
   1   1  -9   67.95    2.06
  -1  -1  -9   67.16    2.08
  -1   1  -9   67.63    1.99
  -1  -1   9   66.45    2.07
  -1   1  -9   68.41    2.09
  -2   1   9    1.58    0.24
   2   1  -9    1.83    0.22
  -2  -1  -9    1.89    0.22
  -2  -1   9    1.34    0.22
   2  -1  -9    1.00    0.18
  -2   1  -9    1.35    0.13
  -2   1  -9    1.70    0.22
   3   1  -9   96.78    2.96
  -3   1   9  102.61    2.98
   3  -1   9   94.67    2.81
  -3  -1  -9   99.28    2.97
  -3   1  -9   96.80    2.98
  -3  -1   9  102.69    2.98
   3  -1  -9   97.71    2.95
   4   1  -9   51.78    1.72
  -4  -1  -9   53.31    1.72
   4  -1   9   53.32    1.54
  -4   1   9   51.61    1.73
   4  -1  -9   53.78    1.72
  -4  -1   9   52.20    1.72
  -4   1  -9   50.65    1.73
  -5   1   9   30.82    1.19
   5   1  -9   31.41    1.19
  -5  -1  -9   31.11    1.19
   5  -1   9   31.35    1.00
  -5   1  -9   32.32    1.23
   5  -1  -9   32.10    1.18
  -5  -1   9   33.39    1.21
   5   1   9   33.59    0.97
   6  -1   9   43.19    1.32
   6   1  -9   42.21    1.52
  -6  -1  -9   43.19    1.54
  -6   1   9   42.09    1.56
  -6   1  -9   41.07    1.54
   6   1   9   43.81    1.31
  -6  -1   9   42.25    1.54
   6  -1  -9   41.60    1.51
  -7  -1  -9    1.03    0.32
   7  -1   9    1.22    0.18
   7   1  -9    1.01    0.25
  -7   1   9    1.21    0.30
  -7   1  -9    1.17    0.29
  -7  -1   9    1.47    0.36
   7  -1  -9    0.95    0.30
  -8  -1  -9    5.06    0.52
  -8   1   9    4.85    0.57
   8   1  -9    4.93    0.53
  -8  -1   9    4.71    0.55
  -8   1  -9    5.54    0.60
   8  -1  -9    4.48    0.47
  -9   1   9    9.47    0.71
  -9  -1  -9   10.69    0.77
   9   1  -9   10.85    0.73
   9  -1  -9   10.41    0.67
  -9   1  -9   10.53    0.73
  -9  -1   9   10.17    0.78
 -10   1   9    1.47    0.49
 -10  -1  -9    0.54    0.39
  10   1  -9    1.09    0.32
 -10   1  -9    1.36    0.39
  10  -1  -9    0.64    0.35
 -10  -1   9    0.86    0.43
 -11  -1  -9    1.38    0.40
 -11   1   9    2.04    0.57
  11   1  -9    2.31    0.51
 -11   1  -9    2.33    0.56
  11  -1  -9    2.23    0.48
 -11  -1   9    1.91    0.56
 -12   1   9    6.29    0.77
  12   1  -9    5.81    0.67
 -12  -1  -9    6.30    0.79
  12  -1  -9    5.45    0.69
 -12   1  -9    7.64    0.83
 -12  -1   9    6.44    0.83
 -13  -1  -9    0.99    0.53
  13   1  -9   -0.25    0.35
 -13   1   9   -0.08    0.41
 -13  -1   9   -0.34    0.50
 -13   1  -9   -0.15    0.48
  13  -1  -9    1.55    0.50
   0   2  -9    4.74    0.28
   0  -2   9    4.57    0.30
   0  -2  -9    4.72    0.22
   0   2   9    4.03    0.29
  -1  -2  -9  337.01    9.50
  -1  -2  -9  347.08    9.43
   1   2  -9  338.44    9.55
  -1   2   9  332.14    9.51
  -1  -2   9  331.82    9.50
  -1   2  -9  331.62    9.52
  -1   2  -9  340.30    9.50
   2   2  -9  188.35    5.46
  -2  -2  -9  185.32    5.41
  -2   2   9  183.32    5.42
  -2  -2   9  191.13    5.42
  -2   2  -9  195.91    5.36
  -2   2  -9  186.20    5.44
   2  -2  -9  187.53    5.41
   3   2  -9   25.43    0.96
  -3  -2  -9   26.09    0.95
  -3   2   9   25.44    0.95
  -3   2  -9   26.48    0.84
  -3  -2   9   26.02    0.94
   3  -2  -9   26.11    0.93
  -3   2  -9   25.47    0.96
   4   2  -9   22.59    0.91
  -4  -2  -9   22.84    0.91
  -4   2   9   23.05    0.92
   4  -2   9   23.31    0.78
   4  -2  -9   25.65    0.92
  -4   2  -9   23.89    0.93
  -4  -2   9   23.90    0.91
   5  -2   9   10.36    0.42
  -5  -2  -9    9.97    0.54
  -5   2   9   10.13    0.60
   5   2  -9   10.39    0.57
  -5  -2   9   10.75    0.59
   5   2   9   10.34    0.36
   5  -2  -9   10.08    0.53
  -5   2  -9    9.46    0.56
   6   2  -9    2.73    0.34
  -6  -2  -9    2.99    0.35
  -6   2   9    3.00    0.42
   6  -2   9    3.00    0.23
   6  -2  -9    2.82    0.35
  -6  -2   9    2.77    0.38
  -6   2  -9    2.61    0.39
   7  -2   9    6.26    0.35
  -7   2   9    6.13    0.52
   7   2  -9    6.34    0.48
  -7  -2  -9    6.62    0.55
  -7  -2   9    5.68    0.55
  -7   2  -9    5.66    0.54
   7  -2  -9    6.40    0.48
  -8   2   9   20.93    1.03
   8   2  -9   21.77    1.02
  -8  -2  -9   19.97    0.98
   8  -2  -9   21.82    0.99
  -8   2  -9   22.51    1.09
  -8  -2   9   20.50    1.03
   9   2  -9   13.30    0.78
  -9  -2  -9   14.43    0.87
  -9   2   9   14.16    0.92
  -9  -2   9   14.18    0.88
   9  -2  -9   12.30    0.76
  -9   2  -9   14.03    0.86
  10   2  -9    6.67    0.65
 -10   2   9    7.49    0.75
 -10  -2  -9    8.39    0.76
 -10  -2   9    7.22    0.75
  10  -2  -9    8.49    0.75
 -10   2  -9    7.72    0.75
 -11  -2  -9    3.29    0.57
 -11   2   9    3.33    0.66
  11   2  -9    3.44    0.51
 -11   2  -9    4.39    0.68
 -11  -2   9    4.30    0.66
  11  -2  -9    3.77    0.58
 -12  -2  -9    1.88    0.51
  12   2  -9    1.11    0.44
 -12   2   9    0.65    0.54
 -12   2  -9    1.16    0.45
  12  -2  -9    1.09    0.46
 -12  -2   9    1.29    0.45
 -13   2   9   -0.17    0.52
  13   2  -9    0.50    0.33
 -13  -2  -9    0.06    0.33
 -13  -2   9   -0.43    0.47
  13  -2  -9    0.40    0.32
 -13   2  -9   -0.23    0.50
   0   3   9  373.75   10.51
   0  -3   9  364.90   10.51
   0   3  -9  363.25   10.57
   0  -3  -9  393.46   10.52
  -1  -3  -9    1.53    0.13
  -1   3   9    1.41    0.21
   1   3  -9    1.26    0.20
   1   3   9    1.08    0.18
  -1   3  -9    1.08    0.20
  -1  -3   9    1.16    0.17
   1  -3  -9    1.19    0.16
  -2  -3  -9  162.49    4.37
  -2  -3  -9  153.65    4.48
   2   3  -9  153.67    4.55
  -2   3   9  154.25    4.50
   2  -3  -9  154.51    4.49
  -2   3  -9  153.73    4.46
  -2  -3   9  156.23    4.49
  -2   3  -9  148.97    4.51
  -3   3   9   72.57    2.33
   3   3  -9   76.23    2.37
  -3  -3  -9   76.38    2.31
  -3   3  -9   74.90    2.35
  -3  -3   9   75.40    2.31
  -3   3  -9   76.34    2.25
   3  -3  -9   74.75    2.31
   4   3  -9   18.45    0.82
  -4   3   9   19.31    0.81
   4  -3   9   18.83    0.69
  -4  -3  -9   18.30    0.77
   4  -3  -9   19.15    0.79
  -4   3  -9   18.76    0.80
  -4  -3   9   20.00    0.79
   4   3   9   20.50    0.60
   5  -3   9   62.22    1.92
   5   3  -9   61.32    2.07
  -5   3   9   62.29    2.07
  -5  -3  -9   61.81    2.02
  -5   3  -9   62.85    2.09
  -5  -3   9   62.38    2.03
   5  -3  -9   59.73    2.03
   5   3   9   66.44    1.83
  -6  -3  -9   10.75    0.61
   6   3  -9    9.46    0.61
  -6   3   9    9.70    0.65
   6  -3   9   10.13    0.47
   6  -3  -9   10.72    0.61
  -6   3  -9   10.03    0.61
  -6  -3   9    9.50    0.61
  -7   3   9   27.14    1.18
   7  -3   9   30.10    1.00
   7   3  -9   23.26    1.10
  -7  -3  -9   27.36    1.16
  -7   3  -9   28.67    1.23
   7  -3  -9   27.91    1.14
  -7  -3   9   29.92    1.18
  -8  -3  -9   24.64    1.09
   8   3  -9   22.51    1.04
  -8   3   9   24.32    1.12
  -8   3  -9   23.93    1.15
   8  -3  -9   21.70    1.06
  -8  -3   9   23.72    1.09
   9   3  -9    3.47    0.49
  -9  -3  -9    3.18    0.48
  -9   3   9    2.47    0.52
  -9   3  -9    2.79    0.46
   9  -3  -9    2.76    0.46
  -9  -3   9    3.36    0.51
  10   3  -9    2.52    0.48
 -10   3   9    1.99    0.52
 -10  -3  -9    2.09    0.47
 -10  -3   9    1.84    0.48
 -10   3  -9    2.88    0.50
  10  -3  -9    2.43    0.43
 -11  -3  -9    4.45    0.62
  11   3  -9    4.67    0.63
 -11   3   9    3.88    0.69
 -11  -3   9    4.12    0.65
 -11   3  -9    4.22    0.69
  11  -3  -9    5.24    0.66
 -12   3   9    1.94    0.62
  12   3  -9    0.38    0.40
 -12  -3  -9    1.14    0.47
  12  -3  -9    1.35    0.49
 -12  -3   9    1.63    0.56
 -12   3  -9    1.45    0.49
  13   3  -9    0.63    0.47
 -13  -3  -9    1.21    0.43
 -13   3   9    0.26    0.58
  13  -3  -9    0.44    0.43
 -13  -3   9    1.44    0.58
 -13   3  -9    1.46    0.61
   0   4  -9  309.19    8.93
   0   4   9  317.22    8.84
   0  -4   9  309.45    8.84
   0  -4  -9  318.14    8.87
   1   4  -9    7.18    0.42
  -1  -4  -9    7.47    0.34
  -1   4   9    7.08    0.39
  -1  -4   9    7.69    0.39
  -1   4  -9    7.38    0.39
   1  -4  -9    7.04    0.37
  -1   4  -9    7.97    0.40
   2   4  -9   67.18    2.13
  -2  -4  -9   67.57    1.96
  -2   4   9   66.20    2.07
  -2  -4  -9   66.32    2.04
   2  -4  -9   65.99    2.07
  -2   4  -9   66.42    2.09
  -2   4  -9   67.65    2.06
  -2  -4   9   67.00    2.05
  -3   4   9    6.99    0.42
  -3  -4  -9    6.45    0.37
   3   4  -9    6.38    0.42
  -3   4  -9    6.11    0.42
   3   4   9    6.64    0.28
  -3  -4   9    6.81    0.39
   3  -4  -9    5.57    0.39
  -4   4   9    2.42    0.32
  -4  -4  -9    2.26    0.27
   4  -4   9    2.27    0.24
   4   4  -9    2.07    0.31
  -4   4  -9    2.72    0.33
   4  -4  -9    2.52    0.31
   4   4   9    2.60    0.17
  -4  -4   9    2.55    0.27
  -5  -4  -9    2.21    0.29
   5   4  -9    1.81    0.29
   5  -4   9    2.04    0.25
  -5   4   9    2.36    0.36
   5   4   9    2.52    0.19
  -5   4  -9    2.43    0.32
   5  -4  -9    2.25    0.32
  -5  -4   9    2.63    0.33
  -6  -4  -9   71.92    2.31
  -6   4   9   70.66    2.39
   6   4  -9   69.31    2.38
   6  -4   9   72.61    2.23
   6  -4  -9   73.87    2.37
  -6  -4   9   72.22    2.33
  -6   4  -9   70.27    2.39
  -7   4   9    8.02    0.67
   7  -4   9    9.80    0.52
  -7  -4  -9    9.83    0.62
   7   4  -9    9.09    0.64
  -7   4  -9    8.87    0.62
  -7  -4   9    9.78    0.64
   7  -4  -9   10.65    0.66
   8  -4   9   32.67    1.14
  -8  -4  -9   30.20    1.24
   8   4  -9   31.19    1.32
  -8   4   9   30.28    1.33
  -8   4  -9   29.00    1.31
  -8  -4   9   30.69    1.28
   8  -4  -9   30.75    1.27
  -9  -4  -9    5.29    0.57
  -9   4   9    5.37    0.67
   9   4  -9    5.83    0.61
  -9   4  -9    5.24    0.65
   9  -4  -9    5.46    0.59
  -9  -4   9    4.11    0.50
  10   4  -9   10.80    0.81
 -10   4   9   11.47    0.92
 -10  -4  -9   11.84    0.80
  10  -4  -9   11.70    0.77
 -10  -4   9   10.36    0.81
 -10   4  -9   11.74    0.92
 -11   4   9   -0.04    0.47
 -11  -4  -9    0.46    0.35
  11   4  -9    0.47    0.41
  11  -4  -9    0.97    0.43
 -11  -4   9    0.91    0.36
 -11   4  -9    1.63    0.54
  12   4  -9    2.41    0.55
 -12   4   9    2.59    0.70
 -12  -4  -9    2.19    0.51
  12  -4  -9    1.93    0.52
 -12  -4   9    2.22    0.57
 -12   4  -9    2.19    0.63
   0   5   9    5.03    0.32
   0   5  -9    5.72    0.35
   0  -5   9    5.48    0.32
   1   5  -9   20.54    0.86
  -1  -5  -9   21.72    0.77
   1   5   9   22.38    0.78
  -1   5  -9   22.37    0.85
  -1   5  -9   22.78    0.82
   1  -5  -9   22.79    0.82
  -1  -5   9   21.37    0.79
  -2   5   9   10.22    0.48
   2   5  -9    9.64    0.54
  -2  -5  -9    8.92    0.43
  -2  -5   9   10.08    0.47
  -2   5  -9    9.73    0.50
  -2   5  -9    9.54    0.50
   2  -5  -9    9.79    0.48
   3   5  -9   30.16    1.18
  -3  -5  -9   30.92    1.06
  -3   5   9   29.31    1.10
   3  -5  -9   30.89    1.12
  -3   5  -9   30.97    1.10
  -3   5  -9   31.81    1.14
  -3  -5   9   31.39    1.08
   3   5   9   32.47    1.00
  -4  -5  -9    7.13    0.43
  -4   5   9    6.92    0.44
   4   5  -9    6.80    0.47
   4  -5  -9    6.83    0.47
  -4   5  -9    6.48    0.47
   4   5   9    7.96    0.34
  -4  -5   9    7.53    0.43
  -5   5   9    2.49    0.33
  -5  -5  -9    2.29    0.30
   5   5  -9    2.43    0.37
   5  -5   9    2.22    0.28
   5  -5  -9    2.68    0.34
  -5  -5   9    2.08    0.30
  -5   5  -9    2.20    0.31
  -6  -5  -9    1.62    0.29
   6  -5   9    1.69    0.27
  -6   5   9    1.98    0.38
   6   5  -9    1.81    0.35
  -6   5  -9    1.29    0.34
  -6  -5   9    1.83    0.32
   6  -5  -9    1.71    0.30
  -7   5   9   27.49    1.16
   7   5  -9   24.60    1.14
  -7  -5  -9   25.16    1.06
   7  -5   9   26.84    1.01
   7  -5  -9   25.99    1.11
  -7   5  -9   26.18    1.17
  -7  -5   9   25.56    1.09
  -8   5   9   13.29    0.87
   8  -5   9   14.72    0.70
  -8  -5  -9   14.40    0.77
   8   5  -9   13.14    0.81
   8  -5  -9   14.13    0.78
  -8  -5   9   13.60    0.79
  -8   5  -9   13.97    0.87
  -9  -5  -9    7.46    0.62
  -9   5   9    9.59    0.79
   9   5  -9    8.67    0.70
  -9   5  -9    9.84    0.79
  -9  -5   9    8.14    0.61
   9  -5  -9    8.68    0.70
 -10  -5  -9    8.44    0.74
 -10   5   9   10.53    0.94
  10   5  -9    9.52    0.77
  10  -5  -9   11.17    0.81
 -10  -5   9    9.23    0.75
 -10   5  -9    8.02    0.84
 -11   5   9    1.93    0.58
 -11  -5  -9    3.36    0.54
  11   5  -9    4.33    0.62
  11  -5  -9    3.11    0.52
 -11   5  -9    4.04    0.70
 -11  -5   9    3.85    0.58
  12   5  -9    0.78    0.42
 -12   5   9    0.26    0.55
 -12  -5  -9    0.66    0.41
 -12  -5   9    0.20    0.43
 -12   5  -9    1.09    0.45
  12  -5  -9    1.13    0.47
   0  -6   9   14.29    0.57
   0  -6  -9   14.35    0.61
   0   6   9   14.86    0.57
   0   6  -9   13.92    0.67
  -1   6   9   17.05    0.66
  -1  -6  -9   16.95    0.67
   1   6  -9   16.03    0.74
   1   6   9   17.74    0.65
   1  -6  -9   16.53    0.70
  -1   6  -9   17.29    0.73
  -1  -6   9   17.19    0.65
   2   6  -9   35.72    1.34
   2  -6  -9   35.95    1.28
  -2   6  -9   37.67    1.31
   2   6   9   38.52    1.20
   2   6   9   35.71    1.20
  -2  -6   9   35.68    1.20
  -2   6  -9   37.23    1.27
  -3   6   9   73.30    2.34
   3   6  -9   79.47    2.49
  -3  -6  -9   74.22    2.27
  -3  -6   9   75.50    2.29
  -3   6  -9   75.63    2.37
   3  -6  -9   71.60    2.38
   3   6   9   77.68    2.27
  -3   6  -9   74.24    2.38
   4   6  -9   20.24    0.90
  -4  -6  -9   18.91    0.75
  -4   6   9   19.29    0.84
  -4   6  -9   19.62    0.83
  -4   6  -9   19.35    0.83
  -4  -6   9   18.86    0.77
   4  -6  -9   18.83    0.84
   4   6   9   20.90    0.73
   5   6  -9   36.60    1.43
  -5   6   9   36.70    1.37
   5  -6   9   35.36    1.30
  -5  -6  -9   37.50    1.27
  -5  -6   9   36.00    1.30
  -5   6  -9   36.49    1.37
   5  -6  -9   36.37    1.38
  -6   6   9    3.63    0.46
   6   6  -9    4.58    0.51
   6  -6   9    3.53    0.37
  -6  -6  -9    3.45    0.37
  -6   6  -9    3.33    0.44
   6  -6  -9    3.25    0.40
  -6  -6   9    3.29    0.38
  -7   6   9   12.64    0.73
   7  -6   9   12.68    0.65
  -7  -6  -9   11.67    0.65
   7   6  -9   10.95    0.70
  -7  -6   9   12.15    0.72
  -7   6  -9   11.17    0.75
   7  -6  -9   12.77    0.72
  -8   6   9   15.90    0.93
  -8  -6  -9   14.34    0.77
   8  -6   9   14.59    0.74
   8   6  -9   14.97    0.84
   8  -6  -9   14.69    0.82
  -8  -6   9   14.72    0.81
  -8   6  -9   16.63    0.93
  -9   6   9    7.46    0.75
   9   6  -9    6.44    0.67
  -9  -6  -9    6.70    0.57
   9  -6  -9    6.56    0.64
  -9  -6   9    6.93    0.64
  -9   6  -9    7.80    0.75
 -10   6   9    6.15    0.71
 -10  -6  -9    5.89    0.61
  10   6  -9    5.78    0.67
 -10  -6   9    4.33    0.60
 -10   6  -9    4.60    0.63
  10  -6  -9    5.13    0.59
 -11   6   9    1.05    0.44
  11   6  -9   -0.02    0.36
 -11   6  -9   -0.05    0.42
  11  -6  -9    0.69    0.43
 -11  -6   9    0.38    0.39
  12   6  -9    0.35    0.42
 -12   6   9    0.01    0.52
 -12   6  -9    0.10    0.47
  12  -6  -9   -0.01    0.42
   0   7   9    1.46    0.19
   0  -7  -9    1.43    0.23
   0  -7   9    1.46    0.19
   0   7  -9    1.22    0.26
  -1   7   9   18.71    0.70
   1   7  -9   18.99    0.84
   1  -7  -9   16.95    0.76
  -1  -7   9   18.21    0.69
  -1   7  -9   17.14    0.80
   1   7   9   18.93    0.67
  -1   7  -9   17.41    0.70
  -2   7   9   41.08    1.38
   2   7  -9   43.08    1.55
   2   7   9   43.40    1.33
  -2  -7   9   42.36    1.35
  -2   7  -9   41.81    1.49
   2  -7  -9   41.21    1.47
   2   7   9   39.62    1.37
   3   7  -9    8.96    0.60
  -3  -7   9    8.03    0.44
  -3   7  -9    8.78    0.55
   3   7   9    8.71    0.45
   3  -7  -9    8.78    0.55
  -3   7  -9    7.66    0.48
  -4  -7  -9   57.13    1.82
  -4   7   9   58.82    1.92
   4   7  -9   60.09    2.07
  -4   7  -9   56.23    1.93
   4   7   9   57.64    1.83
   4  -7  -9   56.33    1.98
  -4  -7   9   59.49    1.86
  -4   7  -9   59.88    1.97
   5   7  -9    1.32    0.31
  -5   7   9    1.50    0.31
  -5  -7  -9    1.72    0.24
   5  -7   9    1.20    0.26
  -5  -7   9    1.91    0.31
  -5   7  -9    2.32    0.36
   5  -7  -9    2.32    0.34
   6   7  -9   30.25    1.29
  -6  -7  -9   29.01    1.09
   6  -7   9   29.27    1.16
  -6   7   9   30.44    1.23
   6  -7  -9   28.42    1.23
  -6  -7   9   31.05    1.15
  -6   7  -9   27.85    1.18
  -7   7   9   19.09    0.94
   7   7  -9   18.61    0.98
   7  -7   9   17.65    0.87
   7  -7  -9   19.94    0.98
  -7   7  -9   17.84    0.95
  -7  -7   9   18.91    0.89
   8  -7   9   -0.17    0.21
  -8   7   9    0.25    0.32
   8   7  -9    0.63    0.28
   8  -7  -9    0.20    0.30
  -8  -7   9   -0.27    0.24
  -8   7  -9    0.17    0.24
   9   7  -9   -0.11    0.32
   9  -7   9    0.64    0.28
  -9   7   9   -0.03    0.27
   9  -7  -9    0.44    0.37
  -9   7  -9    0.38    0.36
  10   7  -9    4.58    0.64
 -10   7   9    5.44    0.70
  10  -7  -9    4.56    0.64
 -10   7  -9    3.54    0.61
 -11   7   9    0.81    0.49
  11   7  -9    1.31    0.46
 -11   7  -9    1.52    0.53
  11  -7  -9    1.51    0.50
  12   7  -9    2.65    0.56
  12  -7  -9    3.02    0.63
   0  -8   9    1.17    0.18
   0   8  -9    0.60    0.26
   0  -8  -9    1.14    0.25
   1   8  -9    7.81    0.53
  -1   8   9    8.84    0.42
  -1  -8  -9    9.36    0.51
  -1   8  -9    7.48    0.55
  -1  -8   9    8.71    0.42
  -1   8  -9    7.28    0.42
   1  -8  -9    7.71    0.51
  -2   8   9    5.14    0.35
   2   8  -9    4.27    0.49
   2   8   9    4.82    0.37
   2  -8  -9    4.99    0.46
  -2  -8   9    4.93    0.32
  -2   8  -9    5.09    0.37
  -2   8  -9    5.03    0.49
  -3   8   9   24.13    0.93
   3   8  -9   23.60    1.09
  -3  -8   9   24.89    0.89
  -3   8  -9   24.41    1.05
   3   8   9   23.59    0.92
   3  -8  -9   22.90    1.03
   4   8  -9   31.40    1.29
   4   8   9   30.58    1.10
  -4   8  -9   31.53    1.18
  -4   8  -9   30.31    1.23
   4  -8  -9   28.40    1.23
   5  -8   9    8.46    0.58
   5   8  -9    8.15    0.60
  -5   8   9    7.51    0.54
  -5   8  -9    8.78    0.57
   5  -8  -9    7.61    0.60
  -6   8   9   11.62    0.72
   6  -8   9   12.64    0.71
   6   8  -9   11.94    0.75
  -6   8  -9   11.70    0.71
   6  -8  -9   12.86    0.78
   7  -8   9    2.21    0.36
   7   8  -9    1.98    0.42
  -7   8   9    2.02    0.40
   7  -8  -9    2.01    0.43
  -7   8  -9    2.11    0.40
  -8   8   9    0.00    0.31
   8   8  -9    0.04    0.23
   8  -8   9   -0.05    0.23
  -8   8  -9   -0.06    0.29
   8  -8  -9    0.06    0.32
  -9   8   9    2.62    0.52
   9   8  -9    3.36    0.56
   9  -8   9    2.25    0.40
  -9   8  -9    3.09    0.55
   9  -8  -9    3.40    0.51
 -10   8   9    1.98    0.55
  10   8  -9    2.71    0.49
 -10   8  -9    3.05    0.59
  10  -8  -9    2.13    0.45
  11   8  -9    3.38    0.55
 -11   8   9    3.03    0.58
 -11   8  -9    3.29    0.66
  11  -8  -9    2.34    0.51
   0  -9  -9    6.90    0.51
   0   9  -9    6.32    0.50
   1   9  -9    1.03    0.28
  -1  -9  -9    0.76    0.27
   1  -9  -9    1.57    0.31
  -1   9  -9    1.32    0.34
   2   9  -9   35.77    1.42
  -2   9  -9   34.01    1.21
  -2   9  -9   33.25    1.33
   2   9   9   32.80    1.24
   2  -9  -9   33.73    1.31
   3   9  -9   11.35    0.71
   3  -9  -9   10.27    0.67
   3   9   9   10.49    0.57
  -3   9  -9   11.10    0.71
  -3   9  -9   11.55    0.59
   4   9  -9    4.10    0.54
  -4   9   9    3.77    0.40
   4  -9  -9    3.55    0.47
  -4   9  -9    4.86    0.53
   4   9   9    5.05    0.39
   5   9  -9    3.95    0.51
   5  -9   9    3.78    0.48
  -5   9  -9    4.53    0.46
   5  -9  -9    4.17    0.48
  -6   9   9    8.67    0.62
   6  -9   9    8.97    0.64
   6   9  -9    9.58    0.73
   6  -9  -9    8.53    0.69
  -6   9  -9    7.48    0.59
   7   9  -9    2.53    0.44
  -7   9   9    2.86    0.45
   7  -9   9    2.59    0.42
  -7   9  -9    2.30    0.42
   7  -9  -9    2.99    0.45
   8  -9   9    8.30    0.64
  -8   9   9    8.41    0.71
   8   9  -9    9.06    0.71
  -8   9  -9    8.45    0.70
   8  -9  -9    9.00    0.69
  -9   9   9    0.30    0.36
   9  -9   9    1.16    0.35
   9   9  -9    0.37    0.31
  -9   9  -9    0.59    0.38
   9  -9  -9    0.37    0.38
  10   9  -9    2.94    0.57
 -10   9   9    1.43    0.50
 -10   9  -9    1.27    0.39
  10  -9  -9    2.88    0.58
 -11   9   9    0.89    0.52
  11   9  -9    2.90    0.60
 -11   9  -9    2.83    0.60
  11  -9  -9    2.77    0.61
   0 -10  -9    5.40    0.51
   0  10  -9    4.69    0.55
   1  10  -9   36.79    1.52
  -1 -10  -9   41.52    1.49
   1 -10  -9   40.82    1.52
  -1  10  -9   36.78    1.54
   2  10  -9   23.18    1.11
  -2  10  -9   23.52    1.12
   2 -10  -9   25.24    1.08
   2  10   9   24.55    1.01
   3  10  -9    2.91    0.48
  -3  10  -9    3.26    0.48
   3 -10  -9    3.09    0.45
   3  10   9    3.53    0.38
   4  10  -9    6.27    0.67
   4 -10  -9    6.80    0.64
  -4  10  -9    6.43    0.61
   5 -10   9   -0.02    0.28
   5  10  -9    0.45    0.35
   5 -10  -9    0.45    0.26
   6  10  -9    5.22    0.65
   6 -10   9    5.15    0.58
   6 -10  -9    4.43    0.59
   7  10  -9    0.68    0.38
   7 -10   9    0.31    0.31
  -7  10  -9    1.20    0.35
   7 -10  -9    0.45    0.38
   8  10  -9    0.91    0.43
   8 -10   9    0.65    0.34
  -8  10  -9    0.48    0.31
   8 -10  -9    0.31    0.40
   9  10  -9    6.28    0.74
   9 -10   9    5.51    0.62
  -9  10  -9    6.04    0.68
   9 -10  -9    5.48    0.68
  10  10  -9    1.32    0.48
  10 -10  -9    0.98    0.39
 -10  10  -9    1.34    0.48
   0 -11  -9    9.47    0.66
   0  11  -9    8.50    0.70
   1  11  -9   14.14    0.86
  -1 -11  -9   13.33    0.78
   1 -11  -9   13.09    0.76
  -1  11  -9   12.76    0.79
   2  11  -9    4.68    0.56
   2  11   9    4.02    0.45
   2 -11  -9    4.14    0.52
  -2  11  -9    4.88    0.58
   3  11  -9    0.29    0.34
  -3  11  -9    0.64    0.35
   3  11   9   -0.08    0.26
   3 -11  -9    0.05    0.21
   4  11  -9    2.69    0.50
  -4  11  -9    1.50    0.41
   4 -11  -9    1.96    0.43
   5  11  -9    2.34    0.46
   5 -11   9    1.59    0.42
   5 -11  -9    1.14    0.34
   6  11  -9    7.01    0.73
   6 -11   9    7.90    0.76
   6 -11  -9    8.53    0.79
   7 -11   9   15.07    0.94
   7  11  -9   13.50    0.98
   7 -11  -9   13.78    0.98
   8  11  -9    2.34    0.49
   8 -11   9    2.34    0.50
   8 -11  -9    2.38    0.54
   9 -11   9    5.58    0.67
   9  11  -9    6.09    0.75
   9 -11  -9    6.18    0.78
   0 -12  -9    3.70    0.52
   0  12  -9    3.48    0.50
  -1 -12  -9    0.11    0.27
   1  12  -9   -0.29    0.20
  -1  12  -9    0.33    0.25
   1 -12  -9   -0.46    0.24
   2  12  -9    8.31    0.80
   2 -12  -9   10.29    0.75
   2  12   9    8.61    0.63
  -2  12  -9    9.14    0.76
   3  12  -9    8.37    0.82
   3 -12  -9    8.71    0.73
  -3  12  -9    9.04    0.76
   3  12   9    8.10    0.61
   4  12  -9    0.59    0.40
  -4  12  -9    0.30    0.36
   4 -12  -9    1.11    0.35
   5 -12   9    1.71    0.43
   5  12  -9    1.45    0.49
   5 -12  -9    0.59    0.40
   6  12  -9    3.32    0.61
   6 -12   9    2.60    0.53
   6 -12  -9    2.61    0.56
   7 -12   9    0.00    0.36
   7  12  -9   -0.23    0.39
   7 -12  -9   -0.45    0.40
   8 -12   9    6.32    0.73
   8  12  -9    6.63    0.81
   8 -12  -9    7.21    0.84
   9  12  -9    0.26    0.43
   9 -12   9    1.03    0.45
   9 -12  -9   -0.15    0.33
   0  13  -9    0.10    0.26
   0 -13  -9    0.01    0.30
  -1 -13  -9    1.19    0.37
   1  13  -9    1.53    0.49
  -1  13  -9    1.84    0.48
   1 -13  -9    0.91    0.40
   2  13  -9    4.51    0.66
   2 -13  -9    4.49    0.62
  -2  13  -9    4.18    0.63
   3  13  -9    0.76    0.44
   3 -13  -9    1.67    0.48
  -3  13  -9    0.88    0.36
   4  13  -9    2.49    0.57
   4 -13  -9    2.38    0.51
   5  13  -9    4.78    0.70
   5 -13   9    5.25    0.72
   5 -13  -9    3.97    0.60
   6  13  -9    1.42    0.54
   6 -13   9    1.32    0.41
   6 -13  -9    1.13    0.41
   7  13  -9    1.66    0.48
   7 -13   9    0.36    0.41
   7 -13  -9    0.67    0.49
   8  13  -9   -0.12    0.42
   8 -13   9    0.51    0.44
   8 -13  -9    0.58    0.50
   0  14  -9    0.09    0.29
   0 -14  -9    0.19    0.27
   1  14  -9    1.07    0.49
  -1 -14  -9    1.37    0.41
  -1  14  -9    1.58    0.51
   1 -14  -9    1.96    0.48
   2  14  -9    3.18    0.61
   2 -14  -9    1.38    0.47
  -2  14  -9    1.67    0.50
   3  14  -9    2.92    0.56
   3 -14  -9    2.98    0.58
  -3  14  -9    2.99    0.60
   4 -14   9    2.04    0.56
   4  14  -9    2.32    0.61
   4 -14  -9    1.56    0.53
   5  14  -9    8.14    0.91
   5 -14   9    7.83    0.88
   5 -14  -9    7.56    0.86
   6  14  -9    0.83    0.48
   6 -14   9    0.74    0.50
   6 -14  -9    0.39    0.46
   0  15  -9    0.09    0.33
   0 -15  -9    0.43    0.39
   1  15  -9    4.12    0.65
  -1 -15  -9    3.66    0.59
   1 -15  -9    3.87    0.63
  -1  15  -9    2.46    0.62
   2  15  -9    0.83    0.51
   2 -15  -9    0.28    0.41
  -2  15  -9    1.07    0.51
   3  15  -9    5.02    0.78
  -3  15  -9    4.28    0.73
   3 -15  -9    4.28    0.69
   4  15  -9    2.60    0.66
   4 -15   9    5.52    0.77
   4 -15  -9    3.34    0.60
   5  15  -9    0.48    0.50
   5 -15   9    0.53    0.47
   5 -15  -9    0.97    0.42
   0 -16  -9    0.31    0.40
   0  16  -9    0.07    0.35
   1  16  -9    0.23    0.49
   1 -16  -9    0.47    0.42
  -1  16  -9    0.29    0.46
   2  16  -9    6.62    0.90
  -2  16  -9    5.71    0.84
   2 -16  -9    6.60    0.77
   0   0 -10   23.68    0.77
   0   0  10   22.99    0.84
   1   0 -10  138.73    3.99
  -1   0 -10  136.22    3.87
  -1   0  10  136.06    3.99
  -1   0 -10  135.42    4.00
   2   0 -10    2.10    0.23
  -2   0 -10    2.18    0.11
  -2   0  10    2.10    0.27
  -2   0 -10    2.20    0.26
  -3   0 -10   20.82    0.84
  -3   0  10   21.00    0.83
   3   0 -10   21.11    0.81
  -4   0 -10   55.43    1.89
  -4   0  10   59.82    1.91
   4   0 -10   57.87    1.88
   4   0  10   58.96    1.65
   5   0  10   12.74    0.43
   5   0 -10   12.70    0.64
  -5   0  10   13.45    0.66
  -5   0 -10   11.92    0.63
  -6   0 -10   35.34    1.35
  -6   0  10   34.91    1.35
   6   0 -10   36.46    1.34
  -7   0 -10    0.03    0.21
   7   0 -10    0.11    0.18
  -7   0  10   -0.27    0.28
  -8   0 -10   -0.06    0.22
   8   0 -10    0.38    0.22
  -8   0  10    0.27    0.27
  -9   0  10    1.30    0.36
   9   0 -10    1.99    0.42
  -9   0 -10    2.44    0.48
  10   0 -10    0.50    0.35
 -10   0 -10    0.75    0.43
 -10   0  10    0.47    0.43
 -11   0 -10    3.74    0.63
 -11   0  10    2.89    0.61
  11   0 -10    3.43    0.58
 -12   0  10    2.21    0.63
 -12   0 -10    2.34    0.52
  12   0 -10    2.03    0.51
  13   0 -10    1.72    0.52
 -13   0 -10    1.78    0.62
 -13   0  10    1.76    0.67
   0  -1  10    0.21    0.12
   0  -1 -10    0.46    0.11
   0   1  10    0.47    0.16
   0   1 -10    0.41    0.11
   1   1 -10   81.67    2.46
  -1  -1 -10   85.08    2.36
  -1  -1 -10   83.70    2.50
  -1   1  10   82.89    2.50
  -1   1 -10   81.11    2.39
  -1  -1  10   81.66    2.49
  -1   1 -10   79.51    2.50
  -2  -1 -10   85.11    2.56
  -2   1  10   86.81    2.57
   2   1 -10   83.57    2.54
   2  -1 -10   80.11    2.51
  -2   1 -10   84.13    2.42
  -2   1 -10   84.53    2.57
  -2  -1  10   83.11    2.56
  -3  -1 -10   14.94    0.68
   3   1 -10   16.22    0.66
  -3   1  10   16.13    0.68
   3  -1  10   15.34    0.51
  -3  -1  10   15.87    0.67
   3  -1 -10   15.59    0.64
  -3   1 -10   15.60    0.70
  -4   1  10   19.68    0.82
  -4  -1 -10   18.80    0.79
   4  -1  10   18.36    0.60
   4   1 -10   18.77    0.79
  -4   1 -10   18.27    0.79
   4  -1 -10   19.09    0.78
  -4  -1  10   18.16    0.78
   5  -1  10   24.20    0.73
  -5  -1 -10   22.46    0.95
  -5   1  10   23.57    0.96
   5   1 -10   24.85    0.96
   5  -1 -10   20.79    0.90
  -5  -1  10   22.28    0.95
  -5   1 -10   20.10    0.94
  -6   1  10   25.54    1.08
   6  -1  10   25.10    0.81
   6   1 -10   25.74    1.04
  -6  -1 -10   23.85    1.02
   6  -1 -10   23.38    1.00
  -6   1 -10   23.78    1.06
  -6  -1  10   24.23    1.05
   7   1 -10    4.70    0.49
  -7   1  10    4.73    0.54
  -7  -1 -10    4.71    0.49
  -7  -1  10    4.14    0.50
   7  -1 -10    3.84    0.46
  -7   1 -10    4.52    0.52
   8   1 -10    6.63    0.62
  -8  -1 -10    7.06    0.64
  -8   1  10    6.00    0.63
  -8   1 -10    7.43    0.69
   8  -1 -10    7.08    0.54
  -8  -1  10    7.71    0.59
  -9  -1 -10   20.61    1.03
   9   1 -10   20.69    1.03
  -9   1  10   19.90    1.10
   9  -1 -10   20.08    1.03
  -9  -1  10   18.47    1.00
  -9   1 -10   18.88    1.03
  10   1 -10    0.23    0.34
 -10   1  10    0.71    0.37
 -10  -1 -10    0.19    0.38
 -10   1 -10    0.44    0.33
  10  -1 -10    1.40    0.41
 -10  -1  10    0.71    0.43
 -11   1  10    1.46    0.55
  11   1 -10    0.64    0.41
 -11  -1 -10    0.77    0.36
  11  -1 -10    1.04    0.43
 -11  -1  10    1.25    0.51
 -11   1 -10    1.42    0.51
 -12   1  10    1.41    0.59
 -12  -1 -10    1.07    0.51
  12   1 -10    1.81    0.52
 -12  -1  10    1.24    0.56
 -12   1 -10    0.58    0.51
  12  -1 -10    0.95    0.46
 -13   1  10    0.36    0.58
 -13  -1 -10    1.03    0.53
  13   1 -10    0.34    0.40
  13  -1 -10    1.27    0.48
 -13   1 -10    0.87    0.57
 -13  -1  10    0.47    0.58
   0  -2  10    1.80    0.23
   0  -2 -10    1.96    0.17
   0   2  10    1.88    0.21
  -1   2  10  176.51    5.20
   1   2 -10  181.48    5.22
  -1  -2 -10  185.60    5.21
  -1  -2 -10  187.83    5.09
  -1   2 -10  176.99    5.15
  -1   2 -10  178.04    5.22
  -1  -2  10  177.14    5.20
   2   2 -10    9.40    0.48
  -2  -2 -10    9.15    0.48
  -2   2  10    8.97    0.49
  -2  -2  10    9.52    0.47
  -2   2 -10   10.15    0.40
  -2   2 -10   10.66    0.50
   2  -2 -10    9.66    0.44
  -3   2  10   94.49    2.89
   3   2 -10   90.43    2.89
  -3  -2 -10   94.57    2.88
  -3   2 -10   99.98    2.76
  -3   2 -10   93.40    2.90
  -3  -2  10   95.00    2.88
   3  -2 -10   94.27    2.86
  -4   2  10   85.55    2.71
  -4  -2 -10   87.19    2.69
   4   2 -10   87.29    2.72
   4  -2  10   87.71    2.54
   4  -2 -10   86.99    2.69
  -4   2 -10   88.08    2.72
  -4  -2  10   86.85    2.69
  -5   2  10   67.66    2.20
   5  -2  10   67.33    1.98
   5   2 -10   64.15    2.16
  -5  -2 -10   64.67    2.14
   5  -2 -10   67.16    2.16
  -5   2 -10   65.43    2.18
  -5  -2  10   66.25    2.15
   6  -2  10   16.97    0.60
   6   2 -10   14.62    0.77
  -6   2  10   16.85    0.85
  -6  -2 -10   16.02    0.76
  -6   2 -10   14.77    0.81
   6  -2 -10   15.09    0.78
  -6  -2  10   15.78    0.80
   7   2 -10    8.62    0.60
  -7  -2 -10    7.74    0.55
  -7   2  10    7.43    0.57
  -7  -2  10    6.79    0.61
   7  -2 -10    7.48    0.53
  -7   2 -10    7.62    0.63
  -8  -2 -10    6.37    0.62
   8   2 -10    6.88    0.58
  -8   2  10    7.12    0.67
  -8   2 -10    6.25    0.63
   8  -2 -10    5.93    0.57
  -8  -2  10    5.61    0.56
  -9   2  10    2.04    0.42
  -9  -2 -10    2.33    0.45
   9   2 -10    3.30    0.49
  -9  -2  10    2.17    0.42
   9  -2 -10    2.18    0.39
  -9   2 -10    2.82    0.47
 -10  -2 -10    0.37    0.39
 -10   2  10    0.24    0.45
  10   2 -10    0.31    0.34
  10  -2 -10    0.34    0.25
 -10   2 -10    0.90    0.37
 -10  -2  10    0.93    0.37
 -11   2  10    5.07    0.70
  11   2 -10    4.68    0.65
 -11  -2 -10    5.67    0.71
  11  -2 -10    5.59    0.64
 -11  -2  10    6.21    0.77
 -11   2 -10    5.18    0.68
 -12   2  10    1.70    0.54
 -12  -2 -10    3.59    0.64
  12   2 -10    2.36    0.54
 -12   2 -10    3.36    0.68
  12  -2 -10    3.95    0.62
 -12  -2  10    2.54    0.62
  13   2 -10    0.42    0.43
 -13  -2 -10   -0.34    0.42
 -13   2  10   -0.10    0.43
 -13   2 -10    0.96    0.54
  13  -2 -10   -0.38    0.39
 -13  -2  10    1.18    0.48
   0   3 -10    0.13    0.12
   0  -3  10   -0.06    0.10
   0   3  10   -0.05    0.09
   0  -3 -10    0.12    0.10
  -1   3  10   79.80    2.45
   1   3 -10   81.79    2.47
  -1  -3 -10   83.44    2.34
  -1   3 -10   79.02    2.47
  -1  -3  10   78.67    2.44
   1   3  10   81.99    2.44
  -2  -3 -10   80.19    2.20
  -2   3  10   72.72    2.36
  -2  -3 -10   75.32    2.35
   2   3 -10   76.96    2.40
  -2   3 -10   75.60    2.38
  -2   3 -10   79.29    2.31
  -2  -3  10   77.82    2.36
   2  -3 -10   77.38    2.34
  -3  -3 -10   89.63    2.64
  -3   3  10   84.33    2.65
   3   3 -10   85.90    2.68
  -3   3 -10   82.65    2.66
  -3  -3  10   88.74    2.64
   3  -3 -10   83.94    2.62
  -3   3 -10   87.27    2.56
   4  -3  10    1.50    0.18
  -4  -3 -10    1.22    0.23
  -4   3  10    1.55    0.26
   4   3 -10    1.73    0.26
   4  -3 -10    1.08    0.23
  -4   3 -10    1.52    0.25
  -4  -3  10    1.47    0.25
  -5  -3 -10    1.39    0.24
   5   3 -10    1.14    0.24
   5  -3  10    1.09    0.17
  -5   3  10    0.91    0.24
  -5  -3  10    0.91    0.25
  -5   3 -10    0.88    0.28
   5  -3 -10    1.36    0.27
  -6   3  10   28.21    1.18
   6   3 -10   28.01    1.17
   6  -3  10   30.53    1.01
  -6  -3 -10   28.21    1.14
  -6   3 -10   28.80    1.21
  -6  -3  10   30.26    1.17
   6  -3 -10   28.50    1.14
   7  -3  10    0.52    0.18
  -7   3  10    0.10    0.30
  -7  -3 -10    0.69    0.30
   7   3 -10    0.35    0.26
   7  -3 -10    0.47    0.23
  -7  -3  10    0.41    0.30
  -7   3 -10    0.95    0.30
   8   3 -10    0.68    0.25
  -8   3  10    0.51    0.36
  -8  -3 -10    0.41    0.30
   8  -3 -10    1.07    0.34
  -8   3 -10    0.58    0.29
  -8  -3  10    1.04    0.37
  -9  -3 -10    0.08    0.24
   9   3 -10    0.39    0.32
  -9   3  10    0.00    0.27
   9  -3 -10    0.21    0.31
  -9   3 -10    0.32    0.36
  -9  -3  10   -0.05    0.33
 -10   3  10    2.52    0.58
 -10  -3 -10    2.40    0.47
  10   3 -10    3.05    0.48
 -10  -3  10    2.52    0.53
 -10   3 -10    2.87    0.51
  10  -3 -10    3.64    0.54
  11   3 -10    6.28    0.68
 -11  -3 -10    5.55    0.67
 -11   3  10    6.03    0.82
  11  -3 -10    6.27    0.68
 -11  -3  10    5.63    0.70
 -11   3 -10    7.87    0.88
  12   3 -10    1.16    0.46
 -12  -3 -10    0.81    0.37
 -12   3  10    0.95    0.59
 -12   3 -10    1.32    0.57
 -12  -3  10    1.31    0.54
  12  -3 -10    0.14    0.41
   0  -4 -10   41.50    1.28
   0  -4  10   39.34    1.32
   0   4 -10   40.81    1.35
   0   4  10   40.82    1.33
  -1   4  10   78.45    2.40
  -1  -4 -10   81.54    2.32
   1   4 -10   78.96    2.44
  -1  -4  10   78.36    2.39
  -1   4 -10   77.36    2.41
  -1   4 -10   78.23    2.40
   1  -4 -10   80.04    2.38
   1   4  10   78.08    2.38
  -2  -4 -10    9.79    0.46
   2   4 -10    9.28    0.52
  -2  -4 -10   10.27    0.37
  -2   4  10    9.61    0.47
   2  -4 -10    9.08    0.46
  -2   4 -10    9.78    0.46
  -2  -4  10    9.78    0.48
  -2   4 -10    8.87    0.50
  -3  -4 -10    2.30    0.15
   3   4 -10    1.91    0.27
  -3   4  10    2.29    0.29
  -3  -4 -10    2.24    0.26
  -3  -4  10    2.69    0.28
  -3   4 -10    1.48    0.19
   3  -4 -10    2.39    0.28
  -3   4 -10    2.47    0.31
   4  -4  10   16.96    0.68
  -4  -4 -10   17.94    0.74
   4   4 -10   17.92    0.82
  -4   4  10   18.12    0.80
   4  -4 -10   16.24    0.75
  -4  -4  10   18.28    0.74
   4   4  10   18.44    0.57
  -4   4 -10   16.87    0.79
   5  -4  10   75.27    2.33
   5   4 -10   74.08    2.49
  -5   4  10   75.70    2.47
  -5  -4 -10   75.68    2.40
  -5  -4  10   77.52    2.42
  -5   4 -10   75.55    2.48
   5  -4 -10   79.00    2.46
   6   4 -10    8.50    0.56
  -6   4  10    8.11    0.63
   6  -4  10    8.77    0.48
  -6  -4 -10    8.89    0.56
  -6   4 -10    8.30    0.57
  -6  -4  10   10.85    0.62
   6  -4 -10    9.71    0.57
  -7   4  10   30.01    1.33
   7   4 -10   32.77    1.31
  -7  -4 -10   32.13    1.26
   7  -4  10   32.64    1.13
  -7   4 -10   31.99    1.36
  -7  -4  10   31.49    1.28
   7  -4 -10   32.16    1.30
  -8  -4 -10    5.20    0.53
   8   4 -10    4.84    0.55
  -8   4  10    3.97    0.57
   8  -4 -10    4.48    0.49
  -8   4 -10    4.82    0.58
  -8  -4  10    4.61    0.50
   9   4 -10    2.56    0.47
  -9  -4 -10    4.47    0.54
  -9   4  10    2.84    0.49
   9  -4 -10    2.94    0.49
  -9  -4  10    3.45    0.51
  -9   4 -10    3.13    0.53
 -10   4  10    0.06    0.43
 -10  -4 -10   -0.11    0.21
  10   4 -10    0.26    0.28
  10  -4 -10   -0.02    0.24
 -10  -4  10    0.09    0.27
 -10   4 -10    0.49    0.44
 -11   4  10   -0.10    0.48
  11   4 -10   -0.42    0.34
 -11  -4 -10    0.69    0.32
  11  -4 -10    0.29    0.39
 -11  -4  10    0.29    0.42
 -11   4 -10    0.60    0.48
  12   4 -10    1.95    0.54
 -12  -4 -10    2.89    0.54
 -12   4  10    2.03    0.66
  12  -4 -10    2.04    0.52
 -12  -4  10    2.71    0.53
 -12   4 -10    2.66    0.68
   0   5 -10   15.07    0.65
   0  -5 -10   14.45    0.58
   0  -5  10   13.67    0.58
   1   5 -10   13.80    0.64
  -1   5  10   14.03    0.60
  -1  -5 -10   13.34    0.54
  -1   5 -10   15.08    0.63
  -1  -5  10   15.53    0.61
   1  -5 -10   13.78    0.59
   1   5  10   13.23    0.56
  -1   5 -10   15.49    0.64
  -2   5  10    5.03    0.35
   2   5 -10    4.65    0.36
  -2  -5 -10    4.80    0.28
   2  -5 -10    4.88    0.35
  -2   5 -10    5.47    0.38
  -2   5 -10    5.53    0.37
  -2  -5  10    4.56    0.33
  -3  -5 -10   26.34    0.96
   3   5 -10   28.48    1.10
  -3   5  10   26.13    1.00
   3   5  10   27.12    0.87
  -3   5 -10   26.51    0.98
   3  -5 -10   25.37    1.00
  -3  -5  10   26.63    0.97
  -3   5 -10   26.92    1.03
  -4   5  10   27.54    1.05
   4   5 -10   26.55    1.08
  -4  -5 -10   25.87    0.97
   4   5  10   26.88    0.85
   4  -5 -10   26.75    1.04
  -4   5 -10   24.64    1.03
  -4  -5  10   25.22    0.97
  -4   5 -10   26.38    1.05
  -5  -5 -10   23.25    0.90
   5  -5  10   23.19    0.89
  -5   5  10   22.78    0.99
   5   5 -10   22.01    1.01
  -5   5 -10   20.48    0.96
  -5  -5  10   23.00    0.92
   5  -5 -10   21.47    0.96
   6   5 -10    0.86    0.30
  -6  -5 -10    1.03    0.26
   6  -5  10    1.33    0.25
  -6   5  10    0.96    0.32
  -6   5 -10    0.86    0.27
   6  -5 -10    2.16    0.36
  -6  -5  10    1.01    0.29
  -7  -5 -10    9.92    0.63
   7  -5  10   10.72    0.59
   7   5 -10   10.79    0.71
  -7   5  10   11.02    0.75
  -7  -5  10   11.83    0.69
  -7   5 -10   11.06    0.70
   7  -5 -10   11.50    0.71
  -8   5  10    6.72    0.65
   8   5 -10    6.43    0.63
  -8  -5 -10    5.43    0.53
  -8   5 -10    5.78    0.61
  -8  -5  10    6.30    0.59
   8  -5 -10    6.14    0.52
   9   5 -10    1.33    0.40
  -9  -5 -10    2.08    0.40
  -9   5  10    2.04    0.50
   9  -5 -10    1.79    0.43
  -9   5 -10    1.81    0.48
  -9  -5  10    1.52    0.40
  10   5 -10    3.21    0.55
 -10   5  10    2.86    0.61
 -10  -5 -10    2.64    0.47
 -10  -5  10    3.03    0.47
  10  -5 -10    3.07    0.55
 -10   5 -10    2.93    0.53
  11   5 -10    1.89    0.48
 -11  -5 -10    2.15    0.48
 -11   5  10    2.44    0.62
 -11  -5  10    1.86    0.52
  11  -5 -10    3.09    0.52
 -11   5 -10    2.51    0.62
 -12   5  10    5.08    0.80
 -12  -5 -10    4.19    0.62
  12   5 -10    4.06    0.59
 -12   5 -10    5.94    0.83
 -12  -5  10    3.81    0.64
  12  -5 -10    4.47    0.69
   0   6 -10   48.35    1.65
   0   6  10   51.46    1.56
   0  -6  10   46.43    1.54
  -1  -6 -10   18.33    0.68
   1   6 -10   16.53    0.77
  -1   6  10   16.27    0.67
   1   6  10   17.15    0.66
  -1  -6  10   16.97    0.67
   1  -6 -10   17.22    0.71
  -1   6 -10   17.35    0.75
  -1   6 -10   17.23    0.70
  -2   6  10   24.94    0.95
  -2  -6 -10   29.97    0.94
   2   6 -10   26.11    1.05
  -2   6 -10   25.35    0.98
   2   6  10   28.19    0.94
   2  -6 -10   23.99    0.98
  -2   6 -10   26.17    1.02
  -2  -6  10   24.88    0.94
   3   6 -10   45.71    1.66
  -3   6  10   46.04    1.54
  -3  -6 -10   46.17    1.48
  -3   6 -10   45.88    1.57
   3   6  10   44.80    1.44
  -3   6 -10   46.11    1.57
   3  -6 -10   45.76    1.58
  -3  -6  10   46.17    1.51
   4   6 -10   52.39    1.81
  -4   6  10   51.72    1.72
  -4  -6 -10   48.63    1.62
   4   6  10   51.06    1.59
  -4  -6  10   48.25    1.64
   4  -6 -10   47.75    1.71
  -4   6 -10   51.88    1.70
  -4   6 -10   49.96    1.73
   5  -6  10   70.41    2.21
  -5  -6 -10   68.60    2.17
  -5   6  10   68.60    2.27
   5   6 -10   69.50    2.34
  -5   6 -10   67.26    2.27
   5  -6 -10   65.79    2.27
  -5  -6  10   68.91    2.19
   6   6 -10    6.24    0.60
  -6   6  10    7.03    0.58
   6  -6  10    6.56    0.48
  -6  -6 -10    6.27    0.46
  -6  -6  10    7.61    0.53
   6  -6 -10    7.12    0.56
  -6   6 -10    6.75    0.52
   7   6 -10    2.63    0.41
  -7   6  10    2.17    0.42
  -7  -6 -10    2.04    0.35
   7  -6  10    2.42    0.35
  -7   6 -10    2.69    0.44
   7  -6 -10    2.47    0.41
  -7  -6  10    2.45    0.39
  -8   6  10    3.32    0.53
  -8  -6 -10    3.09    0.41
   8  -6  10    4.13    0.42
   8   6 -10    3.53    0.47
  -8  -6  10    3.49    0.47
   8  -6 -10    3.64    0.50
  -8   6 -10    3.15    0.47
  -9   6  10    2.00    0.50
   9   6 -10    2.20    0.46
  -9  -6 -10    1.76    0.36
  -9   6 -10    2.93    0.54
   9  -6 -10    2.87    0.46
  -9  -6  10    2.34    0.44
  10   6 -10    6.68    0.74
 -10   6  10    7.50    0.82
 -10  -6 -10    6.18    0.62
 -10   6 -10    5.96    0.72
 -10  -6  10    5.90    0.66
  10  -6 -10    6.82    0.70
 -11   6  10    1.33    0.57
  11   6 -10    0.40    0.40
  11  -6 -10    0.71    0.45
 -11  -6  10    0.10    0.38
 -11   6 -10    0.65    0.39
  12   6 -10    0.54    0.43
 -12   6  10    1.08    0.60
  12  -6 -10    0.85    0.47
 -12   6 -10    0.90    0.57
   0  -7 -10   43.38    1.43
   0   7  10   43.78    1.36
   0   7 -10   39.09    1.47
   0  -7  10   40.99    1.36
  -1  -7 -10   21.63    0.82
  -1   7  10   20.07    0.77
   1   7 -10   19.25    0.88
   1   7  10   21.45    0.76
   1  -7 -10   21.06    0.84
  -1  -7  10   19.82    0.77
  -1   7 -10   20.12    0.80
  -1   7 -10   19.67    0.88
  -2   7  10   20.71    0.80
   2   7 -10   19.06    0.90
  -2   7 -10   20.78    0.90
   2   7  10   22.07    0.77
  -2   7 -10   19.59    0.81
   2  -7 -10   20.38    0.87
  -2  -7  10   19.95    0.78
   3   7 -10    7.65    0.54
  -3   7  10    8.08    0.49
  -3   7 -10    8.41    0.54
  -3   7 -10    7.93    0.51
  -3  -7  10    8.35    0.46
   3  -7 -10    8.18    0.54
   3   7  10    8.80    0.44
  -4   7  10   80.59    2.52
   4   7 -10   81.89    2.68
  -4  -7 -10   82.13    2.43
   4  -7 -10   74.32    2.56
  -4   7 -10   76.84    2.53
  -4  -7  10   78.13    2.44
  -4   7 -10   79.49    2.54
   5   7 -10    9.84    0.67
  -5  -7 -10    8.58    0.49
  -5   7  10    8.35    0.58
   5  -7  10    8.80    0.57
  -5   7 -10    9.75    0.61
  -5  -7  10    9.80    0.54
   5  -7 -10    8.83    0.61
  -6  -7 -10   10.62    0.59
   6   7 -10   10.96    0.74
  -6   7  10   10.54    0.69
   6  -7  10   10.51    0.62
  -6  -7  10   10.41    0.62
   6  -7 -10   10.58    0.65
  -6   7 -10   12.31    0.72
   7  -7  10    4.31    0.45
  -7   7  10    4.76    0.54
   7   7 -10    4.94    0.55
  -7  -7  10    4.16    0.45
  -7   7 -10    4.48    0.53
   7  -7 -10    4.75    0.51
   8  -7  10    3.22    0.40
   8   7 -10    3.48    0.48
  -8   7  10    3.18    0.52
  -8   7 -10    2.83    0.49
   8  -7 -10    2.98    0.45
  -8  -7  10    3.44    0.45
   9   7 -10    6.41    0.71
  -9   7  10    5.47    0.68
   9  -7 -10    6.14    0.64
  -9   7 -10    5.26    0.67
  10   7 -10    7.99    0.81
 -10   7  10    8.22    0.84
 -10   7 -10    7.73    0.79
  10  -7 -10    8.12    0.80
 -11   7  10    5.55    0.72
  11   7 -10    5.16    0.70
  11  -7 -10    5.79    0.74
 -11   7 -10    4.57    0.68
   0   8 -10    0.08    0.22
   0  -8 -10    0.03    0.18
   0  -8  10    0.19    0.15
   1   8 -10   33.11    1.35
  -1   8  10   36.25    1.18
   1  -8 -10   33.84    1.28
  -1   8 -10   32.62    1.32
  -1   8 -10   34.53    1.20
  -1  -8  10   37.20    1.18
  -2   8  10   33.52    1.11
   2   8 -10   28.14    1.23
   2  -8 -10   29.21    1.19
  -2   8 -10   29.94    1.23
  -2  -8  10   32.60    1.08
  -2   8 -10   31.47    1.13
  -3   8  10    8.73    0.54
   3   8 -10    9.16    0.62
  -3  -8  10    9.82    0.49
   3   8  10    8.92    0.48
   3  -8 -10    9.20    0.60
  -3   8 -10    8.57    0.60
   4   8 -10    5.56    0.58
   4  -8 -10    5.65    0.47
  -4   8 -10    6.67    0.49
  -4   8 -10    5.92    0.51
  -5   8  10    5.21    0.49
   5  -8  10    5.06    0.50
   5   8 -10    4.64    0.57
  -5   8 -10    5.55    0.51
   5  -8 -10    5.63    0.56
  -6   8  10    1.96    0.38
   6   8 -10    1.70    0.41
   6  -8  10    2.62    0.38
  -6   8 -10    1.88    0.36
   6  -8 -10    2.38    0.41
   7   8 -10    1.03    0.32
   7  -8  10    1.21    0.30
  -7   8  10    0.64    0.34
  -7   8 -10    0.89    0.28
   7  -8 -10    1.04    0.30
   8   8 -10    9.05    0.69
  -8   8  10    8.70    0.78
   8  -8  10    8.45    0.61
   8  -8 -10    9.20    0.69
  -8   8 -10    8.33    0.76
  -9   8  10   10.18    0.84
   9   8 -10   10.86    0.86
   9  -8 -10   10.07    0.76
  -9   8 -10   12.05    0.87
  10   8 -10   -0.08    0.27
 -10   8  10    0.73    0.37
 -10   8 -10   -0.02    0.41
  10  -8 -10    0.23    0.31
 -11   8  10    2.33    0.62
  11   8 -10    3.61    0.61
 -11   8 -10    1.97    0.56
  11  -8 -10    2.69    0.58
   0   9 -10    6.77    0.57
   0  -9 -10    8.05    0.54
   1  -9  10   16.99    0.71
   1   9 -10   16.47    0.87
  -1  -9 -10   17.28    0.79
   1  -9 -10   15.63    0.80
  -1   9 -10   15.38    0.85
   2   9 -10   22.56    1.10
  -2   9 -10   23.00    1.06
  -2   9 -10   23.79    0.93
   2  -9 -10   24.51    1.04
   3   9 -10    0.73    0.32
   3  -9 -10    1.07    0.31
  -3   9 -10    0.90    0.31
   3   9  10    0.92    0.25
  -3   9 -10    1.00    0.26
  -4   9  10    6.19    0.49
   4   9 -10    4.62    0.58
  -4   9 -10    7.06    0.52
   4  -9 -10    5.97    0.58
   5   9 -10    1.86    0.43
   5  -9  10    2.18    0.36
   5  -9 -10    1.75    0.40
  -5   9 -10    1.61    0.32
   6  -9  10    2.53    0.41
   6   9 -10    2.84    0.50
  -6   9  10    2.60    0.42
   6  -9 -10    2.11    0.39
  -6   9 -10    2.85    0.44
  -7   9  10   15.75    0.92
   7  -9  10   18.75    0.94
   7   9 -10   18.65    1.01
  -7   9 -10   17.41    0.94
   7  -9 -10   18.96    1.02
   8   9 -10    1.46    0.45
   8  -9  10    1.67    0.39
  -8   9  10    0.66    0.30
  -8   9 -10    1.07    0.38
   8  -9 -10    1.11    0.42
  -9   9  10    1.75    0.47
   9   9 -10    1.55    0.42
  -9   9 -10    2.63    0.52
   9  -9 -10    1.22    0.47
  10   9 -10    1.22    0.48
 -10   9  10    0.26    0.40
 -10   9 -10    0.88    0.44
  10  -9 -10    0.19    0.43
   0  10 -10    1.80    0.39
   0 -10 -10    2.10    0.37
  -1 -10 -10    1.77    0.36
   1  10 -10    1.78    0.39
  -1  10 -10    1.13    0.37
   1 -10 -10    1.40    0.34
   2  10 -10    8.73    0.69
  -2  10 -10    7.99    0.65
   2 -10 -10   10.12    0.66
   3  10 -10   18.11    0.97
  -3  10 -10   17.75    0.92
   3  10  10   17.14    0.80
   3 -10 -10   18.81    0.95
   4  10 -10   16.62    0.99
  -4  10 -10   16.85    0.93
   4 -10 -10   16.69    0.88
   5  10 -10    2.60    0.50
   5 -10  10    2.69    0.42
   5 -10 -10    2.80    0.47
   6 -10  10    2.19    0.43
   6  10 -10    2.44    0.49
   6 -10 -10    1.78    0.44
   7 -10  10    1.71    0.40
   7  10 -10    1.85    0.50
  -7  10 -10    1.62    0.39
   7 -10 -10    1.23    0.43
   8 -10  10    1.12    0.38
   8  10 -10    1.18    0.46
   8 -10 -10    0.23    0.31
  -8  10 -10    1.34    0.39
   9  10 -10    1.09    0.47
  -9  10 -10    1.47    0.46
   9 -10 -10    1.21    0.39
  10  10 -10    0.66    0.35
 -10  10 -10    0.70    0.43
  10 -10 -10    1.09    0.41
   0  11 -10    0.72    0.28
   0 -11 -10    0.25    0.29
  -1 -11 -10    5.22    0.53
   1  11 -10    4.90    0.56
  -1  11 -10    4.47    0.56
   1 -11 -10    4.80    0.53
   2  11 -10    2.95    0.49
  -2  11 -10    3.48    0.52
   2 -11 -10    3.61    0.51
   3  11 -10    5.49    0.62
  -3  11 -10    5.39    0.58
   3 -11 -10    5.34    0.58
   4  11 -10   22.82    1.20
   4 -11 -10   25.20    1.19
  -4  11 -10   24.00    1.16
   5  11 -10    1.43    0.46
   5 -11  10    1.73    0.43
   5 -11 -10    2.67    0.50
   6  11 -10    5.21    0.69
   6 -11  10    6.42    0.68
   6 -11 -10    5.85    0.69
   7  11 -10    1.67    0.44
   7 -11  10    1.52    0.42
   7 -11 -10    1.22    0.46
   8 -11  10    3.26    0.55
   8  11 -10    4.27    0.67
   8 -11 -10    3.34    0.62
   9 -11  10    3.50    0.61
   9  11 -10    4.77    0.69
   9 -11 -10    2.73    0.60
   0 -12 -10    0.25    0.28
   0  12 -10    0.08    0.32
   1  12 -10    0.16    0.35
  -1 -12 -10    1.06    0.34
  -1  12 -10    0.54    0.36
   1 -12 -10    0.67    0.27
  -2 -12 -10    9.72    0.69
   2  12 -10    9.65    0.74
  -2  12 -10    9.71    0.78
   2 -12 -10   10.01    0.75
   3  12 -10   12.99    0.88
  -3  12 -10   12.89    0.90
   3 -12 -10   13.44    0.89
   4  12 -10    0.98    0.44
   4 -12 -10    0.87    0.38
  -4  12 -10    0.99    0.41
   5  12 -10   12.09    0.88
   5 -12  10   11.08    0.87
   5 -12 -10   11.77    0.89
   6  12 -10    2.87    0.53
   6 -12  10    2.41    0.54
   6 -12 -10    2.59    0.55
   7  12 -10   -0.07    0.42
   7 -12  10    0.16    0.34
   7 -12 -10   -0.24    0.29
   8 -12  10    0.41    0.37
   8  12 -10    0.40    0.35
   8 -12 -10   -0.10    0.29
   0 -13 -10    0.47    0.34
   0  13 -10    0.42    0.39
  -1 -13 -10   11.48    0.79
   1  13 -10   10.75    0.82
   1 -13 -10   11.98    0.83
  -1  13 -10   10.39    0.85
   2  13 -10    2.38    0.54
  -2  13 -10    2.38    0.53
   2 -13 -10    2.22    0.48
   3  13 -10    6.53    0.78
   3 -13 -10    7.08    0.74
  -3  13 -10    6.46    0.75
   4  13 -10    0.41    0.43
  -4  13 -10    0.93    0.44
   4 -13 -10    0.43    0.40
   5  13 -10    1.70    0.47
   5 -13  10    1.67    0.50
   5 -13 -10    2.36    0.56
   6 -13  10    0.86    0.46
   6  13 -10    1.27    0.42
   6 -13 -10    0.84    0.50
   7  13 -10    0.71    0.50
   7 -13  10    0.24    0.39
   7 -13 -10    0.70    0.49
   0 -14 -10    0.02    0.32
   0  14 -10   -0.04    0.38
  -1 -14 -10    0.10    0.32
   1  14 -10   -0.02    0.40
   1 -14 -10    0.04    0.34
  -1  14 -10    0.42    0.32
   2  14 -10    4.25    0.71
   2 -14 -10    6.69    0.75
  -2  14 -10    5.48    0.73
   3  14 -10    0.23    0.45
   3 -14 -10    0.62    0.42
  -3  14 -10   -0.13    0.40
   4  14 -10    0.84    0.41
   4 -14 -10    1.40    0.50
   5 -14  10    5.50    0.76
   5  14 -10    6.56    0.80
   5 -14 -10    7.65    0.86
   6  14 -10    5.08    0.71
   6 -14  10    4.11    0.69
   6 -14 -10    4.79    0.68
   0 -15 -10    4.82    0.67
   0  15 -10    4.32    0.72
   1  15 -10    0.36    0.45
  -1  15 -10   -0.12    0.31
   1 -15 -10    0.19    0.38
   2  15 -10    4.91    0.78
   2 -15 -10    4.07    0.65
  -2  15 -10    4.83    0.74
   3  15 -10   -0.01    0.35
   3 -15 -10    0.65    0.45
  -3  15 -10    1.12    0.44
   4  15 -10    1.13    0.56
   4 -15  10    0.69    0.48
   4 -15 -10    0.92    0.49
   0  16 -10    0.14    0.48
   0 -16 -10    0.23    0.41
   1  16 -10    2.28    0.63
   1 -16 -10    1.09    0.45
  -1  16 -10    1.03    0.55
   0   0 -11    0.08    0.09
   0   0  11    0.07    0.11
  -1   0  11   39.83    1.38
  -1   0 -11   42.83    1.40
  -1   0 -11   42.44    1.25
   2   0 -11   67.68    2.14
  -2   0  11   71.41    2.20
  -2   0 -11   70.78    1.99
  -2   0 -11   69.44    2.19
   3   0 -11    0.08    0.12
  -3   0 -11    0.13    0.14
  -3   0  11    0.23    0.19
  -4   0  11   51.17    1.73
  -4   0 -11   51.33    1.74
   4   0 -11   51.50    1.70
   5   0 -11    4.72    0.43
  -5   0  11    4.16    0.44
  -5   0 -11    4.38    0.44
  -6   0 -11    2.64    0.39
   6   0 -11    2.07    0.32
  -6   0  11    1.49    0.31
  -7   0 -11   34.77    1.41
  -7   0  11   36.11    1.40
   7   0 -11   32.20    1.33
  -8   0 -11   14.39    0.89
  -8   0  11   16.09    0.92
   8   0 -11   15.70    0.86
  -9   0  11    2.50    0.52
  -9   0 -11    2.06    0.48
   9   0 -11    2.29    0.39
 -10   0  11   -0.13    0.40
 -10   0 -11    0.13    0.39
  10   0 -11    0.48    0.34
 -11   0 -11    0.81    0.48
 -11   0  11   -0.26    0.32
  11   0 -11    0.30    0.30
 -12   0  11   14.68    1.13
 -12   0 -11   12.31    1.05
  12   0 -11   14.78    1.02
  13   0 -11    3.17    0.63
   0   1 -11    1.26    0.15
   0  -1  11    0.57    0.15
   0  -1 -11    0.64    0.12
   0   1  11    0.38    0.14
  -1   1  11    6.95    0.39
  -1  -1 -11    7.70    0.42
   1   1 -11    6.44    0.36
  -1  -1 -11    7.06    0.27
  -1   1 -11    6.99    0.42
  -1   1 -11    6.98    0.30
  -1  -1  11    6.87    0.39
  -2   1  11   80.54    2.49
   2   1 -11   76.10    2.45
  -2  -1 -11   77.42    2.48
  -2   1 -11   81.18    2.49
  -2  -1  11   81.84    2.49
   2  -1 -11   81.55    2.43
  -2   1 -11   84.04    2.33
   3   1 -11   39.11    1.37
  -3   1  11   42.13    1.42
  -3  -1 -11   42.35    1.41
  -3   1 -11   40.09    1.42
  -3  -1  11   39.97    1.40
   3  -1 -11   40.28    1.36
  -4  -1 -11   33.17    1.20
   4   1 -11   32.75    1.20
  -4   1  11   34.61    1.22
   4  -1  11   34.34    0.99
  -4   1 -11   31.06    1.20
  -4  -1  11   30.92    1.19
   4  -1 -11   31.38    1.17
   5   1 -11   35.11    1.30
   5  -1  11   36.64    1.07
  -5   1  11   35.55    1.34
  -5  -1 -11   35.60    1.32
  -5  -1  11   31.83    1.27
  -5   1 -11   33.90    1.30
   5  -1 -11   35.97    1.30
  -6  -1 -11   16.10    0.83
   6   1 -11   15.97    0.78
  -6   1  11   17.76    0.84
  -6   1 -11   17.87    0.84
   6  -1 -11   16.82    0.81
  -6  -1  11   15.83    0.83
  -7  -1 -11    4.53    0.51
   7   1 -11    4.05    0.47
  -7   1  11    3.98    0.51
  -7   1 -11    3.81    0.51
   7  -1 -11    3.64    0.45
  -7  -1  11    3.04    0.47
  -8   1  11   11.49    0.75
   8   1 -11   11.08    0.70
  -8  -1 -11   11.91    0.74
  -8   1 -11   13.03    0.78
  -8  -1  11   11.96    0.80
   8  -1 -11   12.05    0.76
  -9   1  11    5.73    0.62
   9   1 -11    4.70    0.53
  -9  -1 -11    5.42    0.63
  -9  -1  11    4.95    0.62
   9  -1 -11    5.03    0.58
  -9   1 -11    4.87    0.64
 -10   1  11    1.38    0.48
  10   1 -11    1.28    0.36
 -10  -1 -11    0.92    0.36
  10  -1 -11    0.89    0.33
 -10   1 -11    0.61    0.34
 -10  -1  11    1.54    0.50
 -11   1  11   -0.12    0.33
 -11  -1 -11    0.62    0.37
  11   1 -11    0.74    0.42
 -11  -1  11    1.05    0.42
  11  -1 -11    1.02    0.45
 -11   1 -11    1.51    0.45
 -12  -1 -11    0.70    0.48
 -12   1  11    0.79    0.57
  12   1 -11   -0.45    0.35
 -12  -1  11    0.37    0.52
  12  -1 -11    0.38    0.43
 -12   1 -11    0.44    0.53
   0  -2  11    0.74    0.18
   0  -2 -11    0.47    0.11
   0   2  11    0.88    0.18
  -1  -2 -11   39.24    1.11
   1   2 -11   37.98    1.24
  -1   2  11   36.57    1.26
  -1   2 -11   36.86    1.18
  -1   2 -11   36.49    1.28
  -1  -2  11   35.14    1.25
  -2   2  11    4.08    0.34
  -2  -2 -11    4.47    0.34
   2   2 -11    4.12    0.32
  -2  -2  11    3.98    0.30
  -2   2 -11    4.08    0.37
   2  -2 -11    3.39    0.28
  -2   2 -11    4.46    0.24
  -3  -2 -11   20.59    0.86
  -3   2  11   21.75    0.90
   3   2 -11   22.08    0.87
  -3   2 -11   22.84    0.74
  -3  -2  11   23.72    0.88
  -3   2 -11   21.53    0.88
   3  -2 -11   22.74    0.85
  -4  -2 -11   69.23    2.22
   4   2 -11   67.20    2.23
  -4   2  11   73.48    2.26
   4  -2  11   70.43    2.05
  -4  -2  11   68.92    2.22
   4  -2 -11   67.47    2.20
  -4   2 -11   68.27    2.25
  -5   2  11    5.47    0.51
   5  -2  11    6.60    0.31
   5   2 -11    6.59    0.45
  -5  -2 -11    6.54    0.45
   5  -2 -11    6.12    0.43
  -5   2 -11    6.68    0.47
  -5  -2  11    6.93    0.50
   6   2 -11   11.91    0.64
  -6   2  11   10.57    0.66
  -6  -2 -11   11.43    0.67
   6  -2 -11   10.59    0.65
  -6  -2  11   11.07    0.68
  -6   2 -11   12.22    0.68
  -7  -2 -11    4.26    0.50
   7   2 -11    4.79    0.48
  -7   2  11    4.97    0.55
  -7  -2  11    3.42    0.47
  -7   2 -11    4.55    0.51
   7  -2 -11    4.75    0.50
  -8  -2 -11    8.30    0.61
  -8   2  11    7.44    0.71
   8   2 -11    7.18    0.62
   8  -2 -11    7.65    0.57
  -8  -2  11    8.77    0.69
  -8   2 -11    8.25    0.64
  -9   2  11    6.83    0.72
   9   2 -11    5.97    0.62
  -9  -2 -11    5.76    0.60
  -9   2 -11    4.78    0.64
   9  -2 -11    5.57    0.60
  -9  -2  11    4.04    0.59
  10   2 -11    1.49    0.43
 -10   2  11    1.43    0.52
 -10  -2 -11    2.15    0.50
  10  -2 -11    1.33    0.43
 -10  -2  11    1.13    0.47
 -10   2 -11    1.92    0.45
 -11  -2 -11    2.05    0.53
 -11   2  11    1.78    0.60
  11   2 -11    1.88    0.49
 -11   2 -11    1.67    0.44
  11  -2 -11    1.79    0.48
 -11  -2  11    1.66    0.45
  12   2 -11    0.26    0.31
 -12   2  11   -0.88    0.45
 -12  -2 -11    0.31    0.35
  12  -2 -11    0.87    0.45
 -12  -2  11    0.40    0.51
 -12   2 -11    0.62    0.54
   0  -3 -11    4.83    0.26
   0  -3  11    4.73    0.31
   0   3  11    4.94    0.33
   0   3 -11    4.42    0.30
  -1  -3 -11   12.92    0.45
   1   3 -11   13.10    0.57
  -1   3  11   13.58    0.59
  -1   3 -11   12.28    0.59
   1   3  11   12.70    0.57
  -1  -3  11   12.96    0.56
   2   3 -11   33.88    1.22
  -2  -3 -11   34.91    1.01
  -2   3  11   33.45    1.21
  -2  -3 -11   33.87    1.19
   2  -3 -11   34.30    1.16
  -2   3 -11   33.55    1.22
  -2   3 -11   36.86    1.14
  -2  -3  11   34.74    1.20
   3   3 -11    8.67    0.51
  -3   3  11    8.77    0.51
  -3  -3 -11    8.63    0.48
  -3  -3  11    8.81    0.49
  -3   3 -11    8.71    0.50
   3  -3 -11    9.26    0.48
  -3   3 -11    9.27    0.41
   4   3 -11   17.52    0.80
  -4  -3 -11   18.32    0.77
  -4   3  11   18.01    0.80
   4  -3  11   17.21    0.64
   4  -3 -11   17.02    0.75
  -4   3 -11   16.47    0.79
  -4  -3  11   16.79    0.76
  -5   3  11   11.90    0.66
  -5  -3 -11   11.18    0.63
   5  -3  11   13.46    0.53
   5   3 -11   13.86    0.71
  -5   3 -11   11.95    0.66
   5  -3 -11   13.28    0.67
  -5  -3  11   13.28    0.67
   6   3 -11    8.67    0.56
   6  -3  11    8.89    0.43
  -6   3  11    8.24    0.58
  -6  -3 -11    9.21    0.59
  -6  -3  11    8.81    0.61
   6  -3 -11    9.44    0.60
  -6   3 -11    8.51    0.62
   7   3 -11    8.63    0.63
  -7  -3 -11    8.12    0.60
  -7   3  11    9.00    0.69
   7  -3 -11    8.34    0.62
  -7   3 -11    8.24    0.66
  -7  -3  11    7.54    0.56
  -8   3  11    4.73    0.60
   8   3 -11    2.93    0.47
  -8  -3 -11    3.66    0.48
  -8   3 -11    4.77    0.55
  -8  -3  11    3.66    0.51
   8  -3 -11    4.59    0.53
  -9  -3 -11    3.17    0.49
   9   3 -11    3.56    0.53
  -9   3  11    3.12    0.57
  -9   3 -11    3.55    0.59
   9  -3 -11    3.65    0.52
  -9  -3  11    3.15    0.47
  10   3 -11    4.28    0.60
 -10  -3 -11    3.55    0.56
 -10   3  11    4.03    0.59
  10  -3 -11    3.46    0.55
 -10   3 -11    4.72    0.63
 -10  -3  11    4.17    0.61
  11   3 -11    5.96    0.72
 -11   3  11    5.32    0.78
 -11  -3 -11    5.51    0.69
 -11  -3  11    5.41    0.73
 -11   3 -11    6.02    0.80
  11  -3 -11    5.07    0.67
 -12  -3 -11    0.60    0.38
 -12   3  11    0.36    0.57
  12   3 -11    0.20    0.42
 -12  -3  11    0.42    0.38
 -12   3 -11    0.10    0.51
  12  -3 -11    0.54    0.35
   0   4 -11   35.23    1.25
   0   4  11   39.17    1.26
   0  -4  11   36.35    1.24
   0  -4 -11   37.72    1.19
  -1   4  11   40.49    1.38
  -1  -4 -11   41.43    1.28
   1   4 -11   40.98    1.41
  -1   4 -11   44.17    1.39
  -1  -4  11   40.73    1.38
   1   4  11   43.43    1.38
  -1   4 -11   41.55    1.41
  -2   4  11    4.14    0.34
  -2  -4 -11    3.94    0.20
   2   4 -11    3.56    0.36
  -2  -4 -11    3.51    0.29
   2  -4 -11    3.50    0.29
  -2  -4  11    3.51    0.28
  -2   4 -11    3.08    0.34
   3   4 -11   46.67    1.68
  -3  -4 -11   49.80    1.62
  -3  -4 -11   52.03    1.44
  -3   4  11   49.14    1.65
   3  -4 -11   47.54    1.62
  -3   4 -11   49.39    1.68
  -3  -4  11   48.70    1.62
  -3   4 -11   49.85    1.58
   4   4 -11    2.70    0.33
  -4  -4 -11    2.44    0.28
  -4   4  11    1.92    0.32
  -4   4 -11    2.11    0.33
   4  -4 -11    2.25    0.30
  -4  -4  11    2.23    0.30
  -5  -4 -11    4.44    0.36
   5  -4  11    4.15    0.30
  -5   4  11    4.13    0.44
   5   4 -11    4.73    0.47
   5  -4 -11    4.38    0.41
  -5  -4  11    4.18    0.42
  -5   4 -11    4.38    0.47
  -6  -4 -11   42.76    1.58
  -6   4  11   46.45    1.69
   6   4 -11   43.87    1.64
   6  -4  11   46.67    1.47
  -6  -4  11   44.77    1.60
   6  -4 -11   43.62    1.61
  -6   4 -11   42.65    1.65
  -7  -4 -11   11.41    0.68
   7   4 -11   11.78    0.69
  -7   4  11   10.10    0.69
  -7  -4  11   10.45    0.69
  -7   4 -11   10.70    0.74
   7  -4 -11   10.54    0.69
  -8   4  11    2.51    0.44
   8   4 -11    3.08    0.48
  -8  -4 -11    3.84    0.48
   8  -4 -11    3.27    0.44
  -8   4 -11    3.05    0.51
  -8  -4  11    2.70    0.45
  -9   4  11    0.30    0.41
  -9  -4 -11    0.20    0.29
   9   4 -11    0.43    0.33
  -9   4 -11    0.49    0.38
   9  -4 -11    0.86    0.37
  -9  -4  11    0.18    0.34
 -10   4  11    2.86    0.54
  10   4 -11    3.17    0.55
 -10  -4 -11    2.20    0.47
 -10   4 -11    3.11    0.63
  10  -4 -11    3.42    0.55
 -10  -4  11    2.23    0.50
 -11  -4 -11    0.85    0.33
  11   4 -11    0.35    0.42
 -11   4  11    0.44    0.40
  11  -4 -11   -0.11    0.36
 -11  -4  11    0.43    0.45
 -11   4 -11    1.02    0.55
 -12   4  11    0.78    0.44
 -12  -4 -11    0.79    0.44
  12   4 -11    0.58    0.45
  12  -4 -11    1.42    0.50
 -12   4 -11    0.79    0.45
 -12  -4  11    1.23    0.52
   0   5  11   87.58    2.66
   0  -5 -11   89.94    2.64
   0   5 -11   89.24    2.73
   0  -5  11   85.96    2.66
  -1   5  11    1.23    0.22
   1   5 -11    1.06    0.24
  -1  -5 -11    1.57    0.19
  -1   5 -11    1.59    0.24
  -1   5 -11    1.59    0.25
   1  -5 -11    1.52    0.22
  -1  -5  11    1.56    0.22
  -2  -5 -11  124.56    3.46
  -2   5  11  115.12    3.56
   2   5 -11  116.75    3.64
  -2  -5  11  119.70    3.55
   2  -5 -11  114.16    3.56
  -2   5 -11  122.39    3.60
  -2   5 -11  123.21    3.59
   3   5 -11   20.34    0.93
  -3  -5 -11   20.89    0.83
  -3   5  11   21.52    0.88
  -3  -5 -11   24.02    0.73
  -3   5 -11   20.17    0.88
  -3   5 -11   23.05    0.85
   3  -5 -11   21.42    0.87
  -3  -5  11   21.32    0.83
  -4  -5 -11    1.08    0.23
   4   5 -11    0.79    0.23
  -4   5  11    1.17    0.27
  -4  -5  11    0.91    0.23
   4  -5 -11    0.95    0.27
  -4   5 -11    0.91    0.23
  -5  -5 -11   11.32    0.60
   5   5 -11   11.68    0.71
   5  -5  11   12.03    0.59
  -5   5  11   11.65    0.65
  -5   5 -11   11.78    0.69
   5  -5 -11   12.66    0.68
  -5  -5  11   12.86    0.65
  -6   5  11   27.17    1.17
   6  -5  11   27.32    1.00
   6   5 -11   27.28    1.18
  -6  -5 -11   25.45    1.06
  -6   5 -11   25.10    1.14
  -6  -5  11   25.76    1.08
   6  -5 -11   27.20    1.11
  -7  -5 -11   12.12    0.71
  -7   5  11   14.28    0.85
   7   5 -11   13.00    0.80
   7  -5  11   13.12    0.65
  -7  -5  11   13.79    0.76
   7  -5 -11   14.27    0.80
  -7   5 -11   11.98    0.80
   8   5 -11    8.50    0.63
  -8   5  11    8.87    0.75
  -8  -5 -11    9.95    0.64
  -8   5 -11    8.31    0.76
   8  -5 -11    8.79    0.63
  -8  -5  11    8.17    0.65
   9   5 -11    0.37    0.34
  -9   5  11    0.51    0.41
  -9  -5 -11    0.32    0.28
  -9   5 -11    0.57    0.41
  -9  -5  11    0.35    0.35
   9  -5 -11    0.42    0.35
 -10   5  11    3.15    0.55
 -10  -5 -11    1.57    0.41
  10   5 -11    1.81    0.41
  10  -5 -11    2.01    0.49
 -10  -5  11    2.31    0.51
 -10   5 -11    1.72    0.45
  11   5 -11    7.72    0.81
 -11   5  11    7.22    0.83
 -11  -5 -11    7.76    0.75
 -11  -5  11    7.32    0.78
 -11   5 -11    6.56    0.80
  11  -5 -11    7.01    0.78
  12   5 -11   -0.25    0.27
 -12   5  11    0.13    0.38
 -12  -5 -11    0.00    0.37
 -12  -5  11    0.18    0.43
 -12   5 -11    0.31    0.49
  12  -5 -11   -0.21    0.40
   0   6  11   -0.02    0.14
   0   6 -11    0.04    0.16
   0  -6  11   -0.21    0.11
  -1  -6 -11   46.28    1.44
   1   6 -11   41.58    1.53
   1  -6 -11   44.34    1.48
  -1  -6  11   44.40    1.46
  -1   6 -11   44.15    1.53
   1   6  11   45.83    1.45
  -1   6 -11   43.89    1.48
  -2   6  11   11.80    0.57
  -2  -6 -11   12.47    0.51
   2   6 -11   11.24    0.65
   2   6  11   13.54    0.57
  -2  -6  11   11.56    0.56
  -2   6 -11   11.67    0.60
   2  -6 -11   11.27    0.58
  -2   6 -11   11.31    0.60
   3   6 -11    0.62    0.26
  -3   6  11    0.19    0.18
  -3  -6 -11    0.29    0.15
  -3  -6 -11    0.44    0.14
  -3  -6  11    0.38    0.18
   3  -6 -11    0.41    0.18
  -3   6 -11    0.26    0.20
  -3   6 -11    0.57    0.23
  -4   6  11    3.28    0.38
   4   6 -11    3.25    0.44
  -4  -6 -11    3.64    0.35
   4  -6 -11    3.44    0.38
  -4   6 -11    3.47    0.36
  -4   6 -11    3.99    0.43
  -4  -6  11    3.67    0.36
   5   6 -11    2.49    0.37
  -5   6  11    2.79    0.40
   5  -6  11    1.88    0.31
  -5  -6 -11    2.32    0.31
  -5  -6  11    1.64    0.30
  -5   6 -11    2.00    0.36
   5  -6 -11    2.36    0.33
   6  -6  11    8.37    0.52
   6   6 -11    8.17    0.65
  -6  -6 -11    8.28    0.53
  -6   6  11    9.44    0.66
  -6   6 -11    9.91    0.66
   6  -6 -11    9.23    0.59
  -6  -6  11    8.38    0.58
  -7  -6 -11    1.76    0.32
  -7   6  11    2.32    0.43
   7   6 -11    1.95    0.36
   7  -6  11    1.95    0.31
   7  -6 -11    2.29    0.42
  -7  -6  11    1.21    0.34
  -7   6 -11    2.30    0.43
  -8   6  11    1.49    0.37
   8   6 -11    1.40    0.34
  -8  -6 -11    1.85    0.35
   8  -6 -11    2.16    0.44
  -8   6 -11    1.81    0.39
  -8  -6  11    1.46    0.38
  -9   6  11    5.42    0.69
   9   6 -11    5.42    0.64
  -9  -6 -11    4.60    0.52
   9  -6 -11    5.98    0.63
  -9  -6  11    4.70    0.56
  -9   6 -11    6.45    0.73
 -10   6  11    0.82    0.50
 -10  -6 -11    0.13    0.30
  10   6 -11    1.18    0.46
  10  -6 -11    1.12    0.45
 -10   6 -11    1.57    0.43
 -10  -6  11    0.90    0.42
 -11   6  11    0.45    0.52
  11   6 -11    0.44    0.42
  11  -6 -11    1.36    0.52
 -11   6 -11    1.04    0.43
 -11  -6  11    0.85    0.47
 -12   6  11    5.90    0.88
  12   6 -11    8.80    0.90
  12  -6 -11    6.54    0.80
 -12   6 -11    7.91    0.93
   0   7  11    0.54    0.18
   0   7 -11    0.67    0.23
   0  -7  11    0.35    0.15
   1   7 -11   24.99    1.07
  -1  -7 -11   26.72    0.97
  -1   7  11   25.01    0.94
   1   7  11   27.85    0.95
  -1   7 -11   24.36    1.04
   1  -7 -11   26.89    1.01
  -1  -7  11   26.34    0.96
   2   7 -11   29.41    1.21
  -2  -7 -11   32.40    1.06
   2  -7 -11   26.61    1.10
   2   7  11   31.39    1.05
  -2   7 -11   28.62    1.10
  -2   7 -11   29.21    1.15
  -2  -7  11   28.30    1.05
   3   7 -11    5.65    0.56
  -3   7  11    4.93    0.41
  -3  -7  11    5.23    0.41
   3   7  11    6.80    0.42
  -3   7 -11    5.26    0.45
   3  -7 -11    5.30    0.41
  -3   7 -11    5.58    0.45
   4   7 -11   23.20    1.09
  -4   7  11   26.43    1.04
  -4  -7 -11   25.89    0.94
   4  -7 -11   23.33    1.04
  -4   7 -11   25.14    1.03
  -4  -7  11   24.51    0.95
  -4   7 -11   25.76    1.05
  -5  -7 -11    0.36    0.20
  -5   7  11    0.39    0.27
   5  -7  11    0.34    0.23
   5   7 -11    0.40    0.29
  -5  -7  11    0.70    0.24
  -5   7 -11    0.85    0.29
   5  -7 -11    0.68    0.28
   6  -7  11    3.16    0.39
  -6  -7 -11    2.93    0.34
   6   7 -11    3.36    0.49
  -6   7  11    3.37    0.42
   6  -7 -11    3.64    0.47
  -6   7 -11    3.28    0.45
  -6  -7  11    3.06    0.39
   7  -7  11    0.70    0.28
   7   7 -11    1.58    0.36
  -7   7  11    1.27    0.38
   7  -7 -11    1.08    0.36
  -7   7 -11    1.27    0.36
  -7  -7  11    1.49    0.34
   8   7 -11    1.26    0.35
  -8   7  11    2.17    0.42
  -8   7 -11    2.10    0.45
   8  -7 -11    1.51    0.35
  -8  -7  11    1.22    0.35
   9   7 -11    2.02    0.49
  -9   7  11    1.99    0.44
   9  -7 -11    2.56    0.45
  -9   7 -11    2.87    0.53
 -10   7  11    2.77    0.54
  10   7 -11    3.00    0.58
 -10   7 -11    2.93    0.53
  10  -7 -11    3.92    0.62
 -11   7  11    2.76    0.64
  11   7 -11    3.15    0.60
 -11   7 -11    2.75    0.61
  11  -7 -11    3.17    0.62
   0  -8  11    0.52    0.19
   0   8 -11    0.49    0.25
   0  -8 -11    0.44    0.21
   0   8  11    0.35    0.17
  -1   8  11   20.46    0.77
   1   8 -11   16.66    0.87
  -1  -8  11   20.48    0.78
   1  -8 -11   20.46    0.86
  -1   8 -11   18.17    0.87
   2   8 -11   12.63    0.76
  -2  -8 -11   15.16    0.66
  -2   8  11   12.67    0.62
  -2   8 -11   12.37    0.71
   2  -8 -11   11.88    0.67
  -2  -8  11   13.10    0.60
   3   8 -11   55.91    2.07
  -3   8 -11   57.70    2.00
  -3  -8  11   59.91    1.85
   3  -8 -11   54.92    1.97
  -3   8 -11   60.14    1.94
   4   8 -11    4.23    0.53
  -4   8  11    3.73    0.41
   4  -8 -11    3.91    0.43
  -4   8 -11    4.15    0.45
  -4   8 -11    4.14    0.44
   5  -8  11   27.50    1.13
   5   8 -11   24.49    1.21
  -5   8  11   23.79    1.07
   5  -8 -11   26.73    1.16
  -5   8 -11   28.12    1.14
   6   8 -11    9.24    0.73
   6  -8  11    9.72    0.62
  -6   8  11    8.59    0.64
  -6   8 -11    9.07    0.65
   6  -8 -11    8.32    0.66
  -7   8  11    0.68    0.28
   7   8 -11    0.67    0.29
   7  -8  11    0.41    0.26
   7  -8 -11    0.45    0.32
  -7   8 -11    0.62    0.33
   8  -8  11    3.48    0.44
  -8   8  11    4.06    0.55
   8   8 -11    3.21    0.55
   8  -8 -11    3.31    0.54
  -8   8 -11    2.83    0.51
  -9   8  11   10.71    0.80
   9   8 -11   11.40    0.88
   9  -8 -11   11.26    0.80
  -9   8 -11   11.81    0.87
 -10   8  11    0.68    0.47
  10   8 -11    0.14    0.39
 -10   8 -11    0.67    0.43
  10  -8 -11    0.82    0.36
  11   8 -11    2.33    0.55
 -11   8  11    1.97    0.60
 -11   8 -11    1.80    0.48
  11  -8 -11    2.36    0.59
   0   9 -11   88.25    2.99
   0  -9 -11   95.91    2.93
   1  -9  11    5.06    0.39
   1   9 -11    5.86    0.49
  -1   9 -11    5.67    0.48
   1  -9 -11    5.90    0.49
   2   9 -11   23.65    1.12
  -2  -9 -11   26.01    0.99
  -2   9 -11   23.07    0.94
  -2   9 -11   23.44    1.07
   2  -9 -11   22.48    1.03
   3   9 -11   14.20    0.82
  -3   9 -11   13.81    0.80
   3  -9 -11   14.54    0.78
   4   9 -11   36.64    1.57
  -4   9 -11   38.54    1.52
  -4   9 -11   42.30    1.47
   4  -9 -11   37.06    1.50
   5   9 -11    4.91    0.62
   5  -9  11    4.53    0.52
  -5   9  11    5.20    0.51
   5  -9 -11    4.91    0.55
  -5   9 -11    5.12    0.51
   6   9 -11    3.98    0.56
   6  -9  11    3.63    0.46
  -6   9  11    2.87    0.44
  -6   9 -11    3.38    0.46
   6  -9 -11    4.21    0.54
   7  -9  11    1.70    0.36
  -7   9  11    1.50    0.40
   7   9 -11    2.51    0.51
  -7   9 -11    1.72    0.40
   7  -9 -11    3.03    0.52
   8  -9  11    2.90    0.44
   8   9 -11    3.05    0.57
  -8   9  11    1.95    0.47
  -8   9 -11    3.09    0.52
   8  -9 -11    2.36    0.51
   9   9 -11    2.18    0.55
  -9   9  11    1.77    0.47
   9  -9 -11    2.25    0.54
  -9   9 -11    1.51    0.46
 -10   9  11    1.17    0.50
  10   9 -11    1.75    0.51
 -10   9 -11    1.17    0.46
  10  -9 -11    2.63    0.57
   0 -10 -11   18.19    0.86
   0  10 -11   15.43    0.89
  -1 -10 -11    1.58    0.31
   1  10 -11    1.36    0.32
   1 -10 -11    1.26    0.31
  -1  10 -11    1.25    0.30
   2  10 -11    0.96    0.30
  -2  10 -11    0.70    0.27
   2 -10 -11    0.62    0.30
   3  10 -11   10.66    0.78
  -3  10 -11    9.67    0.71
   3 -10 -11    9.36    0.68
   4  10 -11    0.91    0.38
   4 -10 -11    1.00    0.34
  -4  10 -11    1.00    0.34
   5  10 -11    0.96    0.34
   5 -10  11    0.75    0.34
   5 -10 -11    0.90    0.30
   6 -10  11    9.53    0.72
   6  10 -11   10.77    0.78
   6 -10 -11    9.34    0.70
   7  10 -11    1.61    0.48
   7 -10  11    2.08    0.42
  -7  10 -11    2.03    0.41
   7 -10 -11    2.51    0.45
   8  10 -11    1.43    0.43
   8 -10  11    1.81    0.42
  -8  10 -11    1.37    0.40
   8 -10 -11    2.38    0.47
   9  10 -11    3.35    0.63
   9 -10 -11    3.99    0.60
  -9  10 -11    3.14    0.55
  10  10 -11    3.87    0.65
 -10  10 -11    2.88    0.56
  10 -10 -11    3.30    0.57
   0  11 -11   -0.13    0.29
   0 -11 -11    0.44    0.32
   1  11 -11    4.14    0.56
  -1 -11 -11    3.62    0.45
  -1  11 -11    4.08    0.51
   1 -11 -11    4.54    0.52
   2  11 -11    3.99    0.55
  -2  11 -11    3.53    0.51
   2 -11 -11    5.08    0.55
   3  11 -11    0.02    0.31
  -3  11 -11    0.33    0.33
   3 -11 -11   -0.01    0.29
   4  11 -11    2.10    0.49
   4 -11 -11    1.38    0.40
  -4  11 -11    1.14    0.39
   5 -11  11    2.14    0.46
   5  11 -11    2.17    0.52
   5 -11 -11    1.83    0.40
   6 -11  11    4.13    0.56
   6  11 -11    4.67    0.67
   6 -11 -11    2.65    0.47
   7  11 -11    0.69    0.45
   7 -11  11    0.85    0.37
   7 -11 -11    1.81    0.44
   8 -11  11    0.56    0.35
   8  11 -11    0.15    0.41
   8 -11 -11    0.05    0.31
   9  11 -11    3.18    0.62
   9 -11 -11    3.04    0.57
   0  12 -11   -0.06    0.32
   0 -12 -11    0.59    0.34
   1  12 -11   15.30    0.93
  -1 -12 -11   17.29    0.93
   1 -12 -11   15.07    0.89
  -1  12 -11   14.88    0.90
   2  12 -11    1.10    0.44
   2 -12 -11    1.59    0.40
  -2  12 -11    2.00    0.46
   3  12 -11   13.27    0.97
  -3  12 -11   14.19    0.94
   3 -12 -11   14.00    0.90
   4  12 -11    0.83    0.43
   4 -12 -11   -0.39    0.32
  -4  12 -11    0.03    0.35
   5 -12  11    6.43    0.74
   5  12 -11    6.56    0.80
   5 -12 -11    7.00    0.74
   6 -12  11    0.80    0.38
   6  12 -11   -0.24    0.41
   6 -12 -11    0.51    0.41
   7 -12  11    7.88    0.79
   7  12 -11    7.77    0.83
   7 -12 -11    8.62    0.87
   8  12 -11    0.12    0.43
   8 -12  11    0.58    0.41
   8 -12 -11   -0.23    0.30
   0  13 -11    3.45    0.55
   0 -13 -11    4.87    0.58
   1  13 -11    2.62    0.56
  -1 -13 -11    1.84    0.43
   1 -13 -11    2.95    0.50
  -1  13 -11    1.75    0.47
   2  13 -11    8.79    0.89
   2 -13 -11    9.39    0.72
  -2  13 -11   10.78    0.86
   3  13 -11    3.25    0.61
   3 -13 -11    1.92    0.47
  -3  13 -11    1.49    0.41
   4  13 -11    2.24    0.56
  -4  13 -11    1.64    0.49
   4 -13 -11    1.73    0.49
   5  13 -11    0.31    0.45
   5 -13  11    0.53    0.41
   5 -13 -11    0.19    0.41
   6 -13  11    6.31    0.75
   6  13 -11    5.37    0.78
   6 -13 -11    5.95    0.78
   7  13 -11    3.05    0.66
   7 -13  11    1.81    0.50
   7 -13 -11    3.40    0.65
   0  14 -11    0.48    0.34
   0 -14 -11    0.77    0.40
   1  14 -11    6.78    0.83
  -1  14 -11    6.14    0.76
   1 -14 -11    6.94    0.75
   2  14 -11   -0.35    0.39
  -2  14 -11    0.60    0.44
   2 -14 -11   -0.05    0.37
   3  14 -11    0.35    0.37
   3 -14 -11    0.90    0.44
  -3  14 -11    1.19    0.48
   4  14 -11    0.85    0.52
   4 -14 -11    0.20    0.41
   5 -14  11   14.38    1.06
   5  14 -11   12.63    1.08
   5 -14 -11   12.05    1.02
   6  14 -11    3.52    0.68
   6 -14  11    3.69    0.65
   6 -14 -11    3.64    0.69
   0  15 -11    5.49    0.78
   0 -15 -11    4.96    0.69
   1  15 -11    0.26    0.34
  -1  15 -11    0.11    0.47
   1 -15 -11    0.93    0.44
   2  15 -11    1.59    0.58
  -2  15 -11    0.80    0.42
   2 -15 -11    1.95    0.53
   3  15 -11    0.22    0.51
   3 -15 -11    0.90    0.44
  -3  15 -11    0.04    0.45
   4  15 -11    1.00    0.57
   4 -15  11    2.49    0.60
   4 -15 -11    0.81    0.50
   0   0  12    0.32    0.14
   0   0 -12    0.50    0.12
  -1   0 -12   64.62    2.05
  -1   0  12   64.21    2.04
  -1   0 -12   64.40    1.89
  -2   0 -12  228.32    6.08
  -2   0 -12  213.33    6.28
  -2   0  12  214.44    6.27
   2   0 -12  209.84    6.23
   3   0 -12   22.37    0.87
  -3   0  12   23.30    0.91
  -3   0 -12   21.48    0.91
  -4   0 -12   58.08    1.96
   4   0 -12   59.34    1.94
  -4   0  12   59.13    1.97
   5   0 -12   75.30    2.45
  -5   0 -12   77.39    2.49
  -5   0  12   75.88    2.47
   6   0 -12    6.18    0.47
  -6   0 -12    6.81    0.56
  -6   0  12    6.86    0.58
   7   0 -12   12.62    0.75
  -7   0 -12   12.18    0.73
  -7   0  12   13.31    0.81
  -8   0  12    2.36    0.41
   8   0 -12    1.45    0.37
  -8   0 -12    1.81    0.44
  -9   0  12    1.32    0.45
  -9   0 -12    1.43    0.45
   9   0 -12    0.83    0.36
  10   0 -12    4.02    0.54
 -10   0  12    3.96    0.58
 -10   0 -12    3.73    0.62
 -11   0 -12    0.32    0.45
 -11   0  12   -0.10    0.48
  11   0 -12   -0.25    0.36
 -12   0 -12    4.29    0.74
  12   0 -12    5.14    0.71
 -12   0  12    3.41    0.62
   0   1  12    8.21    0.45
   0  -1  12    7.53    0.42
   0   1 -12    8.43    0.38
   0  -1 -12    8.20    0.35
  -1  -1 -12   24.73    0.96
  -1  -1 -12   26.98    0.80
   1   1 -12   25.04    0.90
  -1   1  12   26.26    0.97
  -1  -1  12   25.35    0.95
  -1   1 -12   25.94    0.84
  -1   1 -12   24.59    0.96
  -2   1  12    4.76    0.39
   2   1 -12    4.67    0.34
  -2  -1 -12    5.17    0.38
  -2   1 -12    4.66    0.23
  -2  -1  12    5.36    0.36
   2  -1 -12    4.65    0.32
  -2   1 -12    4.84    0.39
  -3   1  12   14.89    0.70
   3   1 -12   15.32    0.65
  -3  -1 -12   14.97    0.68
   3  -1 -12   14.01    0.64
  -3   1 -12   14.57    0.68
  -3  -1  12   14.71    0.69
  -4   1  12   90.68    2.78
  -4  -1 -12   87.16    2.75
   4  -1  12   88.29    2.50
   4   1 -12   86.40    2.74
   4  -1 -12   85.63    2.72
  -4  -1  12   88.38    2.75
  -4   1 -12   85.59    2.76
  -5   1  12   34.28    1.31
  -5  -1 -12   34.45    1.31
   5   1 -12   34.59    1.30
  -5   1 -12   33.87    1.32
  -5  -1  12   35.39    1.32
   5  -1 -12   33.81    1.28
   6   1 -12   15.18    0.76
  -6  -1 -12   15.58    0.78
  -6   1  12   17.39    0.87
   6  -1 -12   14.54    0.78
  -6   1 -12   16.13    0.84
  -6  -1  12   15.27    0.79
  -7  -1 -12    4.02    0.46
   7   1 -12    2.91    0.40
  -7   1  12    3.00    0.43
  -7   1 -12    3.35    0.47
  -7  -1  12    3.34    0.48
   7  -1 -12    2.71    0.42
   8   1 -12    9.71    0.71
  -8   1  12   10.20    0.78
  -8  -1 -12   10.30    0.75
  -8  -1  12   11.37    0.73
  -8   1 -12   10.63    0.78
   8  -1 -12   11.16    0.74
   9   1 -12    0.40    0.34
  -9   1  12    0.12    0.39
  -9  -1 -12    0.03    0.36
  -9   1 -12    0.55    0.38
  -9  -1  12    0.42    0.29
   9  -1 -12    0.78    0.29
 -10  -1 -12    1.21    0.39
 -10   1  12    0.67    0.48
  10   1 -12    0.54    0.41
  10  -1 -12    0.46    0.37
 -10   1 -12    0.81    0.37
 -10  -1  12    0.53    0.35
 -11   1  12    2.50    0.54
 -11  -1 -12    2.75    0.58
  11   1 -12    2.15    0.52
  11  -1 -12    2.30    0.54
 -11   1 -12    3.17    0.56
 -11  -1  12    1.97    0.59
 -12   1  12    0.36    0.57
  12   1 -12    0.80    0.44
 -12  -1 -12    0.63    0.39
 -12  -1  12    0.40    0.40
  12  -1 -12    0.45    0.45
 -12   1 -12    0.26    0.51
   0  -2  12    5.89    0.37
   0   2  12    6.49    0.41
   0  -2 -12    7.15    0.31
  -1   2  12  120.93    3.66
   1   2 -12  122.69    3.64
  -1  -2 -12  124.48    3.51
   1   2  12  121.33    3.65
  -1  -2  12  125.52    3.67
  -1   2 -12  124.12    3.68
   1  -2 -12  119.08    3.58
  -1   2 -12  126.81    3.58
   2   2 -12    3.78    0.32
  -2   2  12    3.71    0.35
  -2  -2 -12    3.52    0.35
   2  -2 -12    4.52    0.30
  -2   2 -12    4.31    0.25
  -2  -2  12    4.41    0.36
  -2   2 -12    4.37    0.39
   3   2 -12   32.42    1.17
  -3   2  12   32.48    1.18
  -3  -2 -12   32.82    1.17
  -3  -2  12   30.64    1.14
  -3   2 -12   31.18    1.19
  -3   2 -12   31.93    1.00
   3  -2 -12   29.57    1.11
   4   2 -12   40.67    1.48
  -4  -2 -12   42.63    1.49
   4  -2  12   43.38    1.31
  -4   2  12   43.33    1.51
   4  -2 -12   42.41    1.47
  -4  -2  12   43.14    1.50
  -4   2 -12   42.15    1.52
   5  -2  12   31.83    0.97
  -5   2  12   31.04    1.20
  -5  -2 -12   29.65    1.17
   5   2 -12   28.82    1.17
  -5  -2  12   29.81    1.16
   5  -2 -12   28.68    1.15
  -5   2 -12   29.29    1.21
  -6  -2 -12    6.33    0.53
  -6   2  12    6.53    0.61
   6   2 -12    5.34    0.45
   6  -2 -12    6.09    0.47
  -6  -2  12    7.93    0.53
  -6   2 -12    6.75    0.57
   7   2 -12   17.01    0.90
  -7  -2 -12   17.52    0.87
  -7   2  12   17.85    0.92
   7  -2 -12   17.70    0.90
  -7   2 -12   18.48    0.96
  -7  -2  12   18.29    0.93
  -8  -2 -12   21.99    1.06
   8   2 -12   21.22    1.05
  -8   2  12   20.70    1.10
  -8  -2  12   18.23    0.98
  -8   2 -12   20.74    1.05
   8  -2 -12   20.46    1.00
   9   2 -12    6.21    0.66
  -9   2  12    7.13    0.75
  -9  -2 -12    7.81    0.73
   9  -2 -12    8.24    0.69
  -9  -2  12    7.71    0.74
  -9   2 -12    7.56    0.77
  10   2 -12    9.24    0.71
 -10  -2 -12    7.62    0.77
 -10   2  12   10.48    0.81
 -10   2 -12    9.33    0.78
 -10  -2  12    9.50    0.75
  10  -2 -12    9.71    0.80
  11   2 -12    2.05    0.53
 -11   2  12    1.73    0.58
 -11  -2 -12    2.25    0.53
  11  -2 -12    2.07    0.53
 -11  -2  12    2.00    0.57
 -11   2 -12    2.33    0.51
 -12  -2 -12    0.80    0.48
 -12   2  12    0.42    0.55
  12   2 -12    0.53    0.45
 -12  -2  12    0.65    0.52
  12  -2 -12    0.46    0.46
 -12   2 -12    1.52    0.58
   0  -3  12   11.25    0.52
   0   3  12   11.25    0.54
   0   3 -12   10.56    0.49
   0  -3 -12   11.67    0.45
   1   3 -12   73.07    2.26
  -1   3  12   71.07    2.26
  -1  -3 -12   75.67    2.12
  -1  -3  12   70.63    2.25
  -1   3 -12   69.95    2.28
   1   3  12   73.38    2.26
  -1   3 -12   74.24    2.21
  -2   3  12    3.75    0.35
   2   3 -12    3.69    0.30
  -2  -3 -12    3.81    0.16
  -2  -3 -12    3.78    0.30
   2  -3 -12    3.57    0.29
  -2   3 -12    4.03    0.39
  -2   3 -12    3.88    0.27
  -2  -3  12    4.10    0.34
   3   3 -12   34.99    1.30
  -3  -3 -12   35.83    1.27
  -3   3  12   35.14    1.28
  -3   3 -12   36.60    1.16
   3  -3 -12   35.18    1.24
  -3   3 -12   35.99    1.31
  -3  -3  12   36.28    1.28
   4   3 -12   10.05    0.60
  -4  -3 -12   11.47    0.57
  -4   3  12   11.65    0.63
   4  -3  12   11.55    0.47
  -4  -3  12   10.10    0.59
  -4   3 -12   11.56    0.64
   4  -3 -12   10.82    0.58
  -5   3  12    7.92    0.58
  -5  -3 -12    7.36    0.52
   5  -3  12    7.98    0.38
   5   3 -12    8.68    0.53
   5  -3 -12    6.98    0.47
  -5   3 -12    7.70    0.57
  -5  -3  12    7.79    0.54
  -6   3  12    1.16    0.37
   6   3 -12    1.60    0.34
  -6  -3 -12    0.85    0.28
  -6  -3  12    1.61    0.34
   6  -3 -12    1.03    0.30
  -6   3 -12    1.44    0.36
   7   3 -12    3.51    0.44
  -7   3  12    3.79    0.49
  -7  -3 -12    3.78    0.47
  -7  -3  12    3.51    0.48
   7  -3 -12    3.51    0.47
  -7   3 -12    2.77    0.47
  -8   3  12   12.19    0.84
   8   3 -12    9.55    0.68
  -8  -3 -12   11.64    0.75
  -8  -3  12   11.17    0.77
   8  -3 -12   11.83    0.77
  -8   3 -12   11.05    0.81
  -9   3  12    1.32    0.39
  -9  -3 -12    2.46    0.46
   9   3 -12    2.30    0.47
  -9  -3  12    2.06    0.47
   9  -3 -12    2.36    0.46
  -9   3 -12    1.12    0.45
 -10  -3 -12    2.48    0.49
  10   3 -12    3.71    0.58
 -10   3  12    3.59    0.65
  10  -3 -12    3.42    0.58
 -10   3 -12    4.13    0.60
 -10  -3  12    2.92    0.56
 -11  -3 -12    3.97    0.61
 -11   3  12    3.81    0.63
  11   3 -12    4.27    0.63
 -11  -3  12    3.81    0.66
  11  -3 -12    3.62    0.61
 -11   3 -12    4.12    0.65
  12   3 -12    0.21    0.43
 -12   3  12    0.40    0.57
 -12  -3 -12    0.11    0.40
  12  -3 -12   -0.06    0.41
 -12  -3  12   -0.34    0.47
 -12   3 -12   -0.11    0.51
   0   4  12   -0.37    0.12
   0  -4 -12   -0.04    0.08
   0   4 -12    0.13    0.13
   0  -4  12   -0.10    0.09
   1   4 -12   52.42    1.78
  -1  -4 -12   56.29    1.64
  -1   4  12   53.26    1.77
   1   4  12   56.65    1.77
  -1  -4  12   54.35    1.77
  -1   4 -12   55.74    1.75
  -1   4 -12   54.46    1.79
  -2  -4 -12   29.61    1.08
  -2   4  12   30.88    1.12
  -2  -4 -12   31.97    0.94
   2   4 -12   30.99    1.15
   2  -4 -12   29.86    1.06
  -2  -4  12   30.10    1.10
  -2   4 -12   28.73    1.11
  -3  -4 -12   89.56    2.74
  -3   4  12   86.93    2.77
   3   4 -12   90.58    2.83
   3  -4 -12   87.05    2.74
  -3  -4  12   89.62    2.74
  -3   4 -12   90.65    2.69
  -3   4 -12   88.88    2.80
  -4  -4 -12   62.37    2.04
   4   4 -12   63.22    2.12
  -4   4  12   60.69    2.08
   4  -4 -12   62.94    2.06
  -4   4 -12   65.68    1.97
  -4   4 -12   61.66    2.10
  -4  -4  12   64.46    2.06
  -5   4  12    0.40    0.28
   5  -4  12    0.81    0.18
   5   4 -12    0.15    0.19
  -5  -4 -12    0.59    0.24
   5  -4 -12    0.74    0.27
  -5   4 -12    0.55    0.22
  -5  -4  12    0.40    0.25
  -6   4  12    2.19    0.38
   6  -4  12    2.60    0.28
  -6  -4 -12    2.10    0.35
   6   4 -12    2.82    0.42
  -6  -4  12    2.33    0.39
  -6   4 -12    1.74    0.33
   6  -4 -12    2.26    0.34
  -7   4  12   37.64    1.52
   7   4 -12   38.31    1.50
  -7  -4 -12   33.26    1.39
   7  -4 -12   37.30    1.44
  -7   4 -12   36.69    1.48
  -7  -4  12   35.90    1.41
   8   4 -12    1.87    0.37
  -8  -4 -12    2.63    0.42
  -8   4  12    1.52    0.45
   8  -4 -12    2.41    0.43
  -8   4 -12    1.47    0.43
  -8  -4  12    1.71    0.41
  -9  -4 -12    1.91    0.37
  -9   4  12    2.09    0.52
   9   4 -12    1.95    0.40
  -9  -4  12    0.86    0.40
  -9   4 -12    2.07    0.44
   9  -4 -12    1.34    0.41
  10   4 -12    4.62    0.64
 -10  -4 -12    4.98    0.60
 -10   4  12    3.41    0.66
  10  -4 -12    4.42    0.62
 -10  -4  12    3.63    0.59
 -10   4 -12    3.73    0.67
  11   4 -12    1.09    0.39
 -11  -4 -12    1.34    0.43
 -11   4  12    1.13    0.48
 -11  -4  12    0.59    0.45
 -11   4 -12    1.84    0.60
  11  -4 -12    0.73    0.36
  12   4 -12    1.13    0.40
 -12  -4 -12    1.16    0.46
 -12   4  12    0.58    0.44
 -12  -4  12    1.10    0.54
  12  -4 -12    0.47    0.47
 -12   4 -12    0.78    0.57
   0   5 -12   25.57    0.97
   0  -5  12   25.25    0.94
   0   5  12   24.32    0.93
   0  -5 -12   26.27    0.89
  -1  -5 -12    0.31    0.12
   1   5 -12    0.45    0.19
  -1   5  12    0.71    0.19
  -1  -5  12    0.51    0.14
  -1   5 -12    0.19    0.17
  -1   5 -12    0.45    0.17
   1   5  12    0.22    0.15
   1  -5 -12    0.33    0.14
  -2   5  12    3.16    0.33
  -2  -5 -12    3.19    0.22
   2   5 -12    2.55    0.34
   2  -5 -12    3.11    0.31
   2   5  12    3.20    0.31
  -2   5 -12    2.80    0.34
  -2  -5  12    2.30    0.28
  -2   5 -12    3.50    0.34
  -3  -5 -12    4.36    0.34
  -3   5  12    4.86    0.40
   3   5 -12    4.20    0.45
  -3  -5  12    5.27    0.39
   3  -5 -12    4.39    0.34
  -3   5 -12    4.45    0.43
  -4   5  12    6.99    0.47
   4   5 -12    7.56    0.52
  -4  -5 -12    7.03    0.46
  -4   5 -12    8.26    0.56
  -4  -5  12    8.02    0.50
   4  -5 -12    6.86    0.49
  -5   5  12   38.98    1.42
   5   5 -12   37.33    1.45
   5  -5  12   36.62    1.27
  -5  -5 -12   35.95    1.32
   5  -5 -12   35.37    1.35
  -5  -5  12   37.42    1.35
  -5   5 -12   33.69    1.39
   6   5 -12    4.03    0.47
   6  -5  12    4.42    0.37
  -6  -5 -12    4.25    0.43
  -6   5  12    4.01    0.47
  -6  -5  12    4.45    0.46
   6  -5 -12    3.74    0.46
  -6   5 -12    4.58    0.51
  -7  -5 -12    6.08    0.54
  -7   5  12    5.76    0.58
   7   5 -12    6.51    0.64
  -7  -5  12    5.73    0.55
   7  -5 -12    5.58    0.55
  -7   5 -12    5.52    0.61
   8   5 -12    4.44    0.53
  -8   5  12    4.66    0.55
  -8  -5 -12    3.66    0.47
   8  -5 -12    3.60    0.51
  -8   5 -12    3.88    0.56
  -8  -5  12    4.26    0.52
  -9   5  12    1.14    0.48
  -9  -5 -12    1.78    0.40
   9   5 -12    1.13    0.34
   9  -5 -12    0.83    0.39
  -9  -5  12    0.77    0.37
  -9   5 -12    0.97    0.44
 -10  -5 -12    0.43    0.32
  10   5 -12    0.05    0.27
 -10   5  12    0.29    0.47
 -10  -5  12    0.08    0.36
  10  -5 -12    0.16    0.29
 -10   5 -12    0.56    0.37
 -11   5  12    1.47    0.49
 -11  -5 -12    1.49    0.45
  11   5 -12    1.67    0.50
 -11  -5  12    1.07    0.48
  11  -5 -12    1.24    0.49
 -11   5 -12    1.76    0.49
 -12  -5 -12    2.64    0.55
 -12   5  12    2.85    0.61
  12   5 -12    3.35    0.63
 -12   5 -12    3.08    0.69
  12  -5 -12    2.38    0.52
 -12  -5  12    3.35    0.64
   0   6 -12    3.35    0.36
   0  -6  12    2.73    0.29
   0  -6 -12    2.69    0.27
  -1   6  12    5.93    0.40
  -1  -6 -12    6.18    0.35
   1   6 -12    5.49    0.44
  -1  -6  12    4.63    0.36
  -1   6 -12    5.93    0.42
  -1   6 -12    5.73    0.40
   1   6  12    5.97    0.37
   1  -6 -12    4.75    0.38
  -2   6  12   55.41    1.85
  -2  -6 -12   61.00    1.77
   2   6 -12   54.93    1.95
   2   6  12   59.31    1.84
   2  -6 -12   54.20    1.85
  -2  -6  12   55.58    1.83
  -2   6 -12   57.51    1.90
  -2   6 -12   58.98    1.90
  -3  -6 -12   76.97    2.38
   3   6 -12   73.08    2.52
  -3   6  12   77.53    2.44
  -3   6 -12   78.89    2.48
  -3  -6  12   76.03    2.40
   3  -6 -12   75.98    2.45
  -3   6 -12   78.94    2.44
  -4  -6 -12   39.02    1.34
   4   6 -12   38.27    1.49
  -4   6  12   38.45    1.41
  -4   6 -12   40.07    1.36
  -4   6 -12   38.59    1.43
   4  -6 -12   35.32    1.37
  -4  -6  12   36.67    1.34
  -5  -6 -12   18.11    0.77
   5   6 -12   16.66    0.87
   5  -6  12   17.98    0.78
  -5   6  12   16.99    0.86
   5  -6 -12   16.37    0.83
  -5  -6  12   17.63    0.80
  -5   6 -12   15.86    0.84
   6   6 -12   27.08    1.23
  -6  -6 -12   24.62    1.06
  -6   6  12   26.97    1.16
   6  -6  12   28.77    1.08
  -6  -6  12   26.33    1.11
   6  -6 -12   28.86    1.19
  -6   6 -12   27.91    1.20
   7   6 -12   18.78    0.95
  -7  -6 -12   17.88    0.84
  -7   6  12   16.83    0.90
  -7   6 -12   15.39    0.91
   7  -6 -12   15.75    0.86
  -7  -6  12   16.79    0.87
   8   6 -12    0.16    0.25
  -8  -6 -12    0.29    0.25
  -8   6  12    0.61    0.38
  -8   6 -12    0.91    0.37
  -8  -6  12    0.28    0.29
   8  -6 -12    0.37    0.33
  -9  -6 -12    7.30    0.67
  -9   6  12    8.78    0.81
   9   6 -12    8.26    0.80
  -9  -6  12    7.45    0.70
  -9   6 -12    7.80    0.79
   9  -6 -12    8.28    0.78
  10   6 -12    1.27    0.46
 -10   6  12    1.24    0.52
 -10   6 -12    0.90    0.49
  10  -6 -12    1.54    0.48
 -10  -6  12    1.14    0.43
 -11   6  12    0.32    0.51
  11   6 -12    0.75    0.36
 -11  -6  12    0.23    0.49
 -11   6 -12   -0.01    0.48
  11  -6 -12    0.23    0.43
   0   7 -12   11.69    0.65
   0  -7  12   11.39    0.56
   0   7  12   12.44    0.57
   1   7 -12   10.81    0.64
  -1  -7 -12   10.75    0.53
  -1   7  12   10.85    0.54
  -1  -7  12    9.89    0.52
  -1   7 -12   10.66    0.61
   1   7  12   11.57    0.53
  -1   7 -12   10.12    0.55
   1  -7 -12   11.34    0.57
   2   7 -12   53.35    1.94
  -2  -7 -12   60.23    1.77
  -2   7 -12   54.81    1.88
  -2   7 -12   55.19    1.84
   2   7  12   58.95    1.79
  -2  -7  12   52.67    1.79
   2  -7 -12   51.60    1.82
   3   7 -12    1.64    0.36
  -3   7  12    0.60    0.24
  -3   7 -12    0.66    0.25
   3   7  12    0.92    0.22
  -3  -7  12    0.76    0.22
  -3   7 -12    1.34    0.29
   3  -7 -12    1.11    0.28
  -4   7  12    4.30    0.44
   4   7 -12    4.63    0.51
  -4  -7 -12    4.74    0.35
  -4   7 -12    4.79    0.44
   4  -7 -12    3.85    0.44
  -4  -7  12    4.12    0.38
  -4   7 -12    4.72    0.48
  -5   7  12   18.73    0.93
   5  -7  12   20.73    0.92
   5   7 -12   19.99    1.03
  -5  -7 -12   20.36    0.84
  -5   7 -12   21.37    0.94
   5  -7 -12   19.80    0.92
  -5  -7  12   20.35    0.88
  -6   7  12   14.02    0.81
   6   7 -12   13.35    0.86
   6  -7  12   14.80    0.75
  -6  -7 -12   13.23    0.68
  -6   7 -12   14.22    0.78
   6  -7 -12   14.48    0.78
  -6  -7  12   14.93    0.76
   7  -7  12    6.31    0.49
  -7   7  12    6.25    0.61
   7   7 -12    6.93    0.67
  -7  -7  12    5.29    0.53
  -7   7 -12    6.99    0.65
   7  -7 -12    6.82    0.65
  -8   7  12    0.84    0.39
   8   7 -12    0.76    0.32
  -8  -7  12    0.67    0.33
  -8   7 -12    0.39    0.33
   8  -7 -12    1.14    0.40
   9   7 -12    0.48    0.40
  -9   7  12   -0.17    0.39
  -9   7 -12    0.48    0.41
   9  -7 -12    0.49    0.31
  10   7 -12    2.55    0.56
 -10   7  12    2.38    0.60
  10  -7 -12    2.52    0.56
 -10   7 -12    2.95    0.60
  11   7 -12   -0.12    0.41
 -11   7  12    0.61    0.52
 -11   7 -12    2.45    0.59
  11  -7 -12    0.49    0.48
   0   8 -12   87.44    2.91
   0   8  12   92.73    2.76
   0  -8  12   88.39    2.75
   0  -8 -12   94.21    2.92
  -1  -8 -12   53.94    1.70
   1  -8  12   48.37    1.65
  -1   8  12   50.89    1.64
   1   8 -12   47.36    1.80
  -1  -8  12   51.21    1.65
   1  -8 -12   50.43    1.72
  -1   8 -12   49.19    1.78
  -2  -8 -12    3.26    0.34
  -2   8  12    3.04    0.35
   2   8 -12    2.75    0.39
   2  -8 -12    3.80    0.41
  -2   8 -12    2.70    0.40
  -2  -8  12    2.44    0.31
   3   8 -12    3.62    0.50
  -3  -8  12    3.14    0.35
  -3   8 -12    2.90    0.38
   3  -8 -12    3.21    0.42
  -3   8 -12    4.45    0.43
  -4   8  12    1.42    0.30
   4   8 -12    1.10    0.31
  -4  -8  12    0.63    0.25
  -4   8 -12    1.06    0.29
  -4   8 -12    0.65    0.27
   4  -8 -12    0.59    0.28
  -5   8  12   14.44    0.80
   5  -8  12   17.42    0.84
   5   8 -12   15.40    0.92
   5  -8 -12   14.46    0.79
  -5   8 -12   15.54    0.82
   6   8 -12    3.92    0.55
  -6   8  12    2.73    0.43
   6  -8  12    3.39    0.43
  -6   8 -12    3.40    0.47
   6  -8 -12    2.73    0.45
   7  -8  12    8.99    0.65
  -7   8  12   10.29    0.74
   7   8 -12   11.16    0.76
  -7   8 -12    9.42    0.72
   7  -8 -12   10.25    0.75
   8   8 -12   10.02    0.83
  -8   8  12    9.14    0.82
   8  -8 -12   10.30    0.81
  -8   8 -12    8.97    0.75
  -9   8  12    6.18    0.73
   9   8 -12    6.19    0.71
   9  -8 -12    6.81    0.75
  -9   8 -12    6.05    0.70
 -10   8  12   -0.08    0.43
  10   8 -12   -0.61    0.35
 -10   8 -12    0.31    0.31
  10  -8 -12    0.27    0.33
  11   8 -12    0.31    0.44
 -11   8  12    0.66    0.53
  11  -8 -12    0.85    0.51
 -11   8 -12    0.66    0.47
   0  -9 -12   41.77    1.47
   0   9 -12   37.34    1.52
   1   9 -12   21.32    1.04
   1  -9  12   22.01    0.87
   1  -9 -12   22.21    0.97
  -1   9 -12   21.76    1.03
   2   9 -12    3.47    0.49
   2  -9 -12    3.68    0.44
  -2   9 -12    3.92    0.39
  -2   9 -12    3.75    0.44
   3   9 -12    6.70    0.67
  -3   9 -12    6.98    0.58
   3  -9 -12    6.43    0.50
   4   9 -12    8.57    0.71
  -4   9 -12    8.00    0.56
  -4   9 -12    7.94    0.60
   4  -9 -12    5.99    0.52
   5  -9  12    8.62    0.64
   5   9 -12    7.89    0.66
  -5   9  12    9.61    0.63
   5  -9 -12    8.82    0.62
  -5   9 -12    8.43    0.62
   6  -9  12    2.89    0.45
   6   9 -12    1.74    0.39
  -6   9  12    0.97    0.34
   6  -9 -12    1.56    0.36
  -6   9 -12    1.81    0.38
   7   9 -12    6.58    0.73
   7  -9  12    6.28    0.59
  -7   9  12    5.64    0.61
   7  -9 -12    6.03    0.63
  -7   9 -12    5.69    0.61
   8   9 -12    4.04    0.64
  -8   9  12    2.41    0.49
   8  -9 -12    2.89    0.55
  -8   9 -12    3.51    0.53
   9   9 -12    1.02    0.48
  -9   9  12    0.96    0.45
   9  -9 -12    1.33    0.48
  -9   9 -12    0.91    0.40
 -10   9  12    7.93    0.88
  10   9 -12    8.97    0.92
  10  -9 -12    9.03    0.90
 -10   9 -12    8.13    0.85
   0  10 -12    4.59    0.54
   0 -10 -12    5.95    0.54
   1  10 -12   36.75    1.54
   1 -10 -12   37.80    1.46
  -1  10 -12   38.50    1.54
   2  10 -12   12.31    0.83
  -2  10 -12   12.91    0.80
   2 -10 -12   13.77    0.77
   3  10 -12   10.24    0.73
   3 -10 -12   10.68    0.72
  -3  10 -12    9.94    0.67
   4  10 -12    5.39    0.62
  -4  10 -12    5.07    0.57
   4 -10 -12    4.86    0.55
   5 -10  12    5.04    0.57
   5  10 -12    4.65    0.64
   5 -10 -12    4.22    0.56
   6  10 -12    3.32    0.58
   6 -10  12    3.08    0.49
   6 -10 -12    3.76    0.55
   7 -10  12    2.95    0.48
   7  10 -12    3.08    0.53
   7 -10 -12    3.25    0.56
  -7  10 -12    4.23    0.54
   8  10 -12    2.46    0.50
   8 -10 -12    1.79    0.52
  -8  10 -12    1.70    0.42
   9  10 -12    9.43    0.90
   9 -10 -12    8.68    0.89
  -9  10 -12    7.99    0.81
   0 -11 -12    0.34    0.28
   0  11 -12    0.33    0.25
  -1 -11 -12    2.01    0.37
   1  11 -12    1.73    0.38
   1 -11 -12    2.02    0.39
  -1  11 -12    1.39    0.40
   2  11 -12    2.57    0.50
   2 -11 -12    1.62    0.38
  -2  11 -12    1.75    0.42
   3  11 -12    0.54    0.38
  -3  11 -12    0.81    0.31
   3 -11 -12    0.57    0.34
   4  11 -12    5.58    0.71
  -4  11 -12    4.36    0.58
   4 -11 -12    5.09    0.60
   5 -11  12    3.76    0.55
   5  11 -12    4.00    0.60
   5 -11 -12    4.06    0.59
   6  11 -12    0.42    0.33
   6 -11  12   -0.12    0.31
   6 -11 -12    0.25    0.37
   7 -11  12   10.81    0.82
   7  11 -12   11.82    0.98
   7 -11 -12   11.24    0.90
   8  11 -12    1.98    0.57
   8 -11 -12    0.68    0.46
   9  11 -12    2.01    0.57
   9 -11 -12    1.19    0.44
   0  12 -12    1.56    0.45
   0 -12 -12    1.63    0.38
   1  12 -12    4.20    0.60
  -1  12 -12    3.92    0.56
   1 -12 -12    2.93    0.48
   2  12 -12    2.25    0.52
  -2  12 -12    1.53    0.45
   2 -12 -12    1.99    0.42
   3  12 -12    4.61    0.65
  -3  12 -12    4.94    0.63
   3 -12 -12    5.09    0.58
   4  12 -12    0.40    0.43
  -4  12 -12    0.82    0.40
   4 -12 -12    0.76    0.41
   5  12 -12    1.98    0.54
   5 -12  12    2.29    0.51
   5 -12 -12    2.10    0.50
   6 -12  12   14.65    0.99
   6  12 -12   12.42    1.03
   6 -12 -12   12.53    0.96
   7 -12  12    3.85    0.61
   7  12 -12    4.60    0.72
   7 -12 -12    4.79    0.71
   8 -12  12    0.07    0.39
   8  12 -12    0.23    0.45
   8 -12 -12   -0.12    0.41
   0  13 -12    0.90    0.44
   0 -13 -12    0.91    0.38
   1  13 -12    2.65    0.51
  -1  13 -12    2.51    0.53
   1 -13 -12    3.48    0.53
   2  13 -12    4.45    0.63
   2 -13 -12    4.46    0.60
  -2  13 -12    4.34    0.65
   3  13 -12    0.55    0.36
   3 -13 -12    1.07    0.41
  -3  13 -12    0.88    0.44
   4  13 -12   11.16    1.05
  -4  13 -12   11.83    0.93
   4 -13 -12   11.53    0.91
   5  13 -12    1.02    0.52
   5 -13  12    0.14    0.40
   5 -13 -12    0.21    0.41
   6 -13  12    3.27    0.58
   6  13 -12    2.80    0.64
   6 -13 -12    3.29    0.57
   7 -13  12    0.83    0.46
   7  13 -12    0.28    0.37
   7 -13 -12   -0.06    0.42
   0  14 -12   -0.04    0.40
   1  14 -12    4.26    0.71
   1 -14 -12    4.11    0.61
  -1  14 -12    3.57    0.64
   2  14 -12    0.52    0.47
  -2  14 -12    1.20    0.42
   2 -14 -12    0.94    0.43
   3  14 -12    9.41    1.00
   3 -14 -12   10.92    0.89
  -3  14 -12    9.64    0.93
   4  14 -12    2.58    0.63
   4 -14 -12    2.05    0.54
  -4  14 -12    2.04    0.48
   5  14 -12    0.42    0.50
   5 -14  12    0.68    0.46
   5 -14 -12    1.32    0.43
   0  15 -12    1.78    0.56
   1  15 -12    1.68    0.57
  -1  15 -12    1.55    0.48
   1 -15 -12    2.18    0.53
   2  15 -12    5.50    0.83
   2 -15 -12    5.64    0.71
  -2  15 -12    4.33    0.71
   3  15 -12    0.18    0.50
  -3  15 -12    0.11    0.44
   3 -15 -12    0.41    0.45
   0   0  13   -0.15    0.11
   0   0 -13    0.01    0.08
  -1   0 -13   45.64    1.55
  -1   0  13   44.52    1.53
  -1   0 -13   46.35    1.37
  -2   0 -13   29.09    1.10
  -2   0  13   26.86    1.09
   2   0 -13   28.65    1.03
  -2   0 -13   31.54    0.89
  -3   0  13   40.67    1.43
  -3   0 -13   39.27    1.41
   3   0 -13   39.21    1.36
  -4   0 -13    0.04    0.16
  -4   0  13   -0.50    0.18
   4   0 -13    0.09    0.19
  -5   0  13    7.81    0.58
  -5   0 -13    8.72    0.59
   5   0 -13    8.06    0.51
  -6   0 -13   10.11    0.68
  -6   0  13   10.57    0.66
   6   0 -13   10.58    0.62
  -7   0  13    0.45    0.35
   7   0 -13    0.46    0.29
  -7   0 -13    1.09    0.36
  -8   0 -13    1.68    0.38
   8   0 -13    1.37    0.38
  -8   0  13    1.29    0.36
  -9   0 -13    5.81    0.64
   9   0 -13    5.07    0.60
  -9   0  13    4.53    0.57
 -10   0  13    9.77    0.80
 -10   0 -13   10.78    0.96
  10   0 -13   11.52    0.86
 -11   0  13   -1.47    0.39
 -11   0 -13    1.06    0.49
  11   0 -13    0.08    0.29
 -12   0  13    2.17    0.55
 -12   0 -13    3.76    0.72
  12   0 -13    2.51    0.61
   0   1  13   67.61    2.19
   0  -1  13   68.54    2.20
   0  -1 -13   72.09    2.08
   0   1 -13   70.02    2.10
   1   1 -13   10.10    0.47
  -1  -1 -13   10.22    0.37
  -1   1  13    9.59    0.53
   1  -1 -13    9.62    0.44
   1   1  13    9.25    0.50
  -1   1 -13   10.53    0.55
  -1   1 -13   10.24    0.40
  -1  -1  13    9.08    0.50
  -2   1  13   93.23    2.88
   2   1 -13   92.21    2.83
  -2  -1 -13   93.59    2.88
  -2  -1  13   88.65    2.86
  -2   1 -13   99.58    2.70
  -2   1 -13   93.00    2.89
   2  -1 -13   90.26    2.80
   3   1 -13    8.21    0.47
  -3  -1 -13    9.28    0.52
  -3   1  13    8.35    0.54
  -3   1 -13    9.54    0.34
   3  -1 -13    9.30    0.49
  -3  -1  13    8.82    0.54
  -3   1 -13    9.42    0.53
   4   1 -13    4.09    0.40
  -4  -1 -13    3.93    0.40
  -4   1  13    4.08    0.43
   4  -1 -13    4.24    0.39
  -4  -1  13    3.91    0.43
  -4   1 -13    4.13    0.41
   5   1 -13   11.21    0.63
  -5   1  13   13.54    0.74
  -5  -1 -13   12.05    0.69
   5  -1 -13   12.94    0.65
  -5   1 -13   12.50    0.68
  -5  -1  13   11.69    0.66
  -6   1  13   25.52    1.12
  -6  -1 -13   25.76    1.13
   6   1 -13   25.31    1.10
   6  -1 -13   25.37    1.09
  -6  -1  13   26.02    1.13
  -6   1 -13   25.14    1.11
  -7   1  13    4.48    0.52
   7   1 -13    4.77    0.49
  -7  -1 -13    4.95    0.55
   7  -1 -13    4.14    0.50
  -7  -1  13    4.44    0.50
  -7   1 -13    4.08    0.50
  -8  -1 -13    6.71    0.66
   8   1 -13    5.18    0.58
  -8   1  13    6.44    0.69
  -8  -1  13    5.25    0.63
  -8   1 -13    5.36    0.64
   8  -1 -13    4.76    0.56
  -9  -1 -13    4.95    0.62
   9   1 -13    4.38    0.54
  -9   1  13    5.97    0.71
  -9   1 -13    4.85    0.65
  -9  -1  13    4.50    0.56
   9  -1 -13    5.32    0.58
 -10   1  13    1.14    0.51
  10   1 -13    1.17    0.38
 -10  -1 -13    1.41    0.39
 -10   1 -13    1.39    0.43
  10  -1 -13    1.42    0.46
 -10  -1  13    1.35    0.50
 -11  -1 -13   -0.06    0.42
 -11   1  13    0.29    0.50
  11   1 -13   -0.03    0.39
  11  -1 -13   -0.06    0.28
 -11   1 -13    0.15    0.35
 -11  -1  13    0.41    0.51
 -12   1  13    4.29    0.79
 -12  -1 -13    3.86    0.61
  12   1 -13    3.91    0.66
  12  -1 -13    5.12    0.73
 -12  -1  13    3.88    0.65
 -12   1 -13    4.43    0.69
   0   2  13   11.77    0.58
   0   2 -13   10.18    0.48
   0  -2 -13   13.35    0.47
   0  -2  13   11.95    0.56
   1   2 -13   47.01    1.60
  -1   2  13   48.09    1.66
  -1  -2 -13   52.75    1.49
  -1   2 -13   51.01    1.68
   1   2  13   50.09    1.65
  -1   2 -13   51.72    1.56
   1  -2 -13   50.84    1.57
  -1  -2  13   48.53    1.66
  -2   2  13   10.62    0.58
  -2  -2 -13   10.03    0.56
   2   2 -13   10.70    0.54
  -2   2 -13   11.09    0.60
   2  -2 -13   11.42    0.51
  -2  -2  13   10.93    0.55
  -2   2 -13   11.69    0.46
  -3   2  13    6.47    0.43
   3   2 -13    5.90    0.42
  -3  -2 -13    5.90    0.43
   3  -2 -13    5.88    0.39
  -3  -2  13    6.12    0.42
  -3   2 -13    6.04    0.30
  -3   2 -13    5.82    0.46
   4  -2  13   13.01    0.48
  -4   2  13   12.81    0.70
  -4  -2 -13   13.57    0.68
   4   2 -13   12.95    0.65
   4  -2 -13   13.07    0.65
  -4   2 -13   12.96    0.70
  -4  -2  13   12.92    0.68
  -5  -2 -13    9.96    0.58
  -5   2  13    9.70    0.66
   5   2 -13    9.57    0.61
  -5  -2  13   11.09    0.65
  -5   2 -13   10.92    0.63
   5  -2 -13   10.32    0.58
  -6   2  13    9.53    0.64
   6   2 -13    9.98    0.65
  -6  -2 -13    9.99    0.65
   6  -2 -13    9.37    0.59
  -6   2 -13    9.66    0.63
  -6  -2  13    9.80    0.67
  -7  -2 -13    4.95    0.55
  -7   2  13    4.46    0.57
   7   2 -13    5.10    0.55
   7  -2 -13    4.15    0.50
  -7   2 -13    5.07    0.55
  -7  -2  13    4.74    0.51
  -8   2  13   10.08    0.73
  -8  -2 -13    9.78    0.73
   8   2 -13    9.39    0.71
   8  -2 -13    9.88    0.67
  -8   2 -13    9.77    0.78
  -8  -2  13    9.92    0.76
  -9  -2 -13   14.67    0.93
  -9   2  13   13.96    0.91
   9   2 -13   14.27    0.86
  -9   2 -13   16.63    1.02
  -9  -2  13   13.90    0.87
   9  -2 -13   15.60    0.93
  10   2 -13    2.78    0.54
 -10  -2 -13    3.74    0.58
 -10   2  13    2.63    0.62
  10  -2 -13    3.53    0.58
 -10  -2  13    1.71    0.44
 -10   2 -13    3.61    0.57
 -11  -2 -13    1.10    0.48
  11   2 -13    2.14    0.52
 -11   2  13    0.72    0.55
  11  -2 -13    1.35    0.41
 -11   2 -13    1.28    0.56
 -11  -2  13    0.81    0.52
 -12   2  13   -0.11    0.55
 -12  -2 -13   -0.04    0.42
  12   2 -13    0.68    0.47
 -12  -2  13   -0.49    0.49
 -12   2 -13   -0.07    0.38
  12  -2 -13   -0.14    0.30
   0   3 -13   21.61    0.81
   0  -3  13   21.42    0.85
   0   3  13   21.66    0.86
   0  -3 -13   22.64    0.75
  -1  -3 -13   11.60    0.41
   1   3 -13   10.97    0.53
  -1   3  13    9.94    0.52
  -1   3 -13   11.36    0.50
   1  -3 -13   10.11    0.46
  -1  -3  13   10.65    0.55
  -1   3 -13   10.14    0.56
   1   3  13   10.95    0.55
   2   3 -13    1.92    0.28
  -2  -3 -13    1.96    0.27
  -2   3  13    1.88    0.28
  -2  -3 -13    2.07    0.12
   2  -3 -13    1.52    0.22
  -2   3 -13    2.20    0.23
  -2  -3  13    1.57    0.26
  -2   3 -13    1.70    0.30
   3   3 -13    9.55    0.55
  -3   3  13    8.71    0.52
  -3  -3 -13    9.15    0.51
  -3   3 -13   10.72    0.44
  -3   3 -13    8.98    0.57
  -3  -3  13    9.82    0.53
   3  -3 -13    9.40    0.48
  -4   3  13   78.26    2.60
  -4  -3 -13   81.27    2.57
   4  -3  13   85.30    2.43
   4   3 -13   84.00    2.63
  -4  -3  13   78.08    2.57
   4  -3 -13   81.13    2.56
  -4   3 -13   78.95    2.62
   5   3 -13    6.80    0.53
  -5  -3 -13    6.82    0.51
  -5   3  13    6.93    0.52
  -5   3 -13    6.97    0.51
  -5  -3  13    7.62    0.54
   5  -3 -13    7.35    0.52
  -6   3  13   35.16    1.39
   6   3 -13   34.42    1.38
  -6  -3 -13   34.86    1.35
   6  -3 -13   32.93    1.33
  -6  -3  13   35.99    1.37
  -6   3 -13   33.85    1.38
   7   3 -13   17.41    0.93
  -7  -3 -13   18.36    0.92
  -7   3  13   16.16    0.91
  -7  -3  13   17.36    0.88
   7  -3 -13   17.21    0.91
  -7   3 -13   17.10    0.91
   8   3 -13    5.84    0.62
  -8  -3 -13    5.49    0.59
  -8   3  13    5.40    0.60
  -8  -3  13    5.82    0.62
   8  -3 -13    7.06    0.66
  -8   3 -13    6.70    0.69
  -9   3  13    2.38    0.49
   9   3 -13    2.57    0.50
  -9  -3 -13    4.00    0.54
   9  -3 -13    3.64    0.54
  -9   3 -13    2.63    0.55
  -9  -3  13    2.20    0.50
  10   3 -13    5.03    0.66
 -10  -3 -13    4.28    0.59
 -10   3  13    5.14    0.74
  10  -3 -13    4.07    0.61
 -10  -3  13    4.53    0.66
 -10   3 -13    3.73    0.58
 -11   3  13    1.84    0.52
  11   3 -13    1.64    0.44
 -11  -3 -13    2.32    0.52
 -11   3 -13    1.62    0.49
  11  -3 -13    1.01    0.47
 -11  -3  13    1.19    0.43
 -12   3  13    1.61    0.65
 -12  -3 -13    2.39    0.58
  12   3 -13    3.02    0.57
 -12   3 -13    3.11    0.62
 -12  -3  13    1.52    0.57
  12  -3 -13    1.58    0.55
   0   4 -13    0.06    0.13
   0  -4 -13    0.20    0.11
   0  -4  13   -0.07    0.10
   0   4  13    0.27    0.17
  -1   4  13    1.03    0.22
  -1  -4 -13    1.19    0.14
   1   4 -13    0.90    0.21
  -1   4 -13    0.99    0.19
  -1   4 -13    1.21    0.22
  -1  -4  13    0.52    0.19
   1   4  13    1.08    0.21
   1  -4 -13    0.72    0.15
   2   4 -13   23.88    0.97
  -2   4  13   24.33    0.96
  -2  -4  13   24.89    0.94
  -2   4 -13   22.85    0.96
   2  -4 -13   23.88    0.90
  -2   4 -13   25.60    0.90
  -3  -4 -13   12.31    0.62
  -3   4  13   12.09    0.62
   3   4 -13   12.15    0.67
   3  -4 -13   12.60    0.61
  -3   4 -13   14.98    0.59
  -3   4 -13   12.53    0.65
  -3  -4  13   11.75    0.62
   4   4 -13   12.61    0.72
  -4  -4 -13   14.03    0.68
  -4   4  13   13.58    0.73
  -4  -4  13   14.06    0.70
  -4   4 -13   13.33    0.71
  -4   4 -13   15.16    0.61
   4  -4 -13   14.50    0.69
  -5   4  13    5.27    0.50
  -5  -4 -13    5.13    0.47
   5  -4  13    5.47    0.35
   5   4 -13    4.50    0.50
  -5   4 -13    4.25    0.49
   5  -4 -13    5.41    0.49
  -5  -4  13    3.80    0.43
   6   4 -13   17.60    0.89
  -6  -4 -13   16.80    0.82
  -6   4  13   17.44    0.91
  -6  -4  13   15.94    0.84
   6  -4 -13   15.33    0.82
  -6   4 -13   15.40    0.87
  -7   4  13    0.99    0.33
   7   4 -13    1.06    0.29
  -7  -4 -13    0.96    0.31
   7  -4 -13    0.92    0.33
  -7  -4  13    0.78    0.34
  -7   4 -13    1.60    0.40
  -8  -4 -13    5.39    0.59
   8   4 -13    6.25    0.65
  -8   4  13    6.40    0.69
  -8   4 -13    5.65    0.61
   8  -4 -13    5.46    0.61
  -8  -4  13    6.03    0.62
   9   4 -13   22.76    1.18
  -9  -4 -13   19.09    1.06
  -9   4  13   21.90    1.17
  -9  -4  13   21.20    1.12
   9  -4 -13   23.18    1.17
  -9   4 -13   23.13    1.18
 -10   4  13    2.44    0.59
 -10  -4 -13    1.96    0.45
  10   4 -13    1.18    0.45
 -10   4 -13    2.01    0.56
  10  -4 -13    1.30    0.46
 -10  -4  13    0.92    0.45
 -11  -4 -13    1.53    0.45
 -11   4  13    1.04    0.58
  11   4 -13    1.24    0.48
  11  -4 -13    1.21    0.48
 -11  -4  13    0.67    0.49
 -11   4 -13    1.65    0.56
 -12  -4 -13    0.57    0.43
  12   4 -13   -0.05    0.42
 -12   4  13    0.49    0.45
  12  -4 -13    0.81    0.41
 -12  -4  13    0.44    0.50
 -12   4 -13    1.02    0.58
   0  -5 -13    1.50    0.19
   0   5  13    1.55    0.25
   0   5 -13    1.26    0.24
   0  -5  13    1.37    0.24
   1   5 -13   18.53    0.81
  -1   5  13   20.41    0.80
  -1  -5 -13   19.34    0.67
  -1  -5  13   18.69    0.77
  -1   5 -13   18.11    0.77
   1   5  13   19.12    0.77
  -1   5 -13   16.36    0.78
   2   5 -13    7.60    0.52
  -2   5  13    8.22    0.50
  -2   5 -13    8.49    0.47
   2   5  13    8.96    0.49
  -2   5 -13    7.15    0.50
  -2  -5  13    7.97    0.48
   2  -5 -13    8.29    0.46
  -3  -5 -13   25.88    1.00
   3   5 -13   27.64    1.12
  -3   5  13   25.85    1.04
  -3  -5  13   25.69    1.01
   3  -5 -13   25.40    1.01
  -3   5 -13   27.80    1.09
  -4   5  13    3.01    0.39
  -4  -5 -13    2.55    0.33
   4   5 -13    2.48    0.39
   4  -5 -13    2.18    0.33
  -4   5 -13    3.30    0.32
  -4   5 -13    2.38    0.39
  -4  -5  13    2.78    0.35
   5   5 -13   10.63    0.65
  -5   5  13    9.06    0.65
  -5  -5 -13   10.63    0.60
   5  -5  13   10.81    0.54
   5  -5 -13   10.23    0.63
  -5   5 -13   10.47    0.63
  -5  -5  13    9.58    0.57
  -6   5  13    6.97    0.64
   6   5 -13    7.05    0.60
  -6  -5 -13    6.81    0.51
   6  -5 -13    6.88    0.51
  -6  -5  13    6.08    0.55
  -6   5 -13    5.73    0.56
  -7  -5 -13    1.43    0.32
   7   5 -13    1.29    0.32
  -7   5  13    1.25    0.39
  -7  -5  13    1.60    0.37
  -7   5 -13    1.67    0.35
   7  -5 -13    1.66    0.37
  -8   5  13    4.31    0.59
   8   5 -13    4.71    0.59
  -8  -5 -13    3.26    0.47
   8  -5 -13    4.48    0.56
  -8   5 -13    3.80    0.56
  -8  -5  13    4.03    0.53
  -9  -5 -13    2.65    0.45
  -9   5  13    2.42    0.55
   9   5 -13    2.62    0.50
   9  -5 -13    2.44    0.51
  -9   5 -13    2.94    0.57
  -9  -5  13    1.69    0.45
 -10   5  13    0.58    0.50
  10   5 -13    1.17    0.46
 -10  -5 -13    0.84    0.37
  10  -5 -13    0.71    0.35
 -10  -5  13    0.72    0.43
 -10   5 -13    1.25    0.42
 -11   5  13   -0.29    0.48
 -11  -5 -13    0.09    0.37
  11   5 -13    0.08    0.40
 -11  -5  13    0.14    0.44
 -11   5 -13    0.57    0.51
  11  -5 -13    0.95    0.48
   0  -6 -13    1.32    0.20
   0   6 -13    1.05    0.24
   0   6  13    0.65    0.19
   0  -6  13    1.12    0.23
   1   6 -13   73.42    2.46
  -1  -6 -13   81.59    2.33
  -1   6  13   79.19    2.40
  -1   6 -13   74.79    2.43
  -1   6 -13   75.90    2.42
  -1  -6  13   73.41    2.38
  -2   6  13    0.88    0.22
   2   6 -13    0.56    0.24
  -2  -6  13    0.87    0.22
  -2   6 -13    0.46    0.24
   2  -6 -13    0.93    0.22
  -2   6 -13    0.90    0.23
   2   6  13    0.23    0.11
  -3   6  13   24.80    1.03
   3   6 -13   24.41    1.10
   3  -6 -13   26.00    1.04
  -3  -6  13   26.88    1.02
  -3   6 -13   28.96    1.05
  -3   6 -13   27.88    1.10
   4   6 -13    6.35    0.59
  -4  -6 -13    4.96    0.42
  -4   6  13    5.25    0.49
  -4   6 -13    5.60    0.52
  -4  -6  13    5.01    0.43
   4  -6 -13    4.84    0.40
   5  -6  13   19.88    0.85
  -5  -6 -13   20.54    0.86
   5   6 -13   20.36    1.00
  -5   6  13   18.44    0.92
  -5  -6  13   18.17    0.86
   5  -6 -13   18.03    0.90
  -5   6 -13   19.64    0.92
  -6   6  13    2.40    0.43
   6   6 -13    3.38    0.49
   6  -6  13    2.91    0.34
  -6  -6 -13    2.53    0.35
   6  -6 -13    2.91    0.39
  -6   6 -13    2.89    0.41
  -6  -6  13    2.20    0.38
   7   6 -13    1.45    0.35
  -7   6  13    1.95    0.45
  -7  -6 -13    1.46    0.31
  -7  -6  13    1.26    0.36
   7  -6 -13    3.11    0.47
  -7   6 -13    2.14    0.43
   8   6 -13   -0.01    0.33
  -8  -6 -13    0.56    0.27
  -8   6  13   -0.23    0.35
  -8   6 -13    0.32    0.33
   8  -6 -13   -0.07    0.23
  -8  -6  13   -0.45    0.28
   9   6 -13    1.16    0.37
  -9   6  13    0.68    0.44
  -9  -6 -13    0.47    0.30
  -9  -6  13    0.50    0.37
   9  -6 -13    0.42    0.39
  -9   6 -13    0.85    0.44
 -10   6  13   -0.45    0.30
  10   6 -13    0.01    0.29
 -10  -6  13   -0.11    0.36
 -10   6 -13    0.83    0.45
  10  -6 -13   -0.06    0.38
 -11   6  13    0.87    0.45
  11   6 -13    0.64    0.46
 -11  -6  13    0.16    0.45
  11  -6 -13    0.08    0.42
 -11   6 -13    1.11    0.56
   0   7  13    6.10    0.42
   0  -7  13    5.92    0.40
   0   7 -13    5.25    0.45
   0  -7 -13    5.62    0.38
   1   7 -13    6.33    0.47
   1  -7  13    6.18    0.43
  -1  -7 -13    6.62    0.41
  -1   7 -13    6.55    0.49
  -1  -7  13    6.40    0.43
   1  -7 -13    6.87    0.44
   1   7  13    7.12    0.45
   2   7 -13   47.11    1.77
  -2   7  13   46.50    1.67
  -2   7 -13   49.65    1.72
  -2  -7  13   47.89    1.63
   2   7  13   53.18    1.65
  -2   7 -13   49.12    1.69
   2  -7 -13   49.25    1.67
   3   7 -13   -0.17    0.23
  -3   7  13    0.35    0.20
  -3   7 -13   -0.09    0.19
   3   7  13    0.29    0.19
  -3   7 -13   -0.20    0.19
  -3  -7  13   -0.02    0.18
   3  -7 -13    0.06    0.21
  -4  -7 -13   18.25    0.78
  -4   7  13   18.80    0.86
   4   7 -13   16.93    0.90
   4  -7 -13   18.33    0.86
  -4   7 -13   17.24    0.81
  -4   7 -13   17.30    0.84
  -4  -7  13   17.86    0.81
  -5  -7 -13    1.44    0.26
   5   7 -13    0.89    0.35
   5  -7  13    1.26    0.29
  -5   7  13    1.16    0.34
   5  -7 -13    1.43    0.29
  -5   7 -13    0.78    0.30
  -5  -7  13    1.42    0.30
  -6  -7 -13    1.51    0.29
   6   7 -13    0.50    0.33
  -6   7  13    1.04    0.35
   6  -7  13    1.17    0.27
  -6   7 -13    0.83    0.32
  -6  -7  13    1.36    0.32
   6  -7 -13    1.06    0.35
   7   7 -13    4.89    0.59
  -7   7  13    5.28    0.60
  -7  -7  13    5.26    0.53
  -7   7 -13    5.59    0.59
   7  -7 -13    4.67    0.53
  -8   7  13    8.76    0.82
   8   7 -13    8.91    0.72
  -8  -7  13    9.49    0.75
  -8   7 -13    9.88    0.78
   8  -7 -13    9.51    0.77
   9   7 -13    3.28    0.58
  -9   7  13    3.17    0.61
  -9   7 -13    3.43    0.58
   9  -7 -13    4.05    0.61
  10   7 -13    3.53    0.65
 -10   7  13    3.26    0.65
 -10   7 -13    4.82    0.70
  10  -7 -13    3.52    0.63
 -11   7  13    2.26    0.64
  11   7 -13    1.98    0.58
 -11   7 -13    2.40    0.63
  11  -7 -13    1.84    0.58
   0   8 -13    0.74    0.27
   0   8  13    0.97    0.23
   0  -8  13    0.75    0.23
   1   8 -13    7.49    0.58
  -1   8  13    8.33    0.49
  -1  -8 -13    7.78    0.46
   1  -8  13    7.08    0.48
  -1  -8  13    7.38    0.46
  -1   8 -13    6.35    0.49
   1  -8 -13    7.14    0.49
  -2   8  13    9.38    0.52
   2   8 -13    7.92    0.62
   2  -8 -13    8.39    0.55
  -2   8 -13    9.11    0.55
  -2  -8  13    9.29    0.51
  -2   8 -13    8.61    0.56
   3   8 -13    2.22    0.38
  -3  -8  13    2.07    0.30
   3  -8 -13    2.64    0.35
  -3   8 -13    2.46    0.38
  -3   8 -13    2.61    0.36
  -4   8  13    3.38    0.42
   4   8 -13    2.57    0.42
  -4  -8  13    3.40    0.38
  -4   8 -13    3.54    0.44
   4  -8 -13    3.48    0.44
  -4   8 -13    3.39    0.43
  -5   8  13    1.41    0.35
   5   8 -13    1.89    0.43
   5  -8  13    1.48    0.32
  -5   8 -13    1.40    0.35
   5  -8 -13    1.06    0.33
   6   8 -13   37.99    1.57
   6  -8  13   34.95    1.37
  -6   8  13   33.70    1.41
   6  -8 -13   34.39    1.44
  -6   8 -13   33.57    1.43
   7   8 -13    1.55    0.39
  -7   8  13    0.52    0.27
   7  -8 -13    0.90    0.31
  -7   8 -13    0.79    0.36
  -8   8  13    9.01    0.83
   8   8 -13   10.63    0.86
  -8   8 -13   10.07    0.80
   8  -8 -13   11.34    0.84
   9   8 -13    1.35    0.46
  -9   8  13    1.28    0.50
   9  -8 -13    1.52    0.48
  -9   8 -13    0.61    0.41
  10   8 -13    4.26    0.68
 -10   8  13    3.16    0.63
  10  -8 -13    3.38    0.58
 -10   8 -13    3.67    0.64
   0   9 -13    1.24    0.30
   0  -9 -13    1.69    0.31
   1   9 -13    0.40    0.27
   1  -9  13    0.44    0.22
  -1  -9 -13    0.27    0.21
  -1   9 -13    0.62    0.24
   1  -9 -13    0.07    0.25
   2   9 -13    7.15    0.57
  -2   9 -13    7.28    0.59
   2  -9 -13    7.71    0.55
   3   9 -13    2.93    0.49
  -3   9 -13    3.11    0.44
   3  -9 -13    2.70    0.37
   4   9 -13    2.68    0.49
   4  -9 -13    2.44    0.37
  -4   9 -13    2.90    0.41
  -4   9 -13    3.52    0.46
   5  -9  13    9.30    0.67
   5   9 -13    9.44    0.71
  -5   9  13    9.07    0.64
  -5   9 -13   10.10    0.68
   5  -9 -13    8.90    0.68
   6  -9  13    1.86    0.38
  -6   9  13    1.15    0.36
   6   9 -13    1.48    0.38
  -6   9 -13    1.23    0.35
   6  -9 -13    1.39    0.40
  -7   9  13    0.29    0.34
   7  -9  13    1.17    0.33
   7   9 -13    1.18    0.45
   7  -9 -13    1.46    0.43
  -7   9 -13    1.20    0.38
  -8   9  13   -0.34    0.35
   8   9 -13    0.69    0.41
  -8   9 -13    0.45    0.34
   8  -9 -13   -0.14    0.26
   9   9 -13    0.73    0.46
  -9   9  13    0.67    0.45
   9  -9 -13    0.83    0.44
  -9   9 -13    0.83    0.42
  10   9 -13    0.60    0.45
 -10   9  13    1.17    0.49
 -10   9 -13    0.54    0.43
  10  -9 -13    0.16    0.46
   0 -10 -13   27.69    1.12
   0  10 -13   25.13    1.19
   1  10 -13    2.26    0.39
   1 -10 -13    2.23    0.39
  -1  10 -13    3.03    0.42
   2  10 -13    1.06    0.37
   2 -10 -13    0.81    0.31
  -2  10 -13    1.45    0.36
   3  10 -13   10.95    0.76
  -3  10 -13   11.59    0.77
   3 -10 -13   10.77    0.72
   4  10 -13    2.21    0.44
   4 -10 -13    2.68    0.47
  -4  10 -13    2.74    0.42
   5 -10  13   15.62    0.92
   5  10 -13   15.80    1.04
   5 -10 -13   15.49    0.92
   6 -10  13    3.27    0.49
   6  10 -13    3.10    0.57
   6 -10 -13    2.00    0.41
   7 -10  13    5.87    0.62
   7  10 -13    7.49    0.78
   7 -10 -13    6.39    0.71
  -7  10 -13    6.97    0.69
   8  10 -13    7.09    0.82
  -8  10 -13    5.50    0.65
   8 -10 -13    4.59    0.67
   9  10 -13    0.09    0.32
   9 -10 -13   -0.26    0.39
  -9  10 -13    0.26    0.37
   0  11 -13   14.98    0.92
   0 -11 -13   15.47    0.83
   1  11 -13   10.24    0.77
   1 -11 -13   10.62    0.71
  -1  11 -13   10.06    0.71
   2  11 -13    8.10    0.66
  -2  11 -13    8.17    0.69
   2 -11 -13    7.28    0.62
   3  11 -13   12.22    0.84
   3 -11 -13   12.21    0.80
  -3  11 -13   12.16    0.83
   4  11 -13   18.31    1.11
  -4  11 -13   15.91    0.97
   4 -11 -13   17.11    0.98
   5 -11  13    2.31    0.48
   5  11 -13    1.91    0.53
   5 -11 -13    2.86    0.51
   6 -11  13    1.47    0.42
   6  11 -13    0.82    0.39
   6 -11 -13    1.15    0.37
   7  11 -13    4.21    0.69
   7 -11  13    3.38    0.54
   7 -11 -13    3.27    0.59
   8  11 -13    1.40    0.52
   8 -11 -13    1.42    0.53
   0  12 -13    0.17    0.27
   0 -12 -13    0.33    0.30
   1  12 -13    2.41    0.52
  -1  12 -13    3.74    0.52
   1 -12 -13    3.69    0.51
   2  12 -13   10.45    0.80
  -2  12 -13   11.30    0.84
   2 -12 -13   11.90    0.75
   3  12 -13   10.89    0.83
  -3  12 -13    9.14    0.79
   3 -12 -13    9.94    0.78
   4  12 -13   12.80    0.99
   4 -12 -13   11.24    0.85
  -4  12 -13   10.76    0.86
   5  12 -13    1.82    0.47
   5 -12  13    0.54    0.41
   5 -12 -13    1.16    0.45
   6  12 -13    0.91    0.41
   6 -12  13    0.99    0.43
   6 -12 -13    0.54    0.34
   7  12 -13    1.39    0.53
   7 -12  13    0.43    0.39
   7 -12 -13    0.92    0.47
   8  12 -13    0.44    0.46
   8 -12 -13   -0.09    0.42
   0  13 -13    2.22    0.53
   1  13 -13    2.31    0.56
   1 -13 -13    3.01    0.51
  -1  13 -13    3.50    0.54
   2  13 -13    1.16    0.49
  -2  13 -13   -0.01    0.28
   2 -13 -13    0.09    0.33
   3  13 -13    6.72    0.82
  -3  13 -13    5.43    0.70
   3 -13 -13    5.20    0.66
   4  13 -13    2.16    0.57
  -4  13 -13    2.99    0.57
   4 -13 -13    1.76    0.43
   5 -13  13   -0.60    0.34
   5  13 -13    0.62    0.38
   5 -13 -13   -0.20    0.38
   6 -13  13    3.83    0.65
   6  13 -13    4.03    0.72
   6 -13 -13    3.75    0.66
   0  14 -13    0.13    0.41
   1  14 -13    2.39    0.52
  -1  14 -13    3.05    0.59
   1 -14 -13    3.21    0.56
   2  14 -13    5.98    0.76
   2 -14 -13    5.47    0.69
  -2  14 -13    6.69    0.79
   3  14 -13    2.85    0.67
  -3  14 -13    1.70    0.54
   3 -14 -13    2.61    0.56
   4  14 -13    1.65    0.48
   4 -14 -13    0.53    0.45
  -4  14 -13    1.10    0.49
   5 -14  13   -0.39    0.34
   5  14 -13    0.20    0.37
   5 -14 -13    0.11    0.43
   0  15 -13    0.00    0.42
   1  15 -13    3.19    0.69
  -1  15 -13    4.44    0.73
   2  15 -13    1.40    0.59
  -2  15 -13    1.19    0.52
   2 -15 -13    1.88    0.51
   3  15 -13    3.02    0.62
  -3  15 -13    3.06    0.57
   3 -15 -13    2.48    0.58
   0   0 -14    9.30    0.42
   0   0  14   10.01    0.54
   1   0  14   39.17    1.38
  -1   0  14   39.96    1.39
  -1   0 -14   38.99    1.21
  -2   0  14   66.03    2.22
   2   0 -14   65.53    2.16
  -2   0 -14   68.75    2.25
  -2   0 -14   76.09    2.01
  -3   0 -14   24.51    0.99
  -3   0  14   24.18    1.01
   3   0 -14   24.02    0.93
   4   0 -14    8.51    0.52
  -4   0  14    7.54    0.57
  -4   0 -14    8.55    0.53
  -5   0  14   50.56    1.85
  -5   0 -14   51.32    1.84
   5   0 -14   54.92    1.83
  -6   0  14   31.71    1.31
  -6   0 -14   32.66    1.31
   6   0 -14   31.38    1.27
  -7   0 -14    2.15    0.43
  -7   0  14    3.04    0.45
   7   0 -14    3.09    0.45
   8   0 -14    0.15    0.30
  -8   0  14    1.26    0.44
  -8   0 -14    0.75    0.31
  -9   0 -14    0.69    0.34
   9   0 -14    0.66    0.36
  -9   0  14    0.47    0.32
 -10   0  14    0.37    0.48
  10   0 -14    1.15    0.44
 -10   0 -14    0.84    0.45
 -11   0  14    1.06    0.58
  11   0 -14    1.17    0.50
 -11   0 -14    0.65    0.39
 -12   0  14    0.59    0.44
 -12   0 -14    0.03    0.48
  12   0 -14    0.29    0.45
   0   1 -14    0.38    0.12
   0   1  14    0.00    0.13
   0  -1  14   -0.16    0.16
   0  -1 -14    0.06    0.10
   1   1 -14   19.36    0.76
  -1   1  14   20.02    0.84
  -1  -1 -14   21.54    0.67
  -1   1 -14   19.66    0.84
  -1  -1  14   19.99    0.85
  -1   1 -14   21.72    0.71
   1  -1 -14   19.72    0.74
   1   1  14   20.21    0.85
   2   1 -14   14.08    0.63
  -2  -1 -14   13.83    0.69
  -2   1  14   14.78    0.71
  -2  -1  14   13.15    0.67
  -2   1 -14   14.22    0.50
  -2   1 -14   14.77    0.69
   2  -1 -14   13.40    0.60
   3   1 -14   34.34    1.28
  -3   1  14   36.45    1.35
  -3  -1 -14   36.86    1.35
  -3  -1  14   36.80    1.35
   3  -1 -14   35.61    1.27
  -3   1 -14   37.81    1.37
   4   1 -14    9.19    0.56
  -4  -1 -14    9.09    0.55
  -4   1  14    8.97    0.61
  -4  -1  14    9.60    0.61
   4  -1 -14    9.23    0.54
  -4   1 -14    9.93    0.61
  -5  -1 -14    5.19    0.44
   5   1 -14    5.08    0.42
  -5   1  14    5.23    0.53
   5  -1 -14    5.43    0.50
  -5   1 -14    4.92    0.51
  -5  -1  14    6.18    0.47
  -6   1  14   21.48    1.03
   6   1 -14   18.75    0.94
  -6  -1 -14   18.67    0.93
  -6  -1  14   20.09    0.99
  -6   1 -14   20.41    1.00
   6  -1 -14   21.45    0.97
  -7  -1 -14    1.12    0.36
   7   1 -14    0.74    0.32
  -7   1  14    0.34    0.35
  -7  -1  14    0.80    0.37
  -7   1 -14    1.17    0.38
   7  -1 -14    1.46    0.37
  -8  -1 -14    8.98    0.72
   8   1 -14    8.78    0.64
  -8   1  14    9.06    0.70
  -8   1 -14    7.88    0.75
   8  -1 -14    7.76    0.67
  -8  -1  14    7.53    0.73
   9   1 -14    3.61    0.56
  -9  -1 -14    3.97    0.59
  -9   1  14    2.83    0.57
   9  -1 -14    2.75    0.50
  -9  -1  14    3.60    0.58
  -9   1 -14    2.03    0.52
  10   1 -14    0.25    0.36
 -10  -1 -14    0.52    0.31
 -10   1  14   -0.01    0.32
 -10  -1  14   -0.19    0.44
 -10   1 -14   -0.25    0.28
  10  -1 -14   -0.31    0.33
 -11   1  14    2.68    0.66
  11   1 -14    1.98    0.47
 -11  -1 -14    2.17    0.56
 -11   1 -14    2.06    0.59
  11  -1 -14    1.59    0.52
 -11  -1  14    2.38    0.64
 -12  -1 -14    1.49    0.54
  12   1 -14    0.96    0.46
 -12   1  14    1.56    0.63
 -12   1 -14    0.66    0.42
  12  -1 -14    0.15    0.46
 -12  -1  14    0.58    0.43
   0  -2  14  143.70    4.32
   0  -2 -14  147.38    4.19
   0   2 -14  146.39    4.24
   0   2  14  144.31    4.31
  -1   2  14   14.50    0.69
   1   2 -14   14.95    0.63
  -1  -2 -14   15.24    0.51
  -1   2 -14   14.78    0.57
   1   2  14   13.37    0.65
  -1  -2  14   14.43    0.67
  -1   2 -14   14.01    0.69
   1  -2 -14   14.38    0.58
  -2   2  14   43.62    1.57
  -2  -2 -14   47.26    1.59
   2   2 -14   45.88    1.55
  -2  -2  14   46.21    1.59
  -2   2 -14   48.39    1.44
   2  -2 -14   45.36    1.50
  -2   2 -14   45.07    1.61
  -3   2  14   28.08    1.11
  -3  -2 -14   27.91    1.10
   3   2 -14   28.19    1.09
  -3   2 -14   26.78    1.11
  -3   2 -14   31.32    0.93
   3  -2 -14   27.87    1.05
  -3  -2  14   27.76    1.11
  -4   2  14   52.70    1.83
  -4  -2 -14   52.32    1.80
   4   2 -14   52.11    1.80
  -4   2 -14   48.97    1.80
   4  -2 -14   52.60    1.76
  -4  -2  14   54.25    1.82
  -5  -2 -14    6.98    0.54
   5   2 -14    6.03    0.46
  -5   2  14    7.36    0.58
  -5   2 -14    5.68    0.48
   5  -2 -14    5.36    0.50
  -5  -2  14    6.47    0.54
   6   2 -14   19.28    0.94
  -6   2  14   17.67    0.97
  -6  -2 -14   18.68    0.91
  -6  -2  14   20.40    0.98
  -6   2 -14   20.95    1.00
   6  -2 -14   20.43    0.95
  -7   2  14   22.71    1.14
   7   2 -14   22.30    1.04
  -7  -2 -14   22.17    1.07
  -7  -2  14   22.10    1.08
  -7   2 -14   21.56    1.06
   7  -2 -14   20.72    1.03
  -8  -2 -14    2.96    0.49
   8   2 -14    3.21    0.45
  -8   2  14    2.86    0.49
  -8   2 -14    4.29    0.59
   8  -2 -14    4.98    0.53
  -8  -2  14    3.78    0.56
   9   2 -14   13.73    0.91
  -9  -2 -14   14.48    0.92
  -9   2  14   13.61    0.90
   9  -2 -14   13.42    0.90
  -9   2 -14   13.61    0.97
  -9  -2  14   12.94    0.92
  10   2 -14    2.32    0.46
 -10  -2 -14    2.14    0.51
 -10   2  14    2.51    0.61
  10  -2 -14    2.21    0.45
 -10   2 -14    1.93    0.47
 -10  -2  14    1.30    0.51
  11   2 -14    1.02    0.39
 -11  -2 -14    1.45    0.49
 -11   2  14    1.08    0.60
  11  -2 -14    1.36    0.42
 -11   2 -14    0.96    0.55
 -11  -2  14    1.91    0.60
 -12  -2 -14    0.17    0.45
  12   2 -14    0.41    0.45
 -12   2  14   -0.76    0.50
  12  -2 -14    0.16    0.47
 -12  -2  14   -0.12    0.49
 -12   2 -14   -0.07    0.48
   0  -3 -14    9.21    0.40
   0   3  14    8.49    0.48
   0   3 -14    7.92    0.42
   0  -3  14    8.80    0.51
  -1  -3 -14    7.30    0.31
   1   3 -14    6.36    0.41
  -1   3  14    6.23    0.45
  -1   3 -14    7.97    0.39
  -1   3 -14    6.12    0.43
  -1  -3  14    7.16    0.47
   1   3  14    7.01    0.46
   1  -3 -14    7.29    0.38
  -2  -3 -14   19.94    0.83
   2   3 -14   19.30    0.82
  -2   3  14   19.75    0.83
  -2   3 -14   20.43    0.74
  -2  -3  14   20.29    0.85
  -2   3 -14   18.53    0.86
   2  -3 -14   18.23    0.75
   3   3 -14   17.43    0.79
  -3   3  14   16.45    0.78
  -3  -3 -14   17.82    0.79
  -3  -3  14   16.19    0.78
  -3   3 -14   16.72    0.81
  -3   3 -14   17.80    0.65
   3  -3 -14   16.25    0.72
  -4   3  14    5.95    0.53
   4   3 -14    5.79    0.44
  -4  -3 -14    5.97    0.47
  -4   3 -14    6.56    0.48
   4  -3 -14    5.57    0.41
  -4  -3  14    5.97    0.50
  -5   3  14   14.65    0.77
   5   3 -14   13.94    0.74
  -5  -3 -14   14.83    0.74
  -5  -3  14   15.03    0.78
  -5   3 -14   13.33    0.78
   5  -3 -14   15.61    0.77
  -6   3  14   13.91    0.80
  -6  -3 -14   14.27    0.79
   6   3 -14   14.89    0.81
  -6  -3  14   13.86    0.80
  -6   3 -14   13.70    0.82
   6  -3 -14   14.50    0.79
  -7   3  14    8.09    0.73
   7   3 -14    6.70    0.56
  -7  -3 -14    8.42    0.58
   7  -3 -14    7.63    0.57
  -7   3 -14    8.02    0.62
  -7  -3  14    7.83    0.66
   8   3 -14    2.50    0.42
  -8   3  14    3.11    0.50
  -8  -3 -14    1.86    0.37
  -8   3 -14    2.58    0.51
   8  -3 -14    2.69    0.46
  -8  -3  14    1.98    0.47
  -9  -3 -14    2.00    0.46
   9   3 -14    2.29    0.44
  -9   3  14    1.95    0.53
  -9   3 -14    2.18    0.52
  -9  -3  14    1.80    0.41
   9  -3 -14    2.70    0.52
  10   3 -14    7.32    0.78
 -10   3  14    8.10    0.89
 -10  -3 -14    7.59    0.76
 -10  -3  14    6.81    0.72
  10  -3 -14    8.15    0.81
 -10   3 -14    8.49    0.85
 -11   3  14    1.24    0.48
  11   3 -14    1.99    0.53
 -11  -3 -14    0.66    0.44
  11  -3 -14    1.06    0.46
 -11   3 -14    2.08    0.61
 -11  -3  14    1.48    0.46
 -12  -3 -14    3.37    0.64
 -12   3  14    2.48    0.72
  12   3 -14    4.37    0.72
  12  -3 -14    2.56    0.61
 -12   3 -14    2.84    0.68
 -12  -3  14    1.60    0.61
   0  -4 -14   51.43    1.56
   0   4  14   49.94    1.68
   0  -4  14   49.42    1.67
   0   4 -14   49.84    1.65
  -1  -4 -14   39.54    1.21
  -1   4  14   38.42    1.37
   1   4 -14   36.37    1.35
  -1   4 -14   40.67    1.41
  -1  -4  14   39.60    1.38
   1   4  14   40.76    1.37
   1  -4 -14   38.05    1.28
  -2   4  14   24.47    1.02
   2   4 -14   24.01    1.01
  -2  -4  14   27.23    1.03
   2   4  14   26.60    1.02
   2  -4 -14   26.87    0.96
  -2   4 -14   27.90    0.97
  -2   4 -14   25.51    1.06
   3   4 -14   19.55    0.88
  -3   4  14   19.41    0.86
  -3  -4 -14   19.99    0.85
   3  -4 -14   19.41    0.81
  -3   4 -14   20.95    0.77
  -3  -4  14   20.76    0.87
  -3   4 -14   19.29    0.88
   4   4 -14   25.11    1.07
  -4   4  14   24.08    1.04
  -4  -4 -14   24.06    1.03
  -4   4 -14   27.83    0.94
  -4  -4  14   27.00    1.07
  -4   4 -14   24.91    1.09
   4  -4 -14   25.71    1.03
  -5  -4 -14   18.33    0.87
  -5   4  14   18.61    0.94
   5   4 -14   20.85    0.97
   5  -4 -14   19.68    0.88
  -5   4 -14   19.53    0.96
  -5  -4  14   20.92    0.90
  -6   4  14   -0.13    0.30
   6   4 -14    0.14    0.26
  -6  -4 -14    0.31    0.26
  -6  -4  14   -0.12    0.20
   6  -4 -14   -0.27    0.16
  -6   4 -14   -0.09    0.26
   7   4 -14    5.79    0.61
  -7  -4 -14    6.07    0.57
  -7   4  14    6.37    0.63
   7  -4 -14    5.75    0.60
  -7  -4  14    5.84    0.59
  -7   4 -14    6.41    0.65
   8   4 -14    0.22    0.23
  -8   4  14   -0.02    0.27
  -8  -4 -14    0.50    0.30
  -8  -4  14    0.02    0.31
   8  -4 -14    0.19    0.32
  -8   4 -14    0.13    0.26
  -9   4  14    5.12    0.70
   9   4 -14    5.20    0.66
  -9  -4 -14    5.71    0.62
  -9   4 -14    5.55    0.66
  -9  -4  14    6.06    0.67
   9  -4 -14    4.27    0.60
 -10  -4 -14    6.19    0.70
  10   4 -14    5.97    0.70
 -10   4  14    7.09    0.84
 -10  -4  14    6.39    0.73
  10  -4 -14    7.10    0.78
 -10   4 -14    6.52    0.82
  11   4 -14   14.74    1.06
 -11   4  14   14.52    1.16
 -11  -4 -14   14.07    0.98
 -11   4 -14   14.94    1.05
 -11  -4  14   13.23    1.03
  11  -4 -14   14.41    1.04
 -12   4  14    1.25    0.52
  12   4 -14    1.67    0.57
  12  -4 -14    1.42    0.55
 -12   4 -14    1.27    0.49
   0   5 -14    5.33    0.41
   0  -5  14    6.57    0.44
   0  -5 -14    6.70    0.35
   0   5  14    6.12    0.43
  -1  -5 -14    3.88    0.26
   1   5 -14    3.71    0.37
  -1   5  14    4.20    0.39
  -1  -5  14    3.79    0.37
  -1   5 -14    4.67    0.36
   1   5  14    4.25    0.38
  -1   5 -14    4.17    0.35
  -2   5  14   16.71    0.77
   2   5 -14   16.93    0.79
  -2   5 -14   16.98    0.81
  -2  -5  14   17.35    0.77
   2  -5 -14   17.84    0.73
   2   5  14   17.87    0.77
  -3  -5 -14    2.70    0.33
   3   5 -14    3.36    0.42
  -3   5  14    3.22    0.38
  -3   5 -14    3.78    0.35
  -3  -5  14    3.28    0.37
   3  -5 -14    3.63    0.37
  -3   5 -14    3.63    0.43
  -4   5  14   13.31    0.72
  -4  -5 -14   13.56    0.68
   4   5 -14   12.35    0.74
  -4   5 -14   13.92    0.63
  -4  -5  14   12.81    0.68
   4  -5 -14   12.28    0.67
  -4   5 -14   12.92    0.71
  -5  -5 -14    0.49    0.24
   5   5 -14    0.61    0.30
   5  -5  14    0.58    0.19
  -5   5  14    0.16    0.29
  -5  -5  14    0.79    0.27
  -5   5 -14    0.83    0.26
   5  -5 -14    1.15    0.30
   6   5 -14   17.37    0.93
  -6   5  14   15.87    0.91
  -6  -5 -14   16.59    0.82
  -6   5 -14   15.74    0.89
  -6  -5  14   16.46    0.85
   6  -5 -14   17.41    0.88
  -7  -5 -14   18.31    0.91
   7   5 -14   20.28    1.03
  -7   5  14   17.87    1.02
  -7  -5  14   17.90    0.94
  -7   5 -14   17.75    0.96
   7  -5 -14   17.52    0.95
  -8   5  14    3.30    0.56
  -8  -5 -14    2.67    0.43
   8   5 -14    3.85    0.56
  -8   5 -14    3.66    0.57
   8  -5 -14    3.37    0.51
  -8  -5  14    3.49    0.50
  -9  -5 -14    8.83    0.66
  -9   5  14    9.44    0.78
   9   5 -14   11.66    0.86
  -9  -5  14    9.73    0.78
  -9   5 -14    9.60    0.90
   9  -5 -14    9.77    0.74
 -10  -5 -14    0.47    0.34
  10   5 -14    0.67    0.41
 -10   5  14    0.02    0.48
  10  -5 -14    0.50    0.34
 -10   5 -14    0.01    0.43
 -10  -5  14    0.92    0.47
 -11  -5 -14    4.10    0.60
  11   5 -14    4.53    0.64
 -11   5  14    4.13    0.76
 -11  -5  14    3.46    0.66
 -11   5 -14    4.80    0.78
  11  -5 -14    3.47    0.65
   0  -6 -14    5.77    0.37
   0  -6  14    5.31    0.41
   0   6  14    5.81    0.41
   0   6 -14    5.17    0.39
  -1  -6 -14   13.38    0.55
   1   6 -14   12.39    0.65
  -1   6  14   14.60    0.66
   1  -6  14   12.68    0.63
   1   6  14   13.53    0.64
  -1  -6  14   13.26    0.64
  -1   6 -14   12.26    0.64
  -2   6  14   32.56    1.21
   2   6 -14   32.69    1.29
   2  -6 -14   32.46    1.18
  -2  -6  14   32.36    1.20
  -2   6 -14   34.16    1.23
  -2   6 -14   30.94    1.24
   3   6 -14    9.00    0.60
  -3   6  14    9.90    0.59
  -3   6 -14    9.78    0.55
   3  -6 -14   10.09    0.57
  -3  -6  14    9.88    0.56
  -3   6 -14    8.99    0.61
   4   6 -14    6.19    0.51
  -4   6  14    5.91    0.53
  -4  -6 -14    6.04    0.44
  -4   6 -14    6.11    0.56
   4  -6 -14    5.98    0.44
  -4  -6  14    6.30    0.48
   5  -6  14    4.63    0.39
  -5  -6 -14    4.65    0.44
   5   6 -14    4.42    0.54
  -5   6  14    4.16    0.50
   5  -6 -14    4.90    0.50
  -5   6 -14    3.55    0.45
  -5  -6  14    4.62    0.45
  -6  -6 -14    6.89    0.52
  -6   6  14    8.98    0.68
   6   6 -14    7.87    0.66
  -6   6 -14    7.52    0.58
  -6  -6  14    7.25    0.59
   6  -6 -14    7.72    0.61
  -7   6  14    5.42    0.61
   7   6 -14    5.29    0.62
  -7  -6 -14    4.72    0.49
   7  -6 -14    6.09    0.58
  -7  -6  14    4.85    0.54
  -7   6 -14    5.43    0.58
  -8  -6 -14    0.36    0.27
   8   6 -14    1.29    0.44
  -8   6  14    0.91    0.34
   8  -6 -14    0.87    0.39
  -8  -6  14    0.87    0.37
  -8   6 -14    2.07    0.47
   9   6 -14    0.52    0.40
  -9  -6 -14    0.28    0.30
  -9   6  14    0.16    0.42
  -9   6 -14    0.12    0.38
  -9  -6  14    0.34    0.39
   9  -6 -14    0.72    0.41
  10   6 -14    7.53    0.80
 -10   6  14    7.63    0.87
 -10   6 -14    6.91    0.84
 -10  -6  14    6.40    0.72
  10  -6 -14    6.52    0.79
 -11   6  14    0.83    0.46
  11   6 -14    1.74    0.56
 -11  -6  14    0.22    0.47
  11  -6 -14    1.62    0.53
 -11   6 -14    2.05    0.61
   0   7 -14    0.31    0.22
   0  -7  14    0.89    0.23
   0  -7 -14    0.77    0.22
   1   7 -14    1.01    0.29
   1  -7  14    0.64    0.23
  -1  -7 -14    1.14    0.22
  -1  -7  14    1.07    0.24
   1  -7 -14    0.84    0.23
  -1   7 -14    1.17    0.28
   1   7  14    1.07    0.26
   2   7 -14    2.73    0.38
  -2   7  14    2.96    0.35
  -2  -7  14    2.67    0.33
  -2   7 -14    3.23    0.39
   2  -7 -14    2.40    0.33
  -2   7 -14    3.15    0.38
   2   7  14    3.25    0.35
   3   7 -14   12.90    0.77
  -3   7  14   12.19    0.66
   3   7  14   14.38    0.66
   3  -7 -14   11.30    0.65
  -3   7 -14   11.04    0.68
  -3   7 -14   12.10    0.66
  -3  -7  14   12.42    0.64
  -4   7  14   23.15    1.02
  -4  -7 -14   21.81    0.92
   4   7 -14   20.52    1.06
  -4   7 -14   25.39    1.01
  -4   7 -14   22.11    1.01
  -4  -7  14   25.17    0.99
   4  -7 -14   24.36    1.03
  -5  -7 -14   13.66    0.69
   5   7 -14   14.75    0.87
  -5   7  14   12.14    0.76
   5  -7  14   13.13    0.70
  -5  -7  14   14.44    0.73
   5  -7 -14   12.96    0.76
  -5   7 -14   12.14    0.77
   6   7 -14    2.31    0.46
  -6  -7 -14    2.04    0.33
  -6   7  14    1.52    0.41
  -6   7 -14    2.29    0.42
  -6  -7  14    2.31    0.40
   6  -7 -14    1.73    0.35
   7   7 -14    0.10    0.34
  -7   7  14   -0.13    0.32
   7  -7 -14    0.04    0.29
  -7   7 -14    0.21    0.24
  -7  -7  14    0.11    0.31
   8   7 -14   11.20    0.87
  -8   7  14   10.40    0.77
   8  -7 -14   10.08    0.74
  -8   7 -14   12.00    0.86
  -8  -7  14   11.34    0.77
   9   7 -14    5.32    0.71
  -9   7  14    5.04    0.70
  -9   7 -14    6.26    0.74
   9  -7 -14    4.59    0.65
 -10   7  14    5.77    0.79
  10   7 -14    5.22    0.73
 -10   7 -14    6.17    0.80
  10  -7 -14    4.69    0.70
 -11   7  14    0.48    0.55
  11   7 -14    0.15    0.45
  11  -7 -14    1.95    0.58
 -11   7 -14    1.54    0.47
   0  -8 -14   -0.03    0.20
   0   8 -14    0.15    0.18
   0  -8  14   -0.07    0.17
   0   8  14    0.27    0.21
   1   8 -14    8.72    0.57
  -1   8  14    7.98    0.49
   1  -8  14    7.84    0.52
  -1   8 -14    7.57    0.57
   1  -8 -14    7.46    0.50
  -1  -8  14    7.88    0.49
   2   8 -14    1.72    0.37
  -2   8 -14    1.85    0.35
  -2  -8  14    1.69    0.28
   2  -8 -14    1.61    0.32
  -2   8 -14    2.36    0.34
   3   8 -14    3.03    0.44
  -3   8  14    2.73    0.38
  -3   8 -14    2.95    0.40
   3  -8 -14    2.62    0.38
  -3   8 -14    2.99    0.40
  -3  -8  14    2.78    0.35
  -4   8  14   17.89    0.90
   4   8 -14   17.80    0.99
  -4   8 -14   19.89    0.95
  -4  -8  14   20.85    0.88
   4  -8 -14   20.62    0.95
  -4   8 -14   20.73    0.94
   5  -8  14    7.32    0.57
   5   8 -14    8.06    0.75
  -5   8  14    6.95    0.59
  -5   8 -14    8.14    0.63
   5  -8 -14    8.74    0.64
   6   8 -14    3.90    0.58
   6  -8  14    3.03    0.40
  -6   8  14    3.10    0.47
  -6   8 -14    3.96    0.51
   6  -8 -14    3.06    0.44
  -7   8  14   13.91    0.90
   7   8 -14   15.46    0.94
  -7   8 -14   15.72    0.93
   7  -8 -14   15.61    0.94
  -8   8  14    0.08    0.28
   8   8 -14   -0.15    0.26
   8  -8 -14   -0.03    0.25
  -8   8 -14    0.26    0.33
   9   8 -14    3.91    0.64
  -9   8  14    2.49    0.57
   9  -8 -14    3.28    0.60
  -9   8 -14    1.86    0.53
 -10   8  14    0.98    0.52
  10   8 -14    1.24    0.43
 -10   8 -14    1.41    0.54
  10  -8 -14    1.30    0.43
   0   9 -14    3.94    0.48
   1   9 -14    8.22    0.60
   1  -9  14    9.94    0.57
  -1   9 -14    7.84    0.62
   1  -9 -14    8.71    0.56
   2   9 -14   19.12    0.98
  -2   9 -14   20.61    0.98
   2  -9 -14   18.30    0.89
   3   9 -14   35.85    1.55
  -3   9 -14   36.42    1.46
  -3   9 -14   37.39    1.41
   3  -9 -14   36.51    1.43
   4   9 -14    8.46    0.78
  -4   9 -14    8.14    0.60
  -4   9 -14    6.78    0.62
   4  -9 -14    6.75    0.62
   5  -9  14    8.03    0.62
   5   9 -14    7.18    0.72
  -5   9  14    6.26    0.61
   5  -9 -14    6.39    0.62
  -5   9 -14    7.17    0.60
   6   9 -14    1.01    0.36
   6  -9  14    1.63    0.36
  -6   9  14    1.70    0.40
  -6   9 -14    1.43    0.39
   6  -9 -14    1.54    0.36
  -7   9  14    0.12    0.33
   7   9 -14   -0.34    0.33
   7  -9 -14    0.41    0.38
  -7   9 -14    0.10    0.31
  -8   9  14    3.46    0.58
   8   9 -14    3.54    0.64
  -8   9 -14    4.30    0.57
   8  -9 -14    3.97    0.62
   9   9 -14    1.72    0.54
  -9   9  14    0.93    0.49
   9  -9 -14    1.85    0.51
  -9   9 -14    2.08    0.50
 -10   9  14    3.46    0.67
  10   9 -14    3.99    0.69
 -10   9 -14    4.02    0.66
  10  -9 -14    3.24    0.65
   0 -10 -14    3.47    0.43
   0  10 -14    1.86    0.37
   1  10 -14    1.68    0.39
  -1  10 -14    1.71    0.39
   1 -10 -14    1.59    0.34
   2  10 -14    3.19    0.46
  -2  10 -14    2.06    0.40
   2 -10 -14    2.31    0.39
   3  10 -14    1.02    0.39
  -3  10 -14    1.43    0.38
   3 -10 -14    1.04    0.33
   4  10 -14    9.28    0.85
  -4  10 -14    8.00    0.66
   4 -10 -14    8.28    0.67
   5  10 -14    2.84    0.57
   5 -10  14    3.64    0.51
   5 -10 -14    2.98    0.45
   6 -10  14    5.60    0.61
   6  10 -14    5.19    0.72
   6 -10 -14    5.10    0.63
   7  10 -14    7.26    0.78
  -7  10 -14    7.36    0.71
   7 -10 -14    8.23    0.79
   8  10 -14    5.24    0.74
  -8  10 -14    4.29    0.60
   8 -10 -14    4.66    0.67
   9  10 -14    3.10    0.57
   9 -10 -14    3.02    0.63
  -9  10 -14    4.30    0.64
   0  11 -14   17.53    1.00
   1  11 -14    3.55    0.54
  -1  11 -14    3.84    0.55
   1 -11 -14    4.19    0.52
   2  11 -14   12.39    0.82
  -2  11 -14   12.94    0.84
   2 -11 -14   11.87    0.77
   3  11 -14   12.34    0.91
   3 -11 -14   10.76    0.77
  -3  11 -14   12.08    0.83
   4  11 -14    0.61    0.33
  -4  11 -14    0.59    0.35
   4 -11 -14    0.27    0.33
   5 -11  14    8.29    0.78
   5  11 -14    7.79    0.84
   5 -11 -14    8.23    0.78
   6 -11  14    2.23    0.47
   6  11 -14    1.80    0.54
   6 -11 -14    2.12    0.49
   7  11 -14    5.79    0.80
   7 -11 -14    5.50    0.67
   8  11 -14    0.07    0.32
   8 -11 -14   -0.17    0.40
   0  12 -14    4.26    0.59
   1  12 -14    6.69    0.71
  -1  12 -14    6.32    0.71
   1 -12 -14    6.77    0.65
   2  12 -14    9.88    0.92
   2 -12 -14   12.66    0.81
  -2  12 -14   11.39    0.79
   3  12 -14    0.77    0.44
  -3  12 -14    0.67    0.40
   3 -12 -14    0.08    0.33
   4  12 -14    0.95    0.39
   4 -12 -14    0.65    0.39
  -4  12 -14    0.28    0.38
   5 -12  14    0.88    0.42
   5  12 -14    0.91    0.47
   5 -12 -14    0.58    0.40
   6 -12  14    0.67    0.39
   6  12 -14   -0.11    0.32
   6 -12 -14    1.46    0.48
   7  12 -14    2.76    0.64
   7 -12 -14    1.23    0.50
   0  13 -14    1.98    0.46
   1  13 -14    2.73    0.55
  -1  13 -14    2.12    0.51
   2  13 -14    2.21    0.57
  -2  13 -14    1.87    0.49
   2 -13 -14    2.64    0.49
   3  13 -14    0.63    0.47
   3 -13 -14    0.57    0.39
  -3  13 -14    0.16    0.38
   4  13 -14    5.66    0.74
   4 -13 -14    5.32    0.68
  -4  13 -14    6.01    0.75
   5  13 -14    0.72    0.50
   5 -13  14    1.75    0.49
   5 -13 -14    1.75    0.50
   6 -13  14    2.75    0.58
   6  13 -14    2.56    0.59
   6 -13 -14    2.40    0.57
   0  14 -14    4.29    0.64
   1  14 -14   11.91    0.99
  -1  14 -14    9.10    0.93
   2  14 -14    9.31    0.99
   2 -14 -14    7.74    0.81
  -2  14 -14    8.00    0.87
   3  14 -14    2.11    0.61
  -3  14 -14    1.77    0.53
   3 -14 -14    2.12    0.51
   4  14 -14    2.26    0.60
  -4  14 -14    3.36    0.62
   4 -14 -14    3.04    0.59
   5 -14  14    1.32    0.51
   5  14 -14    0.42    0.50
   5 -14 -14    0.77    0.49
   0  15 -14   -0.31    0.40
   1  15 -14    1.21    0.46
  -1  15 -14    1.23    0.52
   2  15 -14    1.16    0.57
  -2  15 -14    1.26    0.44
   0   0  15   -0.14    0.18
   0   0 -15    0.14    0.11
   1   0  15   10.09    0.58
  -1   0 -15   10.01    0.40
   1   0 -15    9.97    0.47
  -1   0  15   10.18    0.58
  -2   0  15    1.11    0.23
  -2   0 -15    1.36    0.29
   2   0 -15    1.30    0.23
   3   0 -15   25.02    0.97
  -3   0  15   24.66    1.02
  -3   0 -15   24.97    1.03
   4   0 -15   -0.05    0.14
  -4   0  15   -0.17    0.25
  -4   0 -15    0.27    0.24
  -5   0  15    0.52    0.31
   5   0 -15    0.41    0.25
  -5   0 -15    0.30    0.26
  -6   0  15    1.20    0.31
  -6   0 -15    1.93    0.40
   6   0 -15    1.04    0.32
  -7   0  15    8.86    0.66
  -7   0 -15    9.27    0.66
   7   0 -15    9.50    0.69
  -8   0  15    7.20    0.75
   8   0 -15    7.01    0.59
  -8   0 -15    8.49    0.78
   9   0 -15    0.04    0.25
  -9   0  15    0.92    0.47
  -9   0 -15    0.11    0.29
 -10   0 -15    0.36    0.43
  10   0 -15    0.60    0.33
 -10   0  15    0.51    0.50
 -11   0  15   18.35    1.24
  11   0 -15   17.09    1.15
 -11   0 -15   18.85    1.14
 -12   0 -15   -0.02    0.35
  12   0 -15   -0.47    0.40
 -12   0  15   -0.04    0.41
   0  -1 -15   14.05    0.52
   0   1  15   11.94    0.64
   0   1 -15   13.31    0.54
   0  -1  15   12.18    0.65
   1  -1  15   47.08    1.66
  -1  -1 -15   49.94    1.46
  -1   1  15   46.59    1.65
   1  -1 -15   48.22    1.54
  -1  -1  15   46.70    1.66
  -1   1 -15   52.74    1.50
   1   1  15   45.68    1.65
  -2   1  15    1.60    0.27
  -2  -1 -15    1.86    0.28
   2   1 -15    1.78    0.26
  -2   1 -15    2.19    0.18
  -2   1 -15    1.74    0.29
   2  -1 -15    1.73    0.24
  -2  -1  15    1.37    0.25
   3   1 -15   18.13    0.79
  -3   1  15   16.47    0.81
  -3  -1 -15   18.56    0.83
  -3   1 -15   19.65    0.88
   3  -1 -15   17.57    0.77
  -3  -1  15   17.70    0.82
   4   1 -15   14.14    0.71
  -4   1  15   14.42    0.78
  -4  -1 -15   15.01    0.76
   4  -1 -15   14.00    0.70
  -4  -1  15   13.19    0.71
  -4   1 -15   13.51    0.75
  -5  -1 -15    1.24    0.32
  -5   1  15    1.43    0.37
   5   1 -15    1.24    0.27
   5  -1 -15    1.76    0.33
  -5   1 -15    1.54    0.36
  -5  -1  15    1.15    0.30
  -6  -1 -15    1.19    0.30
   6   1 -15    1.08    0.32
  -6   1  15    1.45    0.39
   6  -1 -15    1.26    0.29
  -6   1 -15    0.85    0.34
  -6  -1  15    0.49    0.34
  -7  -1 -15    7.90    0.70
   7   1 -15    7.61    0.63
  -7   1  15    7.79    0.72
  -7   1 -15    7.42    0.69
   7  -1 -15    7.00    0.65
  -7  -1  15    7.71    0.70
   8   1 -15    7.92    0.64
  -8  -1 -15    8.86    0.68
  -8   1  15    8.52    0.70
  -8  -1  15    8.14    0.78
   8  -1 -15   10.11    0.74
  -8   1 -15   10.35    0.80
   9   1 -15    9.85    0.80
  -9   1  15    9.12    0.84
  -9  -1 -15    9.75    0.82
  -9  -1  15    9.01    0.85
   9  -1 -15    9.38    0.79
  -9   1 -15    8.83    0.85
  10   1 -15    7.38    0.79
 -10  -1 -15    6.06    0.70
 -10   1  15    6.81    0.77
 -10  -1  15    6.61    0.80
 -10   1 -15    7.33    0.78
  10  -1 -15    5.97    0.68
 -11  -1 -15    2.23    0.58
  11   1 -15    3.43    0.63
 -11   1  15    2.51    0.66
 -11   1 -15    2.22    0.62
  11  -1 -15    3.79    0.65
 -11  -1  15    2.63    0.67
 -12   1  15   11.02    1.11
 -12  -1 -15   12.26    1.08
  12   1 -15   12.15    1.00
  12  -1 -15   11.58    0.91
 -12  -1  15    9.75    0.97
 -12   1 -15   10.91    1.10
   0   2 -15   26.95    0.94
   0  -2  15   25.59    1.02
   0   2  15   25.77    1.04
   0  -2 -15   27.82    0.90
  -1   2  15    7.00    0.49
   1   2 -15    6.29    0.41
  -1  -2 -15    7.34    0.30
  -1  -2  15    6.44    0.44
   1  -2 -15    6.28    0.35
   1   2  15    6.19    0.46
  -1   2 -15    6.41    0.35
   2   2 -15    0.12    0.16
  -2   2  15    0.16    0.22
  -2  -2 -15    0.06    0.19
   2  -2 -15    0.18    0.15
  -2   2 -15    0.19    0.12
  -2   2 -15   -0.02    0.21
  -2  -2  15    0.00    0.20
  -3  -2 -15    1.74    0.31
  -3   2  15    1.18    0.30
   3   2 -15    1.39    0.25
  -3  -2  15    1.51    0.31
   3  -2 -15    1.62    0.27
  -3   2 -15    1.37    0.27
  -4  -2 -15   21.57    0.99
  -4   2  15   24.32    1.05
   4   2 -15   23.38    0.99
  -4  -2  15   24.11    1.03
  -4   2 -15   22.57    1.00
   4  -2 -15   22.62    0.95
  -5   2  15    2.08    0.40
   5   2 -15    2.23    0.34
  -5  -2 -15    2.39    0.39
  -5   2 -15    3.16    0.44
   5  -2 -15    3.06    0.37
  -5  -2  15    1.96    0.39
  -6  -2 -15   18.64    0.93
   6   2 -15   17.42    0.87
  -6   2  15   19.36    0.99
  -6  -2  15   17.90    0.94
   6  -2 -15   17.63    0.89
  -6   2 -15   17.21    0.94
   7   2 -15   14.25    0.85
  -7  -2 -15   14.45    0.87
  -7   2  15   14.91    0.93
   7  -2 -15   14.32    0.84
  -7  -2  15   15.90    0.92
  -7   2 -15   15.41    0.91
  -8   2  15    6.87    0.73
   8   2 -15    6.12    0.64
  -8  -2 -15    6.14    0.62
  -8   2 -15    5.42    0.67
   8  -2 -15    5.39    0.58
  -8  -2  15    5.95    0.67
  -9  -2 -15    2.72    0.52
  -9   2  15    1.16    0.41
   9   2 -15    2.47    0.45
   9  -2 -15    3.44    0.55
  -9  -2  15    1.80    0.52
  -9   2 -15    2.03    0.52
 -10   2  15    2.05    0.60
  10   2 -15    2.77    0.56
 -10  -2 -15    3.60    0.61
 -10   2 -15    1.30    0.54
  10  -2 -15    2.56    0.49
 -10  -2  15    1.59    0.55
 -11   2  15    8.96    1.00
  11   2 -15    8.22    0.89
 -11  -2 -15    9.96    0.95
  11  -2 -15    8.73    0.90
 -11   2 -15   10.39    1.04
 -11  -2  15    8.42    0.91
  12   2 -15    1.84    0.59
 -12  -2 -15    1.59    0.54
 -12   2  15    0.88    0.63
 -12  -2  15    0.72    0.54
  12  -2 -15    0.96    0.54
 -12   2 -15    1.87    0.64
   0   3  15    3.12    0.36
   0  -3  15    2.74    0.33
   0  -3 -15    2.89    0.23
   1   3 -15    5.60    0.39
  -1   3  15    5.65    0.44
  -1  -3 -15    6.09    0.28
  -1   3 -15    6.37    0.36
  -1  -3  15    5.75    0.41
   1  -3 -15    6.19    0.36
   1   3  15    5.67    0.44
  -2   3  15   43.07    1.56
   2   3 -15   43.31    1.52
   2  -3 -15   42.96    1.46
  -2  -3  15   42.20    1.54
  -2   3 -15   46.26    1.60
  -2   3 -15   46.20    1.43
   3   3 -15   83.79    2.71
  -3  -3 -15   86.19    2.71
  -3   3  15   83.21    2.72
  -3  -3  15   85.10    2.71
  -3   3 -15   90.13    2.55
  -3   3 -15   82.72    2.74
   3  -3 -15   83.37    2.65
  -4  -3 -15    7.70    0.54
  -4   3  15    6.84    0.56
   4   3 -15    8.72    0.57
  -4   3 -15    6.81    0.51
  -4  -3  15    6.64    0.54
   4  -3 -15    6.85    0.49
  -5   3  15   11.83    0.74
   5   3 -15   10.78    0.69
  -5  -3 -15   12.34    0.70
  -5   3 -15   11.21    0.73
  -5  -3  15   10.93    0.70
   5  -3 -15   12.16    0.68
  -6  -3 -15    9.24    0.66
   6   3 -15   11.17    0.71
  -6   3  15   11.53    0.71
  -6  -3  15    9.85    0.70
   6  -3 -15    9.99    0.63
  -6   3 -15   10.25    0.73
  -7  -3 -15    1.54    0.33
   7   3 -15    1.09    0.35
  -7   3  15    2.17    0.49
   7  -3 -15    1.21    0.36
  -7  -3  15    2.09    0.42
  -7   3 -15    1.45    0.40
   8   3 -15    4.78    0.59
  -8   3  15    3.73    0.59
  -8  -3 -15    4.16    0.53
  -8   3 -15    4.16    0.60
  -8  -3  15    4.13    0.59
   8  -3 -15    4.36    0.56
  -9  -3 -15    0.19    0.35
  -9   3  15    0.72    0.49
   9   3 -15   -0.12    0.33
  -9   3 -15    0.14    0.43
  -9  -3  15   -0.43    0.36
   9  -3 -15    0.23    0.36
  10   3 -15    1.35    0.41
 -10  -3 -15    0.94    0.43
 -10   3  15    1.02    0.54
 -10  -3  15    2.18    0.48
  10  -3 -15    1.02    0.47
 -10   3 -15    0.88    0.41
  11   3 -15    1.39    0.52
 -11   3  15    0.37    0.44
 -11  -3 -15    0.54    0.45
 -11  -3  15    0.22    0.48
 -11   3 -15    0.18    0.52
  11  -3 -15    0.81    0.40
  12   3 -15    1.53    0.56
  12  -3 -15    2.28    0.52
   0   4  15    5.76    0.40
   0   4 -15    5.49    0.38
   0  -4 -15    5.16    0.31
   0  -4  15    4.56    0.42
   1   4 -15    0.47    0.19
  -1   4  15    0.24    0.16
  -1  -4  15    0.69    0.23
   1  -4 -15    0.47    0.17
   1   4  15    0.61    0.23
   2   4 -15    4.91    0.42
  -2   4  15    5.78    0.42
  -2   4 -15    5.76    0.36
   2  -4 -15    5.11    0.36
   2   4  15    5.54    0.40
  -2  -4  15    5.08    0.43
  -2   4 -15    5.02    0.48
  -3  -4 -15   63.49    2.08
  -3   4  15   61.69    2.11
   3   4 -15   62.31    2.13
  -3   4 -15   61.60    2.13
  -3  -4  15   62.51    2.08
  -3   4 -15   67.89    1.99
   3  -4 -15   61.42    2.03
   4   4 -15   11.39    0.69
  -4   4  15   11.46    0.65
  -4  -4 -15   12.42    0.67
   4  -4 -15   10.25    0.61
  -4  -4  15   11.15    0.66
  -4   4 -15   11.39    0.70
  -5  -4 -15   -0.01    0.22
  -5   4  15    0.13    0.29
   5   4 -15    0.26    0.25
  -5  -4  15    0.43    0.23
  -5   4 -15   -0.03    0.27
   5  -4 -15    0.05    0.23
   6   4 -15    0.32    0.29
  -6   4  15    0.13    0.33
  -6  -4 -15   -0.18    0.22
   6  -4 -15    0.22    0.27
  -6   4 -15   -0.06    0.27
  -6  -4  15    0.25    0.29
   7   4 -15    2.06    0.42
  -7  -4 -15    2.30    0.41
  -7   4  15    2.74    0.50
  -7  -4  15    1.77    0.40
  -7   4 -15    1.89    0.44
   7  -4 -15    1.93    0.36
   8   4 -15    4.00    0.58
  -8   4  15    5.44    0.63
  -8  -4 -15    3.37    0.50
   8  -4 -15    4.67    0.58
  -8  -4  15    4.39    0.54
  -8   4 -15    4.45    0.58
  -9  -4 -15    0.22    0.32
  -9   4  15   -0.05    0.43
   9   4 -15    0.30    0.37
   9  -4 -15    0.09    0.36
  -9  -4  15    0.20    0.40
  -9   4 -15    0.51    0.35
 -10   4  15   -0.03    0.48
  10   4 -15    0.34    0.40
 -10  -4 -15    0.46    0.37
 -10   4 -15   -0.04    0.31
  10  -4 -15   -0.07    0.40
 -10  -4  15    0.23    0.46
 -11   4  15    1.58    0.63
  11   4 -15    1.31    0.44
 -11  -4 -15    2.29    0.52
 -11   4 -15    3.19    0.69
 -11  -4  15    1.10    0.54
  11  -4 -15    2.64    0.60
   0  -5 -15    3.37    0.27
   0   5  15    3.90    0.38
   0  -5  15    3.54    0.37
   0   5 -15    3.38    0.36
  -1   5  15    0.60    0.22
   1   5 -15    0.49    0.20
   1  -5  15    0.65    0.24
   1  -5 -15    0.68    0.19
  -1  -5  15    0.48    0.22
   1   5  15    0.74    0.23
  -1   5 -15    0.38    0.18
  -2   5  15    5.04    0.45
   2   5 -15    5.06    0.40
   2  -5 -15    4.11    0.35
  -2  -5  15    5.23    0.42
  -2   5 -15    4.81    0.41
   2   5  15    5.73    0.43
  -3   5  15    2.99    0.39
  -3  -5 -15    2.52    0.34
   3   5 -15    2.92    0.38
  -3   5 -15    3.25    0.32
   3  -5 -15    2.94    0.34
  -3   5 -15    3.21    0.42
  -3  -5  15    2.73    0.36
  -4  -5 -15   14.34    0.74
  -4   5  15   14.86    0.79
   4   5 -15   15.44    0.80
   4  -5 -15   15.16    0.75
  -4   5 -15   16.14    0.68
  -4   5 -15   14.81    0.78
  -4  -5  15   16.07    0.78
  -5  -5 -15   37.28    1.41
  -5   5  15   36.26    1.48
   5   5 -15   36.91    1.52
  -5  -5  15   42.30    1.47
   5  -5 -15   37.51    1.44
  -5   5 -15   37.59    1.50
  -6  -5 -15   21.49    0.96
   6   5 -15   21.10    1.03
  -6   5  15   21.82    1.03
   6  -5 -15   20.13    0.96
  -6  -5  15   19.77    0.98
  -6   5 -15   20.02    1.04
  -7   5  15    3.84    0.57
   7   5 -15    4.16    0.56
  -7  -5 -15    4.11    0.49
  -7  -5  15    3.93    0.52
   7  -5 -15    4.89    0.53
  -7   5 -15    4.13    0.53
  -8  -5 -15    9.16    0.70
  -8   5  15   10.47    0.85
   8   5 -15    9.28    0.72
   8  -5 -15   10.66    0.74
  -8  -5  15   11.54    0.80
  -8   5 -15    9.72    0.88
   9   5 -15    2.69    0.49
  -9   5  15    2.78    0.55
  -9  -5 -15    2.73    0.46
   9  -5 -15    3.39    0.53
  -9  -5  15    1.79    0.47
  -9   5 -15    3.19    0.60
 -10   5  15    2.09    0.63
 -10  -5 -15    2.42    0.48
  10   5 -15    1.64    0.44
 -10   5 -15    2.86    0.62
 -10  -5  15    1.23    0.50
  10  -5 -15    1.97    0.47
 -11  -5 -15    0.50    0.40
 -11   5  15   -0.50    0.49
  11   5 -15    0.50    0.46
 -11  -5  15    0.08    0.47
 -11   5 -15    1.01    0.52
  11  -5 -15    1.32    0.51
   0  -6 -15    0.95    0.19
   0   6 -15    0.48    0.22
   0   6  15    0.88    0.23
   0  -6  15    0.64    0.23
  -1   6  15    0.47    0.21
   1   6 -15    0.56    0.21
   1  -6  15    0.56    0.24
   1   6  15    0.67    0.23
  -1  -6  15    0.97    0.25
  -1   6 -15    0.62    0.22
   2   6 -15    6.17    0.51
  -2   6  15    6.00    0.47
  -2   6 -15    6.02    0.50
  -2   6 -15    6.33    0.48
   2  -6 -15    5.44    0.41
  -2  -6  15    6.44    0.47
   2   6  15    6.69    0.47
   3   6 -15    0.12    0.23
  -3   6  15   -0.02    0.21
   3   6  15   -0.30    0.21
   3  -6 -15    0.08    0.19
  -3   6 -15   -0.01    0.25
  -3  -6  15    0.01    0.21
   4   6 -15    5.06    0.53
  -4  -6 -15    5.21    0.43
  -4   6  15    5.54    0.52
   4  -6 -15    5.11    0.48
  -4  -6  15    5.96    0.49
  -4   6 -15    6.22    0.44
  -4   6 -15    5.97    0.56
   5   6 -15   21.63    1.08
  -5  -6 -15   21.22    0.94
  -5   6  15   20.95    1.03
   5  -6 -15   21.56    0.99
  -5   6 -15   21.92    1.02
  -5  -6  15   23.47    1.00
  -6   6  15   11.80    0.75
  -6  -6 -15   12.75    0.70
   6   6 -15   12.89    0.79
  -6   6 -15   12.11    0.79
  -6  -6  15   12.37    0.75
   6  -6 -15   11.85    0.75
  -7  -6 -15    7.35    0.56
   7   6 -15    7.16    0.72
  -7   6  15    7.08    0.68
  -7   6 -15    6.78    0.66
   7  -6 -15    7.38    0.68
  -7  -6  15    7.61    0.66
  -8   6  15    1.11    0.38
  -8  -6 -15    1.11    0.33
   8   6 -15    1.27    0.38
  -8   6 -15    2.13    0.49
  -8  -6  15    1.03    0.40
   8  -6 -15    1.43    0.43
  -9  -6 -15   10.42    0.77
  -9   6  15   11.97    0.97
   9   6 -15   12.54    0.95
  -9  -6  15   11.95    0.86
  -9   6 -15   10.76    0.84
   9  -6 -15   12.71    0.93
  10   6 -15    4.16    0.67
 -10   6  15    3.98    0.71
  10  -6 -15    3.15    0.62
 -10   6 -15    4.29    0.71
 -10  -6  15    2.78    0.58
 -11   6  15    0.47    0.44
  11   6 -15    0.36    0.46
 -11  -6  15    0.84    0.51
  11  -6 -15    0.01    0.44
 -11   6 -15    0.24    0.35
   0  -7  15   61.77    2.02
   0   7 -15   61.34    2.09
   0  -7 -15   61.51    1.96
   1   7 -15   12.94    0.73
  -1   7  15   13.81    0.68
   1  -7  15   12.16    0.67
  -1  -7  15   13.18    0.67
  -1   7 -15   13.68    0.68
   2   7 -15    1.88    0.32
  -2   7  15    2.30    0.33
   2  -7 -15    1.66    0.29
  -2   7 -15    1.84    0.33
  -2   7 -15    1.34    0.31
  -2  -7  15    1.92    0.31
   3   7 -15    4.12    0.51
  -3   7  15    4.96    0.47
  -3   7 -15    4.81    0.46
   3  -7 -15    4.43    0.44
  -3   7 -15    5.77    0.53
  -3  -7  15    4.46    0.44
  -4   7  15   13.59    0.77
   4   7 -15   13.67    0.81
   4  -7 -15   15.12    0.77
  -4   7 -15   14.41    0.74
  -4  -7  15   14.53    0.74
  -4   7 -15   14.76    0.78
   5  -7  15    4.61    0.47
  -5   7  15    3.56    0.44
   5   7 -15    3.31    0.51
  -5  -7 -15    3.92    0.42
  -5  -7  15    3.34    0.43
  -5   7 -15    3.60    0.49
   5  -7 -15    4.64    0.50
  -6   7  15    1.06    0.39
   6   7 -15    0.78    0.36
   6  -7 -15    0.97    0.35
  -6   7 -15    0.53    0.32
  -6  -7  15    0.24    0.31
  -7   7  15    8.29    0.75
   7   7 -15    7.85    0.77
   7  -7 -15    7.53    0.61
  -7  -7  15    8.33    0.66
  -7   7 -15    6.70    0.66
   8   7 -15    7.54    0.80
  -8   7  15    6.83    0.74
   8  -7 -15    7.06    0.72
  -8  -7  15    4.94    0.60
  -8   7 -15    5.64    0.67
  -9   7  15    3.19    0.61
   9   7 -15    3.99    0.60
   9  -7 -15    4.25    0.64
  -9   7 -15    3.55    0.57
 -10   7  15    0.14    0.49
  10   7 -15   -0.23    0.41
  10  -7 -15    0.44    0.46
 -10   7 -15    0.51    0.46
   0  -8 -15   29.61    1.15
   0   8  15   34.43    1.19
   0  -8  15   31.05    1.17
   0   8 -15   29.51    1.25
   1  -8  15    1.20    0.28
   1   8 -15    1.52    0.34
  -1   8  15    1.05    0.27
  -1   8 -15    1.44    0.33
  -1  -8  15    0.80    0.25
   1  -8 -15    1.16    0.26
   2   8 -15   10.18    0.72
  -2   8 -15   12.84    0.68
  -2  -8  15   12.42    0.64
   2  -8 -15   11.57    0.64
  -2   8 -15   11.64    0.70
   3   8 -15    8.53    0.63
  -3   8  15    9.91    0.60
   3  -8 -15    8.41    0.58
  -3   8 -15    9.07    0.61
  -3   8 -15    9.33    0.62
  -3  -8  15    8.45    0.55
   4   8 -15    5.97    0.63
  -4   8  15    6.51    0.58
  -4   8 -15    5.77    0.54
  -4  -8  15    6.39    0.50
   4  -8 -15    5.54    0.54
  -4   8 -15    5.72    0.57
  -5   8  15   -0.26    0.25
   5  -8  15    0.09    0.23
   5   8 -15   -0.36    0.28
   5  -8 -15   -0.45    0.22
  -5   8 -15    0.23    0.29
   6   8 -15    2.73    0.53
  -6   8  15    3.86    0.53
   6  -8 -15    2.86    0.47
  -6   8 -15    2.97    0.49
  -7   8  15   11.90    0.85
   7   8 -15   13.77    0.89
   7  -8 -15   11.60    0.83
  -7   8 -15   13.12    0.86
  -8   8  15    1.01    0.45
   8   8 -15    0.95    0.38
   8  -8 -15    1.06    0.42
  -8   8 -15    0.97    0.42
   9   8 -15    1.65    0.53
  -9   8  15    1.40    0.50
   9  -8 -15    2.26    0.55
  -9   8 -15    2.68    0.55
  10   8 -15    1.44    0.45
 -10   8  15    1.39    0.56
 -10   8 -15    2.32    0.58
  10  -8 -15    0.80    0.41
   0  -9  15    0.67    0.24
   0   9 -15    0.56    0.29
   1  -9  15    4.66    0.45
   1   9 -15    4.07    0.51
  -1   9 -15    3.82    0.48
   1  -9 -15    3.80    0.42
   2   9 -15   18.37    1.00
  -2   9 -15   19.34    0.95
   2  -9 -15   17.95    0.88
   3   9 -15    0.42    0.33
   3  -9 -15    0.43    0.26
  -3   9 -15    0.50    0.27
  -3   9 -15    0.42    0.28
   4   9 -15    0.51    0.35
  -4   9 -15    0.87    0.31
   4  -9 -15    0.44    0.29
  -4   9 -15    0.35    0.28
  -5   9  15    5.24    0.56
   5   9 -15    6.92    0.72
  -5   9 -15    5.76    0.59
   5  -9 -15    5.47    0.58
  -6   9  15    1.51    0.40
   6   9 -15    1.77    0.43
   6  -9 -15    2.20    0.45
  -6   9 -15    1.27    0.39
   7   9 -15    0.41    0.41
  -7   9  15   -0.58    0.28
   7  -9 -15    0.28    0.29
  -7   9 -15   -0.15    0.31
   8   9 -15    3.90    0.67
  -8   9  15    4.28    0.63
  -8   9 -15    4.36    0.62
   8  -9 -15    4.43    0.65
   9   9 -15    2.03    0.57
  -9   9  15    1.87    0.55
  -9   9 -15    2.02    0.52
   9  -9 -15    2.34    0.49
   0  10 -15    0.12    0.27
   1  10 -15    8.74    0.69
   1 -10 -15    9.05    0.61
  -1  10 -15    7.76    0.65
   2  10 -15    1.76    0.38
  -2  10 -15    2.07    0.41
   2 -10 -15    1.62    0.35
   3  10 -15    0.26    0.35
  -3  10 -15    0.75    0.33
   3 -10 -15    0.30    0.29
   4  10 -15   13.38    0.95
  -4  10 -15   14.55    0.86
   4 -10 -15   12.94    0.81
   5  10 -15    0.34    0.40
   5 -10  15   -0.11    0.29
   5 -10 -15    0.59    0.35
   6  10 -15    1.03    0.47
   6 -10  15    1.42    0.39
   6 -10 -15    0.79    0.39
   7  10 -15    1.26    0.43
  -7  10 -15    1.07    0.41
   7 -10 -15    1.15    0.44
   8  10 -15    2.47    0.58
  -8  10 -15    1.40    0.45
   8 -10 -15    1.45    0.49
   9  10 -15    0.37    0.35
  -9  10 -15    0.34    0.37
   9 -10 -15    0.25    0.44
   0  11 -15    6.06    0.66
   1  11 -15    3.02    0.52
  -1  11 -15    1.78    0.42
   1 -11 -15    1.92    0.39
   2  11 -15    2.87    0.51
  -2  11 -15    2.21    0.45
   2 -11 -15    3.25    0.46
   3  11 -15    2.28    0.52
   3 -11 -15    2.27    0.44
  -3  11 -15    2.26    0.45
   4  11 -15    1.22    0.40
  -4  11 -15    0.98    0.38
   4 -11 -15    1.38    0.39
   5  11 -15    7.10    0.83
   5 -11  15    6.52    0.72
   5 -11 -15    7.67    0.75
   6 -11  15   -0.12    0.29
   6  11 -15    0.29    0.44
   6 -11 -15    0.42    0.30
   7  11 -15    0.51    0.46
   7 -11 -15    0.46    0.44
   8  11 -15    3.43    0.62
   8 -11 -15    2.29    0.50
   0  12 -15   18.46    1.09
   1  12 -15    3.52    0.58
  -1  12 -15    3.35    0.56
   2  12 -15    0.11    0.38
  -2  12 -15    0.98    0.41
   2 -12 -15    0.58    0.35
   3  12 -15    1.74    0.51
   3 -12 -15    1.45    0.42
  -3  12 -15    1.86    0.47
   4  12 -15    4.20    0.64
   4 -12 -15    2.94    0.48
  -4  12 -15    3.68    0.58
   5 -12  15   11.88    0.95
   5  12 -15   12.50    1.05
   5 -12 -15   12.14    0.90
   6  12 -15    6.25    0.79
   6 -12  15    6.75    0.79
   6 -12 -15    6.08    0.69
   7  12 -15    0.81    0.54
   7 -12 -15    1.07    0.51
   0  13 -15    1.58    0.50
   1  13 -15    4.04    0.66
  -1  13 -15    4.47    0.65
   2  13 -15    1.08    0.40
  -2  13 -15    1.28    0.47
   2 -13 -15    1.07    0.42
   3  13 -15   -0.77    0.36
   3 -13 -15   -0.61    0.28
  -3  13 -15    0.46    0.40
   4  13 -15    2.73    0.64
   4 -13 -15    2.32    0.54
  -4  13 -15    2.11    0.53
   5 -13  15    6.68    0.78
   5  13 -15    5.86    0.85
   5 -13 -15    5.07    0.69
   6  13 -15    3.12    0.62
   6 -13  15    4.85    0.68
   6 -13 -15    2.82    0.58
   0  14 -15    2.46    0.58
   1  14 -15    1.16    0.52
  -1  14 -15    1.56    0.52
   2  14 -15    1.61    0.55
  -2  14 -15    2.00    0.53
   3  14 -15    1.27    0.47
  -3  14 -15    1.24    0.47
   3 -14 -15    2.09    0.52
   4  14 -15    0.57    0.53
   4 -14 -15   -0.05    0.37
  -4  14 -15   -0.04    0.42
   0  15 -15    0.53    0.37
   0   0 -16   11.02    0.47
   0   0  16   10.35    0.58
  -1   0  16   46.46    1.62
  -1   0 -16   47.40    1.42
   1   0  16   46.01    1.63
   1   0 -16   45.25    1.51
  -2   0 -16    5.87    0.49
   2   0 -16    6.27    0.40
  -2   0  16    5.48    0.44
  -3   0  16    4.46    0.48
   3   0 -16    4.77    0.39
  -3   0 -16    4.58    0.46
   4   0 -16   30.49    1.17
  -4   0  16   29.70    1.22
  -4   0 -16   29.50    1.23
  -5   0 -16    2.53    0.42
  -5   0  16    1.85    0.40
   5   0 -16    3.01    0.40
  -6   0 -16    8.26    0.67
  -6   0  16    9.20    0.65
   6   0 -16    9.73    0.66
   7   0 -16   13.03    0.82
  -7   0 -16   13.98    0.83
  -7   0  16   14.72    0.86
  -8   0  16    0.32    0.40
  -8   0 -16    0.54    0.37
   8   0 -16    0.15    0.24
  -9   0 -16    3.15    0.53
   9   0 -16    2.63    0.46
  -9   0  16    2.79    0.61
 -10   0  16    5.55    0.75
 -10   0 -16    6.94    0.82
  10   0 -16    6.53    0.72
  11   0 -16    7.43    0.81
 -11   0 -16    8.04    0.91
 -11   0  16    8.61    0.97
  12   0 -16    0.05    0.44
   0  -1  16    1.47    0.26
   0   1 -16    1.62    0.21
   0   1  16    1.53    0.31
   0  -1 -16    1.85    0.21
  -1  -1 -16   50.23    1.49
  -1   1  16   48.60    1.71
   1  -1  16   49.19    1.72
  -1  -1  16   47.24    1.70
   1   1  16   47.85    1.71
  -1   1 -16   50.91    1.53
   1  -1 -16   50.70    1.59
  -2  -1 -16   34.38    1.30
  -2   1  16   33.01    1.27
   2   1 -16   33.04    1.20
  -2   1 -16   33.14    1.30
  -2  -1  16   32.46    1.26
   2  -1 -16   34.86    1.19
  -3  -1 -16    1.42    0.28
  -3   1  16    1.33    0.33
   3   1 -16    1.76    0.28
  -3  -1  16    1.16    0.27
  -3   1 -16    1.71    0.30
   3  -1 -16    1.40    0.26
  -4  -1 -16   36.73    1.43
   4   1 -16   38.18    1.39
  -4   1  16   37.05    1.45
  -4   1 -16   36.70    1.44
  -4  -1  16   36.67    1.42
   4  -1 -16   37.37    1.37
  -5  -1 -16   25.22    1.07
  -5   1  16   21.46    1.05
   5   1 -16   21.31    0.99
  -5   1 -16   20.57    1.00
   5  -1 -16   22.24    0.97
  -5  -1  16   23.28    1.03
  -6  -1 -16   18.43    0.94
  -6   1  16   15.75    0.93
   6   1 -16   17.96    0.90
  -6   1 -16   16.45    0.89
  -6  -1  16   16.94    0.93
   6  -1 -16   15.91    0.83
  -7   1  16    2.32    0.50
   7   1 -16    1.91    0.40
  -7  -1 -16    2.25    0.45
  -7  -1  16    2.04    0.46
  -7   1 -16    1.79    0.44
   7  -1 -16    2.02    0.42
   8   1 -16    2.47    0.47
  -8   1  16    2.59    0.48
  -8  -1 -16    2.18    0.43
   8  -1 -16    2.83    0.49
  -8   1 -16    2.85    0.48
  -8  -1  16    2.93    0.55
  -9  -1 -16    0.33    0.39
   9   1 -16    0.04    0.34
  -9   1  16   -0.28    0.39
  -9   1 -16    0.25    0.42
   9  -1 -16    0.35    0.37
  -9  -1  16   -0.28    0.40
  10   1 -16    2.84    0.52
 -10  -1 -16    1.66    0.54
 -10   1  16    1.84    0.49
 -10   1 -16    2.87    0.62
 -10  -1  16    2.88    0.61
  10  -1 -16    1.87    0.53
  11   1 -16    1.06    0.40
 -11   1  16    0.91    0.58
 -11  -1 -16    1.52    0.56
 -11  -1  16    1.20    0.61
  11  -1 -16    1.69    0.54
 -11   1 -16    1.98    0.61
   0   2  16   22.68    0.95
   0  -2  16   22.41    0.97
   0  -2 -16   24.46    0.82
   0   2 -16   23.44    0.86
   1  -2  16    3.19    0.35
   1   2 -16    3.08    0.31
  -1   2  16    2.93    0.38
  -1  -2  16    2.66    0.36
   1   2  16    2.77    0.36
  -1   2 -16    3.15    0.26
   1  -2 -16    3.01    0.28
   2   2 -16   23.98    1.00
  -2   2  16   24.87    1.07
  -2  -2 -16   24.89    1.05
  -2  -2  16   24.65    1.06
   2  -2 -16   27.00    0.97
  -2   2 -16   30.06    0.92
  -2   2 -16   27.31    1.09
   3   2 -16   14.56    0.72
  -3   2  16   14.44    0.74
  -3  -2 -16   13.75    0.75
   3  -2 -16   15.45    0.69
  -3   2 -16   15.14    0.80
  -3  -2  16   15.02    0.77
  -4   2  16    8.81    0.59
  -4  -2 -16    9.43    0.62
   4   2 -16    9.59    0.60
  -4  -2  16    9.09    0.59
   4  -2 -16    9.75    0.58
  -4   2 -16    9.46    0.60
  -5   2  16    0.22    0.29
  -5  -2 -16    0.17    0.26
   5   2 -16    0.38    0.25
  -5   2 -16    0.48    0.30
   5  -2 -16    0.54    0.27
  -5  -2  16    0.45    0.25
  -6   2  16   11.82    0.78
   6   2 -16    8.31    0.60
  -6  -2 -16    9.52    0.69
   6  -2 -16    9.40    0.61
  -6   2 -16    9.65    0.72
  -6  -2  16    9.97    0.72
   7   2 -16    3.05    0.48
  -7  -2 -16    3.82    0.48
  -7   2  16    3.13    0.54
  -7   2 -16    3.83    0.55
  -7  -2  16    3.40    0.53
   7  -2 -16    3.73    0.47
  -8  -2 -16    7.56    0.63
   8   2 -16    8.73    0.72
  -8   2  16    7.59    0.80
  -8  -2  16    6.60    0.72
  -8   2 -16    7.87    0.78
   8  -2 -16    7.88    0.63
   9   2 -16    0.92    0.42
  -9  -2 -16    0.59    0.40
  -9   2  16    0.35    0.35
   9  -2 -16    0.86    0.41
  -9   2 -16    0.40    0.45
  -9  -2  16    0.99    0.48
  10   2 -16    2.64    0.57
 -10  -2 -16    1.96    0.54
 -10   2  16    1.39    0.58
 -10   2 -16    1.43    0.57
 -10  -2  16    1.78    0.56
  10  -2 -16    2.02    0.46
  11   2 -16    0.23    0.44
 -11  -2 -16    0.34    0.45
 -11   2  16    0.37    0.55
 -11   2 -16    0.49    0.52
  11  -2 -16    0.78    0.48
 -11  -2  16    0.32    0.53
   0  -3 -16    0.06    0.12
   0   3  16   -0.05    0.14
   0  -3  16    0.17    0.22
  -1   3  16   23.27    1.01
   1  -3  16   24.34    1.01
   1   3 -16   24.19    0.95
   1  -3 -16   25.43    0.90
  -1   3 -16   25.29    0.91
   1   3  16   24.22    1.01
  -1  -3  16   25.82    1.03
   2   3 -16    0.63    0.21
  -2   3  16    0.51    0.26
  -2   3 -16    0.38    0.16
   2  -3 -16    0.61    0.19
  -2   3 -16    0.64    0.23
   2   3  16    0.73    0.22
  -2  -3  16    0.20    0.23
  -3   3  16   11.29    0.69
  -3  -3 -16   12.02    0.68
   3   3 -16   12.02    0.64
  -3  -3  16   12.70    0.70
   3  -3 -16   12.60    0.62
  -3   3 -16   12.77    0.73
  -4   3  16   19.30    0.96
   4   3 -16   20.39    0.94
  -4  -3 -16   19.28    0.93
  -4  -3  16   21.52    0.96
   4  -3 -16   21.03    0.90
  -4   3 -16   19.61    0.94
  -5   3  16    6.29    0.52
  -5  -3 -16    6.05    0.55
   5   3 -16    5.99    0.57
  -5   3 -16    5.34    0.57
   5  -3 -16    5.84    0.53
  -5  -3  16    6.66    0.52
   6   3 -16   30.15    1.29
  -6  -3 -16   30.76    1.29
  -6   3  16   30.27    1.32
  -6   3 -16   30.33    1.34
   6  -3 -16   31.36    1.29
  -6  -3  16   31.46    1.32
  -7  -3 -16    4.28    0.55
  -7   3  16    4.26    0.60
   7   3 -16    4.85    0.58
  -7   3 -16    6.00    0.66
   7  -3 -16    4.63    0.55
  -7  -3  16    4.54    0.58
   8   3 -16    4.95    0.59
  -8  -3 -16    5.15    0.62
  -8   3  16    6.81    0.75
  -8   3 -16    6.04    0.71
   8  -3 -16    6.52    0.63
  -8  -3  16    4.99    0.64
   9   3 -16    6.87    0.75
  -9  -3 -16    7.48    0.75
  -9   3  16    6.71    0.81
  -9  -3  16    5.88    0.73
  -9   3 -16    6.27    0.78
   9  -3 -16    6.02    0.71
  10   3 -16    0.59    0.46
 -10  -3 -16    0.65    0.43
 -10   3  16    1.17    0.59
 -10   3 -16    0.62    0.50
 -10  -3  16    0.92    0.41
  10  -3 -16    0.51    0.35
 -11   3  16    1.00    0.48
 -11  -3 -16    2.00    0.54
  11   3 -16    0.51    0.47
 -11  -3  16    0.12    0.49
 -11   3 -16    1.10    0.59
  11  -3 -16    1.82    0.48
   0  -4 -16   10.71    0.47
   0   4  16   11.25    0.62
   0   4 -16   10.99    0.55
   0  -4  16   10.58    0.62
   1   4 -16    4.71    0.35
  -1   4  16    4.06    0.40
   1  -4  16    4.41    0.42
   1  -4 -16    4.42    0.32
   1   4  16    4.26    0.42
  -1  -4  16    4.39    0.44
  -2   4  16   13.21    0.71
   2   4 -16   12.30    0.66
  -2  -4  16   12.28    0.68
   2   4  16   13.24    0.69
  -2   4 -16   12.78    0.69
  -2   4 -16   14.00    0.60
   2  -4 -16   13.12    0.62
  -3  -4 -16    8.15    0.55
  -3   4  16    9.29    0.61
   3   4 -16    7.87    0.56
  -3  -4  16    8.73    0.59
  -3   4 -16    9.28    0.47
  -3   4 -16    8.95    0.58
   3  -4 -16    8.37    0.51
   4   4 -16   15.17    0.79
  -4   4  16   14.67    0.82
  -4  -4 -16   14.40    0.77
  -4   4 -16   15.63    0.84
  -4  -4  16   15.79    0.78
   4  -4 -16   17.31    0.78
   5   4 -16   67.26    2.34
  -5   4  16   66.90    2.33
  -5  -4 -16   68.69    2.28
  -5  -4  16   68.36    2.30
  -5   4 -16   64.27    2.33
   5  -4 -16   68.30    2.28
  -6  -4 -16    2.11    0.38
  -6   4  16    2.48    0.46
   6   4 -16    1.70    0.39
   6  -4 -16    1.50    0.36
  -6  -4  16    2.19    0.41
  -6   4 -16    1.97    0.38
  -7   4  16    4.68    0.60
  -7  -4 -16    5.24    0.56
   7   4 -16    4.64    0.57
  -7  -4  16    3.75    0.48
  -7   4 -16    3.84    0.56
   7  -4 -16    4.37    0.54
   8   4 -16    6.65    0.68
  -8   4  16    5.90    0.67
  -8  -4 -16    5.20    0.60
  -8   4 -16    5.24    0.64
   8  -4 -16    6.32    0.64
  -8  -4  16    6.17    0.67
   9   4 -16    3.06    0.57
  -9  -4 -16    4.11    0.57
  -9   4  16    5.03    0.73
   9  -4 -16    4.55    0.63
  -9  -4  16    3.49    0.60
  -9   4 -16    3.65    0.64
 -10   4  16    4.52    0.77
 -10  -4 -16    3.72    0.59
  10   4 -16    4.37    0.63
 -10   4 -16    4.95    0.69
 -10  -4  16    2.63    0.61
  10  -4 -16    5.32    0.72
 -11  -4 -16    0.19    0.42
 -11   4  16    0.63    0.57
  11   4 -16    1.06    0.53
 -11   4 -16    1.76    0.62
  11  -4 -16    0.35    0.48
 -11  -4  16    0.59    0.53
   0  -5 -16    4.23    0.30
   0   5  16    3.85    0.38
   0   5 -16    3.81    0.37
   0  -5  16    3.37    0.38
  -1   5  16   19.08    0.87
   1   5 -16   19.34    0.86
   1  -5  16   19.16    0.88
   1  -5 -16   19.53    0.76
  -1  -5  16   19.44    0.85
   1   5  16   20.05    0.88
  -1   5 -16   20.89    0.84
   2   5 -16   15.82    0.77
  -2   5  16   16.07    0.77
  -2   5 -16   14.74    0.72
   2  -5 -16   14.03    0.67
  -2   5 -16   13.49    0.77
  -2  -5  16   14.81    0.74
   2   5  16   15.89    0.74
   3   5 -16   50.02    1.81
  -3   5  16   49.90    1.78
   3  -5 -16   48.37    1.69
  -3   5 -16   49.81    1.81
  -3   5 -16   51.22    1.67
   3   5  16   53.33    1.78
  -3  -5  16   48.13    1.74
  -4  -5 -16   14.72    0.75
  -4   5  16   15.39    0.81
   4   5 -16   13.89    0.81
   4  -5 -16   15.83    0.76
  -4   5 -16   14.99    0.80
  -4  -5  16   15.60    0.79
  -5  -5 -16    9.90    0.64
   5   5 -16    9.92    0.67
  -5   5  16   10.51    0.72
  -5   5 -16   10.75    0.73
   5  -5 -16   10.60    0.62
  -5  -5  16   11.54    0.69
  -6   5  16   23.27    1.13
   6   5 -16   26.10    1.21
  -6  -5 -16   23.53    1.08
   6  -5 -16   24.98    1.13
  -6  -5  16   26.30    1.15
  -6   5 -16   26.17    1.21
  -7  -5 -16    2.31    0.40
  -7   5  16    1.68    0.46
   7   5 -16    1.40    0.41
   7  -5 -16    2.33    0.44
  -7  -5  16    2.01    0.43
  -7   5 -16    2.05    0.41
  -8   5  16   16.95    1.06
  -8  -5 -16   12.17    0.84
   8   5 -16   17.58    1.03
  -8  -5  16   16.28    0.97
  -8   5 -16   15.63    1.01
   8  -5 -16   17.31    0.99
  -9  -5 -16    0.10    0.24
  -9   5  16    0.41    0.37
   9   5 -16    1.07    0.45
  -9   5 -16    0.41    0.42
  -9  -5  16    0.26    0.38
   9  -5 -16    0.72    0.41
 -10  -5 -16   11.42    0.86
  10   5 -16   13.01    1.00
 -10   5  16   12.07    1.11
 -10   5 -16   10.97    1.05
  10  -5 -16   12.19    0.88
 -10  -5  16    9.74    0.92
  11   5 -16    2.13    0.58
 -11  -5 -16    2.74    0.56
 -11   5  16    1.90    0.59
  11  -5 -16    1.74    0.55
 -11  -5  16    1.00    0.55
 -11   5 -16    2.18    0.55
   0  -6 -16   76.10    2.35
   0   6  16   80.12    2.48
   0   6 -16   77.93    2.49
   0  -6  16   73.69    2.45
   1  -6  16    0.46    0.24
  -1   6  16    0.49    0.24
   1   6 -16    0.40    0.23
   1   6  16    0.87    0.26
  -1   6 -16    0.64    0.22
  -1  -6  16    0.84    0.22
   1  -6 -16    0.67    0.19
  -2   6  16   21.65    0.95
   2   6 -16   20.90    0.98
  -2   6 -16   20.00    0.96
  -2   6 -16   24.19    0.94
   2  -6 -16   20.38    0.87
  -2  -6  16   20.80    0.93
   2   6  16   24.19    0.97
  -3   6  16   15.19    0.80
   3   6 -16   15.07    0.84
   3  -6 -16   15.55    0.75
   3   6  16   17.25    0.80
  -3  -6  16   15.71    0.75
  -3   6 -16   16.17    0.84
   4   6 -16    0.95    0.34
  -4  -6 -16    1.17    0.28
  -4   6  16    1.25    0.32
   4  -6 -16    1.21    0.29
  -4   6 -16    1.59    0.36
  -4  -6  16    0.99    0.30
   5   6 -16    0.61    0.28
  -5  -6 -16    1.44    0.30
  -5   6  16    1.36    0.38
  -5  -6  16    1.74    0.35
  -5   6 -16    1.08    0.30
   5  -6 -16    1.00    0.26
  -6  -6 -16    2.93    0.41
   6   6 -16    3.02    0.50
  -6   6  16    3.40    0.47
  -6   6 -16    3.08    0.45
   6  -6 -16    3.09    0.46
  -6  -6  16    2.81    0.44
  -7   6  16    6.60    0.67
   7   6 -16    7.32    0.71
  -7  -6 -16    7.07    0.57
  -7  -6  16    8.40    0.67
  -7   6 -16    6.68    0.66
   7  -6 -16    6.25    0.64
   8   6 -16    1.10    0.43
  -8  -6 -16    0.60    0.29
  -8   6  16    0.43    0.33
   8  -6 -16    0.70    0.38
  -8   6 -16    0.47    0.33
  -8  -6  16    0.34    0.38
  -9   6  16    0.66    0.51
   9   6 -16   -0.01    0.39
  -9  -6 -16    0.90    0.36
  -9  -6  16    1.00    0.45
   9  -6 -16    1.25    0.48
  -9   6 -16    1.13    0.40
  10   6 -16    1.06    0.51
 -10   6  16    2.10    0.54
 -10   6 -16    2.37    0.53
  10  -6 -16    2.06    0.47
 -10  -6  16    1.49    0.53
   0  -7  16   52.51    1.86
   0   7  16   60.99    1.93
   0   7 -16   53.78    1.92
   1  -7  16    9.44    0.60
  -1   7  16   10.89    0.63
   1   7 -16   10.20    0.65
  -1   7 -16    9.84    0.60
  -1  -7  16    9.96    0.59
  -2   7  16    0.13    0.22
   2   7 -16    0.06    0.18
  -2   7 -16    0.44    0.26
   2  -7 -16    0.23    0.20
  -2   7 -16    0.27    0.23
  -2  -7  16   -0.04    0.21
   3   7 -16    2.45    0.42
  -3   7  16    1.70    0.33
  -3   7 -16    2.13    0.37
  -3   7 -16    2.82    0.37
  -3  -7  16    2.37    0.34
   3  -7 -16    2.02    0.33
   4   7 -16    7.75    0.72
  -4   7  16    7.57    0.60
  -4   7 -16    8.58    0.64
  -4  -7  16    9.54    0.63
   4  -7 -16    8.32    0.58
  -5  -7 -16    4.32    0.44
   5   7 -16    4.73    0.57
  -5   7  16    5.16    0.55
  -5   7 -16    3.46    0.49
  -5  -7  16    3.84    0.46
   5  -7 -16    4.13    0.48
   6   7 -16    1.36    0.37
  -6   7  16    1.11    0.39
  -6  -7  16    1.49    0.37
   6  -7 -16    1.54    0.38
  -6   7 -16    1.80    0.41
  -7   7  16    5.42    0.61
   7   7 -16    6.02    0.71
  -7   7 -16    6.67    0.70
  -7  -7  16    6.85    0.65
   7  -7 -16    7.22    0.70
   8   7 -16    1.81    0.50
  -8   7  16    1.05    0.45
  -8  -7  16    1.50    0.48
   8  -7 -16    1.43    0.45
  -8   7 -16    0.74    0.35
   9   7 -16   -0.15    0.38
  -9   7  16    0.90    0.49
   9  -7 -16    0.07    0.39
  -9   7 -16    0.38    0.41
  10   7 -16    0.38    0.35
 -10   7  16    0.52    0.53
 -10   7 -16    0.89    0.37
  10  -7 -16    0.59    0.39
   0   8  16   21.35    0.89
   0   8 -16   18.83    0.94
   0  -8  16   19.84    0.88
   1   8 -16    3.25    0.45
   1  -8  16    3.63    0.41
  -1  -8  16    3.87    0.40
  -1   8 -16    4.05    0.46
  -2   8  16    1.10    0.28
   2   8 -16    0.77    0.31
   2  -8 -16    1.26    0.29
  -2  -8  16    1.24    0.31
  -2   8 -16    0.83    0.29
   3   8 -16    1.89    0.37
  -3   8  16    1.91    0.36
  -3  -8  16    2.06    0.35
  -3   8 -16    1.84    0.38
  -3   8 -16    1.92    0.37
   3  -8 -16    1.32    0.32
  -4   8  16    8.73    0.64
   4   8 -16   10.22    0.72
  -4   8 -16   10.37    0.69
  -4   8 -16    9.47    0.63
  -4  -8  16   10.59    0.63
   4  -8 -16    8.59    0.62
   5   8 -16    6.87    0.72
  -5   8  16    7.98    0.65
   5  -8 -16    6.99    0.59
  -5   8 -16    7.42    0.67
   6   8 -16    9.71    0.88
  -6   8  16    9.41    0.73
  -6   8 -16   10.25    0.76
   6  -8 -16    8.91    0.65
  -7   8  16    1.04    0.41
   7   8 -16    1.39    0.47
  -7   8 -16    0.36    0.28
   7  -8 -16    0.84    0.38
  -8   8  16    0.16    0.39
   8   8 -16    0.87    0.46
   8  -8 -16   -0.49    0.32
  -8   8 -16    0.18    0.36
   9   8 -16   -0.15    0.42
  -9   8  16    0.76    0.38
  -9   8 -16    0.47    0.34
   9  -8 -16    1.87    0.50
  10   8 -16    1.10    0.50
 -10   8  16    0.75    0.53
 -10   8 -16    2.08    0.48
  10  -8 -16    1.17    0.54
   0  -9  16    2.43    0.35
   0   9 -16    2.47    0.41
   1   9 -16    5.96    0.61
   1  -9  16    6.25    0.52
  -1   9 -16    6.28    0.59
   1  -9 -16    6.66    0.61
   2   9 -16    2.90    0.47
   2  -9  16    2.46    0.37
  -2   9 -16    1.73    0.39
   2  -9 -16    2.58    0.38
   3   9 -16   10.87    0.80
  -3   9 -16   12.14    0.72
   3  -9 -16   10.83    0.68
  -3   9 -16   11.12    0.72
   4   9 -16    7.56    0.78
   4  -9 -16    7.89    0.62
  -4   9 -16    8.63    0.65
  -4   9 -16    8.07    0.63
   5   9 -16    2.49    0.47
  -5   9  16    1.70    0.40
  -5   9 -16    3.40    0.48
   5  -9 -16    2.02    0.37
   6   9 -16    5.92    0.74
  -6   9  16    5.67    0.63
   6  -9 -16    7.56    0.70
  -6   9 -16    5.56    0.62
   7   9 -16    0.67    0.44
  -7   9  16    0.68    0.39
  -7   9 -16    1.59    0.45
   7  -9 -16    0.80    0.42
   8   9 -16    0.34    0.44
  -8   9  16    0.12    0.39
   8  -9 -16   -0.02    0.29
  -8   9 -16    0.04    0.36
  -9   9  16    8.65    0.88
   9   9 -16    8.66    0.90
   9  -9 -16    7.03    0.82
  -9   9 -16    7.69    0.84
   0  10 -16    3.56    0.51
   1  10 -16    1.79    0.42
  -1  10 -16    1.00    0.36
   2  10 -16    1.07    0.39
   2 -10 -16    1.15    0.34
  -2  10 -16    1.47    0.37
   3  10 -16    7.58    0.77
  -3  10 -16    6.58    0.66
   3 -10 -16    6.57    0.61
   4  10 -16    4.61    0.66
  -4  10 -16    3.58    0.51
   4 -10 -16    3.93    0.51
   5  10 -16    1.63    0.52
   5 -10 -16    2.61    0.48
   6  10 -16    6.26    0.79
   6 -10 -16    4.19    0.60
   7  10 -16    1.25    0.43
   7 -10 -16    0.54    0.32
  -7  10 -16    0.76    0.39
   8  10 -16    4.55    0.69
  -8  10 -16    5.62    0.71
   8 -10 -16    5.95    0.75
   0  11 -16    0.61    0.30
   1  11 -16   11.76    0.85
  -1  11 -16   12.12    0.84
   2  11 -16    8.17    0.80
   2 -11 -16    7.95    0.64
  -2  11 -16    7.61    0.62
   3  11 -16    1.93    0.52
   3 -11 -16    2.74    0.46
  -3  11 -16    2.73    0.49
   4  11 -16    2.40    0.50
  -4  11 -16    3.60    0.54
   4 -11 -16    3.06    0.51
   5 -11  16    1.23    0.42
   5  11 -16    0.96    0.49
   5 -11 -16    1.10    0.40
   6  11 -16    5.17    0.76
   6 -11 -16    4.64    0.65
   7  11 -16    0.14    0.44
   7 -11 -16   -0.50    0.32
   8  11 -16    1.11    0.53
   8 -11 -16    0.98    0.49
   0  12 -16    4.32    0.63
   1  12 -16   11.87    0.90
  -1  12 -16   12.44    0.89
   2  12 -16    1.83    0.51
   2 -12 -16    1.97    0.44
  -2  12 -16    1.84    0.47
   3  12 -16    4.86    0.70
  -3  12 -16    5.55    0.67
   3 -12 -16    3.58    0.54
   4  12 -16    3.65    0.60
   4 -12 -16    2.53    0.50
  -4  12 -16    2.87    0.54
   5 -12  16    0.99    0.40
   5  12 -16    1.35    0.56
   5 -12 -16    0.65    0.39
   6  12 -16    1.95    0.61
   6 -12 -16    3.86    0.64
   7 -12 -16    0.21    0.41
   0  13 -16   12.81    0.98
   1  13 -16    7.09    0.77
  -1  13 -16    6.27    0.73
   2  13 -16   11.89    0.92
  -2  13 -16   12.66    0.94
   3  13 -16    8.91    0.95
   3 -13 -16    7.99    0.79
  -3  13 -16    7.70    0.83
   4  13 -16    7.06    0.87
  -4  13 -16    6.51    0.78
   4 -13 -16    7.00    0.76
   5  13 -16    2.65    0.67
   5 -13  16    3.55    0.63
   5 -13 -16    4.29    0.66
   0  14 -16    1.99    0.56
   1  14 -16    4.35    0.71
  -1  14 -16    2.76    0.59
   2  14 -16    0.66    0.49
  -2  14 -16    1.15    0.47
   3  14 -16    8.28    0.97
  -3  14 -16    9.42    0.92
   0   0  17    0.16    0.20
   0   0 -17    0.12    0.12
   1   0 -17  146.84    4.34
  -1   0  17  147.44    4.48
   1   0  17  149.65    4.48
   2   0 -17   75.78    2.36
  -2   0 -17   76.44    2.48
  -2   0  17   72.23    2.45
  -3   0 -17    1.39    0.33
   3   0 -17    1.78    0.29
  -3   0  17    1.29    0.33
  -4   0  17    2.06    0.40
   4   0 -17    3.00    0.38
  -4   0 -17    1.93    0.34
  -5   0  17    4.48    0.50
  -5   0 -17    5.11    0.55
   5   0 -17    5.10    0.52
  -6   0  17    2.08    0.39
   6   0 -17    2.68    0.42
  -6   0 -17    2.03    0.43
  -7   0  17   19.07    1.02
   7   0 -17   20.11    1.02
  -7   0 -17   17.87    0.98
   8   0 -17    0.77    0.30
  -8   0  17    0.35    0.43
  -8   0 -17    0.75    0.41
   9   0 -17    8.65    0.82
  -9   0  17    8.28    0.81
  -9   0 -17    7.15    0.76
 -10   0 -17   -0.19    0.30
  10   0 -17    0.28    0.43
 -10   0  17   -0.15    0.36
 -11   0 -17    5.64    0.82
  11   0 -17    5.38    0.76
 -11   0  17    4.65    0.78
   0  -1 -17    7.13    0.37
   0   1  17    6.18    0.47
   0  -1  17    6.38    0.47
   0   1 -17    6.49    0.38
  -1   1  17  103.18    3.25
   1  -1  17   99.01    3.23
   1  -1 -17  101.53    3.09
  -1  -1  17  104.67    3.26
  -1   1 -17  111.54    3.06
   1   1  17  100.06    3.23
  -2   1  17   30.20    1.22
  -2  -1 -17   30.78    1.23
   2   1 -17   31.52    1.15
   2  -1 -17   32.73    1.15
  -2   1 -17   30.27    1.24
  -2  -1  17   31.84    1.23
  -3   1  17   14.18    0.78
   3   1 -17   14.06    0.69
  -3  -1 -17   14.20    0.77
  -3   1 -17   14.37    0.75
  -3  -1  17   12.64    0.75
   3  -1 -17   13.21    0.66
  -4   1  17   49.79    1.84
  -4  -1 -17   52.37    1.85
   4   1 -17   53.17    1.80
   4  -1 -17   51.24    1.77
  -4  -1  17   45.60    1.82
  -4   1 -17   54.01    1.89
  -5  -1 -17   38.01    1.54
   5   1 -17   40.32    1.52
  -5   1  17   41.08    1.59
   5  -1 -17   40.22    1.51
  -5  -1  17   41.33    1.59
  -5   1 -17   38.71    1.55
  -6   1  17    5.95    0.61
  -6  -1 -17    6.87    0.66
   6   1 -17    6.89    0.59
  -6   1 -17    6.64    0.64
  -6  -1  17    6.06    0.63
   6  -1 -17    7.23    0.59
  -7   1  17   11.21    0.83
  -7  -1 -17    9.15    0.69
   7   1 -17   11.52    0.76
  -7   1 -17    9.72    0.78
   7  -1 -17    9.53    0.71
  -7  -1  17   10.80    0.81
   8   1 -17    2.25    0.47
  -8   1  17    1.95    0.45
  -8  -1 -17    1.49    0.38
  -8   1 -17    1.24    0.46
  -8  -1  17    2.26    0.54
   8  -1 -17    2.87    0.49
  -9   1  17    5.41    0.75
  -9  -1 -17    3.28    0.59
   9   1 -17    4.27    0.58
   9  -1 -17    4.11    0.62
  -9  -1  17    4.15    0.67
  -9   1 -17    5.38    0.72
  10   1 -17    1.67    0.51
 -10   1  17    1.85    0.59
 -10  -1 -17    2.15    0.55
 -10  -1  17    1.97    0.59
 -10   1 -17    1.37    0.56
  10  -1 -17    2.11    0.53
  11   1 -17    1.05    0.51
 -11  -1 -17    1.41    0.52
 -11   1  17    2.26    0.57
  11  -1 -17    1.82    0.49
 -11   1 -17    1.37    0.56
 -11  -1  17    1.27    0.63
   0   2  17   65.51    2.27
   0   2 -17   69.67    2.13
   0  -2 -17   70.65    2.08
   0  -2  17   68.31    2.27
  -1   2  17   34.15    1.35
   1  -2  17   37.59    1.40
   1   2  17   36.75    1.39
  -1  -2  17   34.28    1.35
  -1   2 -17   38.71    1.23
   1  -2 -17   37.64    1.24
   2   2 -17   10.14    0.56
  -2   2  17   10.74    0.66
  -2  -2  17   10.67    0.65
   2   2  17    9.80    0.64
  -2   2 -17   10.17    0.66
  -3   2  17    3.22    0.44
   3   2 -17    3.80    0.41
  -3  -2 -17    3.70    0.42
   3  -2 -17    3.92    0.38
  -3  -2  17    3.52    0.41
  -3   2 -17    3.17    0.44
  -4  -2 -17   16.38    0.84
   4   2 -17   14.68    0.77
  -4   2  17   14.84    0.84
  -4  -2  17   12.37    0.78
  -4   2 -17   14.93    0.80
   4  -2 -17   16.01    0.73
   5   2 -17   13.08    0.76
  -5   2  17   14.53    0.84
  -5  -2 -17   11.92    0.77
  -5  -2  17   13.69    0.77
   5  -2 -17   13.50    0.71
  -5   2 -17   13.54    0.82
  -6  -2 -17    4.72    0.55
  -6   2  17    5.42    0.57
   6   2 -17    5.10    0.56
  -6  -2  17    5.90    0.61
   6  -2 -17    4.82    0.53
  -6   2 -17    4.35    0.56
  -7  -2 -17    3.59    0.49
  -7   2  17    4.96    0.64
   7   2 -17    4.30    0.54
  -7  -2  17    3.69    0.56
  -7   2 -17    3.23    0.53
   7  -2 -17    4.12    0.53
   8   2 -17    3.67    0.51
  -8   2  17    2.71    0.50
  -8  -2 -17    4.08    0.53
  -8  -2  17    3.34    0.58
  -8   2 -17    3.19    0.58
   8  -2 -17    3.48    0.54
   9   2 -17    3.20    0.58
  -9   2  17    1.86    0.49
  -9  -2 -17    3.61    0.60
   9  -2 -17    2.73    0.55
  -9  -2  17    3.30    0.62
  -9   2 -17    2.82    0.59
 -10  -2 -17    0.52    0.44
  10   2 -17    0.51    0.36
 -10   2  17    1.08    0.57
 -10   2 -17    0.51    0.51
 -10  -2  17   -0.12    0.46
  10  -2 -17    0.75    0.46
 -11  -2 -17    2.97    0.55
  11   2 -17    3.01    0.63
 -11   2  17    3.18    0.74
 -11  -2  17    3.68    0.70
 -11   2 -17    2.94    0.61
  11  -2 -17    3.84    0.69
   0  -3 -17    0.26    0.13
   0   3  17   -0.19    0.21
   0  -3  17    0.09    0.24
  -1   3  17   10.36    0.64
   1   3 -17   11.50    0.57
   1  -3  17    9.95    0.60
  -1   3 -17   12.39    0.53
   1   3  17   10.95    0.61
   1  -3 -17   10.38    0.50
  -1  -3  17   10.32    0.60
   2   3 -17   52.66    1.79
  -2   3  17   47.92    1.81
  -2   3 -17   50.42    1.86
  -2   3 -17   57.66    1.69
  -2  -3  17   51.33    1.83
   2   3  17   54.38    1.85
  -3  -3 -17   43.24    1.55
  -3   3  17   39.93    1.54
   3   3 -17   42.32    1.54
  -3  -3  17   42.85    1.55
  -3   3 -17   42.34    1.61
   3  -3 -17   41.98    1.47
   4   3 -17    2.84    0.37
  -4  -3 -17    2.45    0.39
  -4   3  17    2.60    0.42
  -4  -3  17    2.74    0.42
   4  -3 -17    2.99    0.38
  -4   3 -17    3.49    0.43
  -5   3  17   27.57    1.22
   5   3 -17   26.40    1.18
  -5  -3 -17   30.23    1.21
   5  -3 -17   29.48    1.17
  -5  -3  17   30.36    1.26
  -5   3 -17   27.48    1.25
  -6   3  17    4.69    0.55
   6   3 -17    4.49    0.54
  -6  -3 -17    4.92    0.54
  -6   3 -17    5.27    0.60
   6  -3 -17    4.72    0.52
  -6  -3  17    5.61    0.58
  -7  -3 -17    8.68    0.70
   7   3 -17    8.98    0.66
  -7   3  17    9.47    0.80
   7  -3 -17    8.31    0.62
  -7   3 -17    8.21    0.78
  -7  -3  17    9.55    0.75
  -8  -3 -17    0.42    0.35
  -8   3  17    0.82    0.48
   8   3 -17    0.42    0.36
  -8  -3  17    0.82    0.46
   8  -3 -17    0.71    0.31
  -8   3 -17    0.67    0.43
  -9   3  17    0.03    0.44
   9   3 -17    0.33    0.38
  -9  -3 -17    0.43    0.37
  -9  -3  17   -0.11    0.31
  -9   3 -17    0.15    0.42
   9  -3 -17   -0.13    0.37
 -10  -3 -17    2.73    0.55
  10   3 -17    3.28    0.64
 -10   3  17    2.48    0.68
 -10   3 -17    3.50    0.70
 -10  -3  17    2.88    0.54
  10  -3 -17    2.24    0.50
 -11   3  17    0.88    0.50
  11   3 -17    0.04    0.46
 -11  -3 -17    0.42    0.36
 -11  -3  17    1.04    0.46
  11  -3 -17    1.08    0.53
 -11   3 -17    0.20    0.38
   0   4 -17    4.29    0.36
   0  -4  17    4.64    0.46
   0   4  17    5.12    0.49
  -1   4  17   12.67    0.69
   1   4 -17   13.42    0.67
   1  -4  17   13.68    0.74
   1   4  17   13.94    0.73
   1  -4 -17   13.93    0.61
  -1  -4  17   13.47    0.70
  -1   4 -17   16.51    0.67
   2   4 -17    2.06    0.33
  -2   4  17    2.01    0.32
   2   4  17    2.30    0.36
  -2   4 -17    1.99    0.27
  -2   4 -17    1.63    0.34
  -2  -4  17    1.94    0.34
  -3   4  17   14.72    0.77
  -3  -4 -17   15.69    0.75
   3   4 -17   14.61    0.78
  -3   4 -17   14.76    0.82
  -3  -4  17   15.97    0.80
   3  -4 -17   13.82    0.70
  -4   4  17    9.56    0.68
  -4  -4 -17   10.80    0.66
   4   4 -17   10.12    0.67
  -4  -4  17   10.95    0.69
  -4   4 -17   10.29    0.71
   4  -4 -17   10.69    0.63
   5   4 -17    1.19    0.35
  -5  -4 -17    1.02    0.26
  -5   4  17    0.58    0.33
  -5   4 -17    0.83    0.33
  -5  -4  17    0.70    0.32
   5  -4 -17    1.04    0.32
   6   4 -17    0.36    0.25
  -6   4  17    0.63    0.37
  -6  -4 -17    0.43    0.29
  -6  -4  17    0.75    0.28
  -6   4 -17    0.51    0.27
   6  -4 -17    0.78    0.31
  -7  -4 -17    0.13    0.29
  -7   4  17    1.24    0.38
   7   4 -17    0.84    0.30
  -7   4 -17    0.48    0.37
   7  -4 -17    0.54    0.33
  -7  -4  17    0.66    0.38
  -8  -4 -17    7.08    0.70
   8   4 -17    7.70    0.77
  -8   4  17    6.68    0.73
   8  -4 -17    8.31    0.77
  -8  -4  17    7.82    0.72
  -8   4 -17    8.30    0.79
  -9  -4 -17    2.69    0.52
  -9   4  17    3.72    0.59
   9   4 -17    3.11    0.59
  -9   4 -17    3.80    0.67
  -9  -4  17    3.32    0.60
   9  -4 -17    2.57    0.54
 -10   4  17   -0.67    0.49
 -10  -4 -17    0.26    0.31
  10   4 -17    0.15    0.44
  10  -4 -17    0.61    0.46
 -10   4 -17    0.42    0.48
 -10  -4  17   -0.18    0.46
 -11   4  17    1.15    0.52
  11   4 -17    1.00    0.44
 -11  -4 -17    1.27    0.48
 -11   4 -17    2.72    0.68
 -11  -4  17    1.24    0.55
  11  -4 -17    1.25    0.56
   0   5  17    7.11    0.52
   0  -5  17    6.30    0.47
   0   5 -17    7.12    0.47
   1   5 -17   54.65    1.90
   1  -5  17   55.14    1.93
  -1   5  17   55.13    1.92
   1   5  17   57.90    1.93
   1  -5 -17   56.74    1.79
  -1  -5  17   56.96    1.93
   2   5 -17   22.80    1.01
  -2   5  17   22.35    1.01
   2   5  17   23.83    1.00
  -2   5 -17   22.86    1.02
  -2   5 -17   25.03    0.96
  -2  -5  17   23.35    1.01
   2  -5 -17   23.56    0.92
  -3   5  17    2.72    0.40
   3   5 -17    3.15    0.43
  -3  -5  17    2.78    0.39
   3  -5 -17    2.95    0.35
   3   5  17    3.21    0.41
  -3   5 -17    2.70    0.39
  -4  -5 -17    5.64    0.52
   4   5 -17    4.89    0.53
  -4   5  17    3.69    0.49
   4  -5 -17    4.82    0.46
  -4   5 -17    4.66    0.54
  -4  -5  17    4.45    0.49
  -5  -5 -17   23.14    1.02
   5   5 -17   23.17    1.11
  -5   5  17   22.32    1.08
   5  -5 -17   21.99    1.01
  -5  -5  17   21.08    1.02
  -5   5 -17   22.48    1.09
   6   5 -17    8.30    0.75
  -6  -5 -17    9.56    0.65
  -6   5  17    8.02    0.64
  -6   5 -17    7.50    0.72
   6  -5 -17    8.65    0.65
  -6  -5  17    7.79    0.65
  -7  -5 -17    3.69    0.49
  -7   5  17    3.66    0.59
   7   5 -17    3.69    0.55
   7  -5 -17    4.22    0.55
  -7  -5  17    3.49    0.52
  -7   5 -17    5.40    0.62
  -8  -5 -17    1.66    0.40
  -8   5  17    0.80    0.47
   8   5 -17    2.36    0.45
  -8  -5  17    0.79    0.43
  -8   5 -17    2.50    0.53
   8  -5 -17    2.32    0.50
  -9   5  17    0.72    0.39
   9   5 -17    1.27    0.48
  -9  -5 -17    1.19    0.40
  -9   5 -17    1.80    0.46
  -9  -5  17    0.54    0.46
   9  -5 -17    2.24    0.51
  10   5 -17    2.22    0.56
 -10   5  17    1.22    0.59
 -10  -5 -17    1.92    0.48
 -10   5 -17    2.57    0.64
 -10  -5  17    2.51    0.61
  10  -5 -17    2.21    0.57
  11   5 -17    0.35    0.37
  11  -5 -17    0.24    0.45
   0  -6  17   27.61    1.14
   0   6 -17   28.17    1.13
   0   6  17   29.94    1.16
  -1   6  17    4.06    0.44
   1  -6  17    4.45    0.46
   1   6 -17    4.14    0.45
   1   6  17    3.96    0.44
   1  -6 -17    3.96    0.34
  -1  -6  17    4.66    0.46
  -1   6 -17    5.17    0.42
   2   6 -17    2.77    0.40
  -2   6  17    3.12    0.39
   2   6  17    2.42    0.39
  -2   6 -17    3.27    0.44
  -2  -6  17    2.96    0.38
   2  -6 -17    3.31    0.35
  -3   6  17    3.16    0.42
   3   6 -17    2.39    0.41
  -3   6 -17    2.47    0.42
  -3   6 -17    2.61    0.34
   3  -6 -17    2.86    0.35
   3   6  17    3.26    0.41
  -3  -6  17    3.21    0.41
  -4   6  17    9.50    0.65
   4   6 -17    7.30    0.68
   4  -6 -17    8.41    0.57
  -4   6 -17    7.72    0.69
  -4  -6  17    8.89    0.61
  -5  -6 -17    7.34    0.55
   5   6 -17    8.23    0.67
  -5   6  17    8.23    0.66
   5  -6 -17    7.69    0.58
  -5   6 -17    7.77    0.60
  -5  -6  17    7.39    0.54
  -6   6  17    7.50    0.68
   6   6 -17    7.84    0.75
  -6  -6 -17    6.52    0.54
  -6   6 -17    6.63    0.65
  -6  -6  17    5.96    0.60
   6  -6 -17    7.12    0.64
  -7   6  17    1.17    0.37
   7   6 -17    0.21    0.34
  -7  -6 -17    0.22    0.27
   7  -6 -17    0.78    0.35
  -7  -6  17    0.12    0.32
  -7   6 -17    0.84    0.38
  -8  -6 -17    3.48    0.48
  -8   6  17    2.77    0.52
   8   6 -17    4.15    0.64
  -8  -6  17    2.79    0.52
  -8   6 -17    3.23    0.52
   8  -6 -17    3.50    0.53
  -9   6  17    0.45    0.49
   9   6 -17    0.38    0.42
  -9   6 -17   -0.19    0.40
  -9  -6  17    0.02    0.41
   9  -6 -17    0.62    0.36
  10   6 -17    8.32    0.89
 -10   6  17    8.43    0.88
 -10  -6  17    8.15    0.85
 -10   6 -17    9.39    0.93
  10  -6 -17    9.30    0.89
   0  -7  17    1.01    0.28
   0   7  17    1.90    0.33
   0   7 -17    1.03    0.29
  -1   7  17   21.65    0.95
   1  -7  17   22.75    0.97
   1   7 -17   20.21    0.97
  -1  -7  17   20.79    0.93
   1   7  17   22.83    0.96
   1  -7 -17   20.56    0.85
  -1   7 -17   20.09    0.93
   2   7 -17    9.32    0.65
  -2   7  17    9.59    0.61
  -2   7 -17   10.09    0.61
  -2   7 -17    9.89    0.65
  -2  -7  17    8.77    0.59
   2  -7 -17    9.25    0.57
  -3   7  17   24.16    1.07
   3   7 -17   23.43    1.14
   3  -7 -17   24.02    1.02
  -3   7 -17   24.78    1.12
  -3  -7  17   24.26    1.04
  -3   7 -17   26.57    1.09
  -4   7  17    4.76    0.53
   4   7 -17    5.44    0.62
   4  -7 -17    6.58    0.52
  -4  -7  17    5.10    0.51
  -4   7 -17    5.80    0.60
   5   7 -17    2.96    0.49
  -5  -7 -17    3.30    0.42
  -5   7  17    1.91    0.42
  -5  -7  17    2.19    0.39
   5  -7 -17    3.21    0.41
  -5   7 -17    2.04    0.38
  -6   7  17    1.74    0.44
   6   7 -17    2.67    0.50
  -6   7 -17    2.76    0.44
   6  -7 -17    1.93    0.40
  -6  -7  17    2.82    0.44
  -7   7  17    3.82    0.54
   7   7 -17    3.30    0.52
   7  -7 -17    2.93    0.50
  -7  -7  17    2.17    0.46
  -7   7 -17    3.34    0.55
  -8   7  17    5.21    0.69
   8   7 -17    5.50    0.68
   8  -7 -17    3.98    0.60
  -8  -7  17    4.66    0.64
  -8   7 -17    3.95    0.57
   9   7 -17    7.48    0.86
  -9   7  17    5.99    0.78
   9  -7 -17    5.68    0.70
  -9   7 -17    7.51    0.83
 -10   7  17    2.42    0.66
  10   7 -17    3.62    0.69
  10  -7 -17    2.38    0.53
 -10   7 -17    3.62    0.68
   0   8 -17    4.55    0.49
   0  -8  17    4.30    0.45
   1  -8  17    0.08    0.21
   1   8 -17    0.38    0.27
  -1  -8  17    0.34    0.26
  -1   8 -17    0.09    0.22
   2  -8  17   27.34    1.13
  -2   8  17   25.05    1.08
   2   8 -17   24.75    1.17
   2  -8 -17   24.56    1.05
  -2   8 -17   27.24    1.14
  -2  -8  17   25.76    1.08
   3   8 -17    3.56    0.48
  -3   8  17    3.30    0.44
  -3   8 -17    3.46    0.47
  -3   8 -17    4.21    0.47
   3  -8 -17    2.62    0.38
  -3  -8  17    4.15    0.45
   4   8 -17    5.53    0.64
  -4   8  17    3.96    0.50
  -4  -8  17    4.91    0.51
  -4   8 -17    4.53    0.53
   4  -8 -17    3.81    0.47
  -5   8  17    2.07    0.43
   5   8 -17    2.77    0.52
  -5   8 -17    2.20    0.44
   5  -8 -17    2.76    0.44
   6   8 -17    4.41    0.59
  -6   8  17    3.06    0.52
  -6   8 -17    3.51    0.53
   6  -8 -17    4.04    0.53
  -7   8  17    4.09    0.61
   7   8 -17    4.48    0.68
  -7   8 -17    4.01    0.58
   7  -8 -17    4.42    0.60
   8   8 -17    2.52    0.58
  -8   8  17    1.63    0.51
   8  -8 -17    1.96    0.44
  -8   8 -17    1.49    0.41
   9   8 -17    5.79    0.79
  -9   8  17    5.81    0.76
   9  -8 -17    4.87    0.70
  -9   8 -17    4.59    0.69
   0  -9  17   24.63    1.03
   0   9 -17   22.68    1.09
   1   9 -17    8.54    0.67
   1  -9  17   10.49    0.66
  -1   9 -17    8.96    0.66
   2  -9  17    0.51    0.26
   2   9 -17    0.18    0.29
  -2   9 -17    0.15    0.26
   2  -9 -17    0.31    0.24
   3   9 -17    5.45    0.64
  -3   9 -17    5.32    0.55
  -3   9 -17    4.47    0.53
   3  -9 -17    3.95    0.47
   4   9 -17    1.39    0.44
   4  -9 -17    0.70    0.31
  -4   9 -17    1.15    0.36
  -4   9 -17    0.83    0.33
   5   9 -17    0.30    0.36
  -5   9  17    0.23    0.33
   5  -9 -17    0.44    0.31
  -5   9 -17    0.60    0.32
  -6   9  17    8.63    0.74
   6   9 -17   10.23    0.94
  -6   9 -17    8.91    0.74
   6  -9 -17   10.36    0.78
  -7   9  17    0.06    0.38
   7   9 -17    0.40    0.34
   7  -9 -17    0.55    0.32
  -7   9 -17    0.25    0.35
   8   9 -17    7.59    0.87
  -8   9  17    4.96    0.70
  -8   9 -17    5.32    0.71
   8  -9 -17    6.16    0.73
   9   9 -17    2.62    0.55
  -9   9  17    2.57    0.62
  -9   9 -17    2.97    0.53
   9  -9 -17    3.32    0.64
   0  10 -17    0.94    0.35
   1  10 -17    4.22    0.55
  -1  10 -17    4.07    0.54
   2  10 -17    2.71    0.50
  -2  10 -17    2.62    0.44
   2 -10 -17    2.04    0.38
   3  10 -17    0.59    0.39
  -3  10 -17    0.60    0.34
   3 -10 -17    1.08    0.33
   4  10 -17   13.19    0.93
   4 -10 -17    8.97    0.70
  -4  10 -17   10.28    0.75
   5  10 -17    1.54    0.50
   5 -10 -17    1.63    0.41
   6  10 -17    6.80    0.82
   6 -10 -17    6.07    0.68
   7  10 -17    1.83    0.55
  -7  10 -17    1.81    0.47
   7 -10 -17    0.94    0.45
   8  10 -17   -0.20    0.33
  -8  10 -17   -0.10    0.41
   8 -10 -17   -0.36    0.37
   0  11 -17    3.43    0.50
   1  11 -17    3.19    0.50
  -1  11 -17    3.33    0.52
   2  11 -17    1.11    0.42
  -2  11 -17    1.23    0.37
   3  11 -17   23.92    1.29
  -3  11 -17   20.83    1.13
   3 -11 -17   21.36    1.08
   4  11 -17    3.18    0.54
   4 -11 -17    2.33    0.47
  -4  11 -17    2.03    0.46
   5  11 -17    5.67    0.78
   5 -11 -17    5.08    0.64
   6  11 -17    2.73    0.64
   6 -11 -17    1.73    0.47
   7  11 -17    6.26    0.84
   7 -11 -17    5.64    0.72
   0  12 -17    2.04    0.50
   1  12 -17    7.13    0.77
  -1  12 -17    5.45    0.67
   2  12 -17    4.44    0.66
  -2  12 -17    4.63    0.63
   3  12 -17    1.80    0.55
   3 -12 -17    0.81    0.39
  -3  12 -17    1.13    0.42
   4  12 -17    6.22    0.82
   4 -12 -17    6.69    0.71
  -4  12 -17    6.14    0.71
   5  12 -17    0.60    0.48
   5 -12 -17    0.17    0.37
   6  12 -17    1.00    0.46
   6 -12 -17    1.04    0.45
   0  13 -17    5.07    0.71
   1  13 -17    0.57    0.34
  -1  13 -17    1.15    0.44
   2  13 -17    2.64    0.54
  -2  13 -17    3.22    0.57
   3  13 -17    3.88    0.71
  -3  13 -17    5.15    0.70
   4  13 -17    0.27    0.47
  -4  13 -17    0.45    0.43
   4 -13 -17    0.57    0.41
   5 -13  17    2.45    0.59
   5  13 -17    3.58    0.71
   5 -13 -17    3.53    0.61
   0  14 -17    1.70    0.53
   1  14 -17    2.62    0.64
  -1  14 -17    2.49    0.57
   2  14 -17    2.77    0.64
  -2  14 -17    2.21    0.56
   0   0  18  175.78    5.29
   0   0 -18  177.22    5.10
  -1   0  18   19.13    0.90
   1   0  18   18.31    0.92
   1   0 -18   19.97    0.78
  -2   0  18   67.67    2.31
   2   0 -18   69.91    2.20
  -3   0 -18    0.06    0.25
   3   0 -18    0.03    0.19
  -3   0  18    0.03    0.21
  -4   0  18    2.59    0.39
  -4   0 -18    3.23    0.42
   4   0 -18    3.16    0.38
  -5   0 -18   35.39    1.46
  -5   0  18   36.15    1.48
   5   0 -18   34.53    1.37
  -6   0  18    1.06    0.40
  -6   0 -18    1.23    0.39
   6   0 -18    1.28    0.35
  -7   0 -18    2.24    0.43
   7   0 -18    1.54    0.38
  -7   0  18    2.30    0.51
  -8   0 -18    6.37    0.74
  -8   0  18    5.80    0.69
   8   0 -18    7.71    0.72
  -9   0  18    0.15    0.36
   9   0 -18    0.05    0.39
  -9   0 -18    0.77    0.37
 -10   0  18   -0.29    0.36
 -10   0 -18    0.08    0.37
  10   0 -18   -0.34    0.38
 -11   0  18   -0.11    0.41
 -11   0 -18   -0.90    0.42
  11   0 -18    0.09    0.43
   0   1 -18    0.58    0.18
   0  -1 -18    0.34    0.14
   0  -1  18    0.49    0.23
   0   1  18    0.33    0.28
  -1   1  18   25.93    1.11
   1  -1  18   25.40    1.10
   1   1 -18   27.45    1.06
   1  -1 -18   27.70    0.98
  -1  -1  18   28.79    1.14
   1   1  18   26.49    1.12
  -2   1  18    8.32    0.56
   2   1 -18    7.22    0.47
  -2  -1  18    6.92    0.56
   2   1  18    7.19    0.58
  -2   1 -18    7.55    0.59
  -3   1  18    3.73    0.44
  -3  -1 -18    4.66    0.50
   3   1 -18    3.85    0.41
   3  -1 -18    4.80    0.43
  -3   1 -18    4.27    0.51
  -3  -1  18    3.77    0.47
   4   1 -18   58.24    1.98
  -4   1  18   57.27    2.06
  -4  -1 -18   56.13    2.02
  -4   1 -18   56.94    2.06
   4  -1 -18   55.53    1.94
  -4  -1  18   58.42    2.05
  -5   1  18   17.78    0.93
   5   1 -18   18.18    0.90
  -5  -1 -18   17.33    0.94
  -5  -1  18   17.74    0.92
  -5   1 -18   18.21    0.93
   5  -1 -18   17.12    0.87
  -6   1  18    4.05    0.52
  -6  -1 -18    4.72    0.57
   6   1 -18    3.95    0.50
  -6  -1  18    3.80    0.50
  -6   1 -18    4.99    0.56
   6  -1 -18    4.24    0.51
   7   1 -18    7.86    0.72
  -7   1  18    7.68    0.73
  -7  -1 -18    6.91    0.72
  -7   1 -18    9.25    0.82
   7  -1 -18    7.74    0.61
  -7  -1  18    8.36    0.68
  -8  -1 -18    1.97    0.43
  -8   1  18    1.92    0.57
   8   1 -18    2.86    0.52
  -8   1 -18    2.53    0.53
   8  -1 -18    2.52    0.49
  -8  -1  18    2.60    0.58
   9   1 -18    0.72    0.41
  -9  -1 -18    1.41    0.51
  -9   1  18   -0.11    0.46
  -9  -1  18    0.29    0.36
   9  -1 -18    0.96    0.46
  -9   1 -18    0.69    0.46
 -10  -1 -18    3.64    0.66
 -10   1  18    3.35    0.72
  10   1 -18    3.51    0.61
 -10   1 -18    3.23    0.69
  10  -1 -18    3.06    0.62
 -10  -1  18    1.43    0.48
 -11   1  18    1.49    0.63
 -11  -1 -18    1.65    0.48
  11   1 -18    0.84    0.48
 -11   1 -18    1.66    0.51
 -11  -1  18    1.94    0.65
  11  -1 -18    1.42    0.53
   0   2  18    0.32    0.26
   0  -2  18    0.25    0.25
  -1   2  18   51.31    1.85
   1  -2  18   51.39    1.85
   1  -2 -18   51.80    1.68
  -1  -2  18   52.83    1.86
   1   2  18   49.46    1.84
  -1   2 -18   56.27    1.68
   2   2 -18   49.63    1.72
  -2   2  18   49.60    1.82
  -2   2 -18   53.24    1.84
   2   2  18   51.04    1.82
  -2  -2  18   50.12    1.79
  -3   2  18   49.76    1.84
  -3  -2 -18   52.83    1.85
   3   2 -18   51.52    1.77
  -3  -2  18   45.90    1.79
   3  -2 -18   54.66    1.75
  -3   2 -18   50.14    1.85
  -4  -2 -18   47.13    1.74
  -4   2  18   45.78    1.73
   4   2 -18   46.13    1.69
   4  -2 -18   46.06    1.65
  -4  -2  18   46.46    1.72
  -4   2 -18   46.73    1.75
  -5   2  18   19.79    0.99
  -5  -2 -18   20.74    1.02
   5   2 -18   19.39    0.97
  -5  -2  18   20.91    1.03
  -5   2 -18   20.76    1.04
   5  -2 -18   19.42    0.94
  -6   2  18    1.47    0.36
   6   2 -18    1.01    0.34
  -6  -2 -18    1.70    0.40
   6  -2 -18    1.46    0.35
  -6  -2  18    1.31    0.35
  -6   2 -18    1.21    0.39
  -7   2  18    0.69    0.42
   7   2 -18    0.16    0.24
  -7  -2 -18    0.81    0.36
  -7  -2  18    0.12    0.29
  -7   2 -18    0.24    0.36
   7  -2 -18    0.56    0.34
  -8  -2 -18    6.33    0.68
  -8   2  18    5.81    0.69
   8   2 -18    7.12    0.72
  -8   2 -18    7.90    0.81
   8  -2 -18    6.83    0.71
  -8  -2  18    5.89    0.72
   9   2 -18    9.10    0.84
  -9  -2 -18    9.53    0.89
  -9   2  18    7.13    0.80
   9  -2 -18    7.02    0.79
  -9  -2  18    7.95    0.80
  -9   2 -18    8.41    0.87
 -10   2  18    4.29    0.70
  10   2 -18    4.70    0.71
 -10  -2 -18    5.18    0.71
 -10  -2  18    4.79    0.67
  10  -2 -18    4.45    0.70
 -10   2 -18    5.06    0.77
 -11  -2 -18    0.29    0.46
 -11   2  18   -0.27    0.57
  11   2 -18    1.12    0.52
  11  -2 -18    0.14    0.48
 -11  -2  18    0.25    0.53
 -11   2 -18    0.03    0.49
   0  -3  18   18.99    0.91
   0   3  18   19.06    0.89
   0   3 -18   19.42    0.79
  -1   3  18    9.82    0.61
   1  -3  18   10.91    0.68
   1   3 -18   10.78    0.57
   1   3  18   10.91    0.63
  -1  -3  18   10.14    0.66
  -1   3 -18   12.02    0.55
   1  -3 -18   10.43    0.52
   2   3 -18   23.23    0.96
  -2   3  18   21.55    0.99
  -2   3 -18   22.02    1.01
   2   3  18   24.38    1.04
  -2  -3  18   21.89    1.01
   3   3 -18    3.86    0.44
  -3  -3 -18    4.84    0.50
  -3   3  18    3.64    0.47
  -3  -3  18    4.66    0.47
  -3   3 -18    4.90    0.50
   3  -3 -18    4.73    0.43
   4   3 -18   13.50    0.77
  -4  -3 -18   14.11    0.79
  -4   3  18   14.39    0.83
  -4  -3  18   14.80    0.78
  -4   3 -18   13.63    0.79
   4  -3 -18   13.97    0.73
  -5  -3 -18    6.76    0.54
  -5   3  18    7.62    0.69
   5   3 -18    7.18    0.59
  -5   3 -18    7.23    0.67
   5  -3 -18    7.35    0.57
  -5  -3  18    6.41    0.64
  -6  -3 -18    2.24    0.42
   6   3 -18    2.11    0.42
  -6   3  18    2.02    0.47
   6  -3 -18    2.18    0.40
  -6   3 -18    1.97    0.45
  -6  -3  18    2.25    0.40
   7   3 -18    7.31    0.71
  -7  -3 -18    5.56    0.61
  -7   3  18    5.97    0.71
  -7  -3  18    6.39    0.64
  -7   3 -18    5.75    0.68
   7  -3 -18    6.55    0.66
   8   3 -18    2.09    0.48
  -8  -3 -18    1.73    0.40
  -8   3  18    2.00    0.47
  -8  -3  18    2.78    0.55
  -8   3 -18    2.21    0.55
   8  -3 -18    2.93    0.52
  -9  -3 -18    0.80    0.42
   9   3 -18   -0.40    0.35
  -9   3  18   -0.47    0.31
  -9  -3  18   -0.29    0.31
   9  -3 -18   -0.04    0.36
  -9   3 -18   -0.12    0.43
 -10  -3 -18    5.01    0.72
  10   3 -18    6.94    0.83
 -10   3  18    5.82    0.84
 -10   3 -18    6.51    0.88
  10  -3 -18    5.86    0.71
 -10  -3  18    5.64    0.77
 -11   3  18    0.60    0.60
  11   3 -18   -0.85    0.41
 -11  -3 -18    0.50    0.42
 -11   3 -18   -0.16    0.46
 -11  -3  18    0.49    0.54
  11  -3 -18   -0.37    0.40
   0  -4  18    2.75    0.40
   0   4  18    3.57    0.41
  -1   4  18   18.05    0.87
   1   4 -18   18.21    0.82
   1  -4  18   19.09    0.92
   1  -4 -18   18.36    0.75
   1   4  18   19.81    0.91
  -1  -4  18   18.86    0.91
  -1   4 -18   20.28    0.81
  -2   4  18   26.10    1.12
   2   4 -18   27.20    1.10
  -2  -4  18   26.08    1.10
  -2   4 -18   27.25    1.15
   2   4  18   27.35    1.15
   3   4 -18   15.28    0.79
  -3   4  18   15.36    0.85
  -3  -4  18   18.29    0.85
   3  -4 -18   16.96    0.77
   3   4  18   17.55    0.87
  -3   4 -18   16.31    0.89
   4   4 -18    2.50    0.41
  -4  -4 -18    2.47    0.39
  -4   4  18    2.40    0.39
  -4   4 -18    2.54    0.41
  -4  -4  18    2.28    0.41
   4  -4 -18    2.21    0.35
  -5   4  18    9.22    0.65
  -5  -4 -18    7.89    0.62
   5   4 -18    8.48    0.61
  -5   4 -18    9.71    0.71
   5  -4 -18    8.82    0.61
  -5  -4  18    9.82    0.64
   6   4 -18   11.91    0.78
  -6   4  18   10.40    0.80
  -6  -4 -18   10.04    0.71
  -6   4 -18    9.58    0.76
  -6  -4  18   10.75    0.75
   6  -4 -18   10.63    0.67
  -7   4  18    0.48    0.33
   7   4 -18    0.96    0.38
  -7  -4 -18    0.71    0.34
  -7  -4  18    0.11    0.37
  -7   4 -18    0.90    0.41
   7  -4 -18    0.53    0.28
  -8   4  18   -0.09    0.31
  -8  -4 -18   -0.07    0.32
   8   4 -18   -0.27    0.24
  -8   4 -18   -0.14    0.37
   8  -4 -18    0.48    0.38
  -8  -4  18   -0.30    0.27
  -9   4  18    1.64    0.50
  -9  -4 -18    1.86    0.42
   9   4 -18    2.23    0.48
   9  -4 -18    1.82    0.45
  -9   4 -18    1.02    0.53
  -9  -4  18    1.98    0.57
 -10  -4 -18    1.29    0.47
  10   4 -18    0.79    0.40
 -10   4  18    0.25    0.54
 -10  -4  18   -0.07    0.44
 -10   4 -18    1.05    0.56
  10  -4 -18    0.94    0.49
  11   4 -18    6.43    0.86
  11  -4 -18    6.50    0.84
   0  -5  18    0.73    0.28
   0   5 -18    0.75    0.23
   0   5  18    0.59    0.28
   1  -5  18    3.70    0.42
  -1   5  18    3.18    0.42
   1   5 -18    3.81    0.41
   1   5  18    3.63    0.45
   1  -5 -18    3.90    0.34
  -1  -5  18    3.98    0.43
   2   5 -18   20.03    0.92
  -2   5  18   18.61    0.94
   2   5  18   20.90    0.94
  -2   5 -18   23.12    0.90
  -2   5 -18   20.68    1.00
  -2  -5  18   20.92    0.96
  -3   5  18    9.32    0.66
   3   5 -18    8.16    0.62
   3  -5 -18   10.63    0.58
  -3   5 -18   10.56    0.71
  -3  -5  18   10.14    0.66
   3   5  18   10.97    0.67
  -4  -5 -18    7.08    0.55
   4   5 -18    8.20    0.63
  -4   5  18    8.32    0.59
  -4   5 -18    8.68    0.67
   4  -5 -18    7.82    0.55
  -4  -5  18    7.94    0.61
   5   5 -18    1.28    0.32
  -5  -5 -18    0.81    0.25
  -5   5  18    1.10    0.36
  -5  -5  18    0.81    0.34
  -5   5 -18    1.25    0.32
   5  -5 -18    0.95    0.31
  -6   5  18    0.96    0.40
  -6  -5 -18    0.49    0.29
   6   5 -18    0.90    0.36
  -6   5 -18    0.79    0.37
  -6  -5  18    0.98    0.31
   6  -5 -18    0.49    0.31
  -7  -5 -18    0.78    0.33
   7   5 -18    1.11    0.40
  -7   5  18    0.48    0.43
  -7  -5  18    0.57    0.30
   7  -5 -18    1.34    0.40
  -7   5 -18    1.20    0.36
  -8  -5 -18    0.44    0.34
  -8   5  18    1.66    0.55
   8   5 -18    0.30    0.39
  -8   5 -18    0.32    0.44
   8  -5 -18    0.46    0.37
  -8  -5  18    0.33    0.43
  -9   5  18    6.42    0.83
   9   5 -18    8.07    0.85
  -9  -5 -18    5.51    0.66
  -9   5 -18    6.61    0.75
  -9  -5  18    6.21    0.75
   9  -5 -18    6.93    0.78
 -10   5  18    2.01    0.64
  10   5 -18    0.86    0.49
 -10  -5 -18    1.34    0.46
 -10   5 -18    0.78    0.42
  10  -5 -18    1.65    0.52
 -10  -5  18    0.27    0.48
   0  -6  18    0.11    0.23
   0   6 -18    0.16    0.19
   0   6  18    0.25    0.23
   1   6 -18    2.56    0.38
  -1   6  18    3.21    0.42
   1  -6  18    2.85    0.40
  -1   6 -18    2.77    0.35
   1   6  18    2.93    0.41
  -1  -6  18    2.52    0.38
  -2   6  18    4.62    0.48
   2   6 -18    3.67    0.45
  -2  -6  18    3.23    0.41
   2   6  18    3.93    0.45
   3   6 -18    1.62    0.36
  -3   6  18    1.49    0.30
   3   6  18    1.66    0.35
  -3  -6  18    1.73    0.35
  -3   6 -18    1.13    0.36
   3  -6 -18    1.08    0.29
   4   6 -18   37.85    1.56
  -4   6  18   36.10    1.48
  -4   6 -18   39.73    1.58
   4   6  18   43.40    1.53
   4  -6 -18   36.92    1.44
  -4  -6  18   37.84    1.49
   5   6 -18    0.09    0.29
  -5  -6 -18    0.48    0.27
  -5   6  18    0.83    0.35
  -5   6 -18    0.27    0.32
   5  -6 -18    0.66    0.30
  -5  -6  18    0.02    0.28
  -6   6  18    3.32    0.53
  -6  -6 -18    3.39    0.45
   6   6 -18    3.94    0.54
  -6  -6  18    3.26    0.49
  -6   6 -18    3.69    0.50
   6  -6 -18    3.61    0.46
  -7  -6 -18   11.79    0.80
   7   6 -18   13.27    0.93
  -7   6  18   12.21    0.92
  -7  -6  18   11.95    0.78
   7  -6 -18   12.71    0.86
  -7   6 -18   13.61    0.93
   8   6 -18   11.06    0.84
  -8   6  18   11.18    0.86
  -8  -6 -18   11.43    0.79
  -8  -6  18   10.91    0.86
   8  -6 -18   13.45    0.92
  -8   6 -18   12.54    0.95
  -9   6  18    1.51    0.57
   9   6 -18    1.35    0.53
  -9  -6  18    0.83    0.48
  -9   6 -18    1.59    0.52
   9  -6 -18    2.72    0.57
 -10   6  18    1.05    0.55
  10   6 -18    0.38    0.47
 -10  -6  18   -0.13    0.45
 -10   6 -18    0.53    0.49
  10  -6 -18    0.83    0.47
   0  -7  18   15.09    0.81
   0   7 -18   16.07    0.82
   0   7  18   17.71    0.85
   1   7 -18   10.06    0.66
  -1   7  18   10.77    0.66
   1  -7  18   11.82    0.69
  -1   7 -18   11.43    0.66
   1   7  18   11.79    0.68
  -1  -7  18    9.04    0.62
  -2   7  18    9.08    0.62
   2  -7  18    7.61    0.61
   2   7 -18    7.57    0.61
  -2  -7  18    8.71    0.60
   2   7  18    9.26    0.62
   2  -7 -18    8.81    0.53
  -2   7 -18    8.21    0.57
  -3   7  18    7.91    0.60
   3   7 -18    6.61    0.65
  -3  -7  18    7.43    0.57
   3  -7 -18    7.13    0.52
   3   7  18    8.41    0.60
  -3   7 -18    8.25    0.64
   4   7 -18    1.38    0.35
  -4   7  18    1.82    0.38
   4  -7 -18    1.09    0.30
  -4   7 -18    1.21    0.36
  -4  -7  18    1.49    0.34
   4   7  18    1.93    0.36
   5   7 -18    2.47    0.48
  -5   7  18    2.70    0.42
   5  -7 -18    2.26    0.40
  -5  -7  18    2.08    0.40
  -5   7 -18    2.57    0.48
  -6   7  18    6.96    0.72
   6   7 -18    6.19    0.71
   6  -7 -18    7.73    0.66
  -6   7 -18    7.83    0.73
  -6  -7  18    6.41    0.63
   7   7 -18    9.45    0.90
  -7   7  18    6.52    0.75
   7  -7 -18    8.50    0.77
  -7   7 -18    8.82    0.83
  -7  -7  18    7.28    0.71
   8   7 -18   12.96    0.98
  -8   7  18   10.45    0.95
  -8   7 -18   10.50    0.90
  -8  -7  18   11.33    0.90
   8  -7 -18   10.75    0.87
  -9   7  18    0.69    0.49
   9   7 -18    0.40    0.34
  -9   7 -18    0.93    0.50
   9  -7 -18    0.94    0.48
   0  -8  18   13.31    0.74
   0   8 -18   12.74    0.75
   1  -8  18   13.68    0.74
   1   8 -18   11.27    0.74
  -1   8  18   11.44    0.69
  -1  -8  18   12.48    0.71
  -1   8 -18   12.22    0.72
  -2   8  18   14.27    0.78
   2  -8  18   14.55    0.80
   2   8 -18   14.64    0.86
  -2   8 -18   13.85    0.79
  -2  -8  18   14.24    0.77
   2  -8 -18   14.21    0.72
   3   8 -18    3.52    0.52
  -3   8  18    2.85    0.42
  -3   8 -18    3.65    0.48
   3  -8 -18    2.50    0.39
  -3  -8  18    2.74    0.40
  -3   8 -18    3.36    0.45
   4   8 -18    6.76    0.72
  -4   8  18    5.73    0.59
  -4   8 -18    6.57    0.65
  -4  -8  18    6.70    0.56
   4  -8 -18    7.46    0.57
  -5   8  18    0.66    0.36
   5   8 -18    1.30    0.37
   5  -8 -18    1.16    0.35
  -5   8 -18    0.85    0.31
  -6   8  18    9.71    0.79
   6   8 -18   10.96    0.88
  -6   8 -18    9.50    0.72
   6  -8 -18   10.32    0.76
   7   8 -18    0.07    0.38
  -7   8  18   -0.31    0.35
   7  -8 -18   -0.06    0.33
  -7   8 -18    0.30    0.38
  -8   8  18    0.36    0.44
   8   8 -18   -0.46    0.37
  -8   8 -18    0.49    0.43
   8  -8 -18    0.41    0.41
  -9   8  18    0.82    0.52
   9   8 -18    0.53    0.39
   9  -8 -18    1.63    0.54
  -9   8 -18    0.53    0.47
   0   9 -18    3.23    0.47
   0  -9  18    3.24    0.42
   1   9 -18    0.74    0.34
   1  -9  18    1.26    0.31
  -1   9 -18    1.30    0.34
   2  -9  18    1.25    0.32
   2   9 -18    0.66    0.28
  -2   9 -18    1.12    0.35
   3   9 -18    9.63    0.78
   3  -9 -18    9.98    0.66
  -3   9 -18   10.95    0.73
  -3   9 -18   10.37    0.71
   4   9 -18    5.05    0.67
   4  -9 -18    4.71    0.52
  -4   9 -18    4.04    0.52
   5   9 -18    4.73    0.67
  -5   9 -18    4.24    0.58
   5  -9 -18    3.41    0.51
   6   9 -18    2.15    0.55
  -6   9  18    1.44    0.45
   6  -9 -18    2.92    0.49
  -6   9 -18    3.10    0.54
  -7   9  18   -0.24    0.35
   7   9 -18    0.49    0.36
   7  -9 -18    0.34    0.38
  -7   9 -18    0.43    0.30
   8   9 -18    1.12    0.43
  -8   9  18    1.80    0.53
   8  -9 -18    1.06    0.46
  -8   9 -18    1.80    0.49
   0  10 -18    2.12    0.43
   1  10 -18    4.96    0.60
  -1  10 -18    5.52    0.61
   2  10 -18    6.33    0.70
  -2  10 -18    5.37    0.60
   3  10 -18    0.30    0.38
  -3  10 -18   -0.19    0.29
   3 -10 -18    0.26    0.32
   4  10 -18    9.00    0.76
   4 -10 -18    8.06    0.66
   5  10 -18    0.04    0.39
   5 -10 -18   -0.09    0.30
   6  10 -18    2.02    0.58
   6 -10 -18    2.24    0.43
   7  10 -18    6.17    0.82
   7 -10 -18    6.01    0.67
   8  10 -18    0.44    0.48
   8 -10 -18    0.08    0.40
  -8  10 -18    0.55    0.41
   0  11 -18    0.36    0.27
   1  11 -18    0.34    0.28
  -1  11 -18   -0.18    0.31
   2  11 -18    3.37    0.57
  -2  11 -18    3.24    0.51
   3  11 -18    0.03    0.39
  -3  11 -18    0.21    0.34
   3 -11 -18    0.29    0.32
   4  11 -18    1.13    0.42
   4 -11 -18    1.95    0.44
   5  11 -18    3.12    0.65
   5 -11 -18    2.82    0.52
   6  11 -18    9.34    0.94
   6 -11 -18    7.84    0.80
   7  11 -18    0.11    0.48
   7 -11 -18    0.50    0.42
   0  12 -18    0.19    0.37
   1  12 -18    1.83    0.48
  -1  12 -18    1.93    0.48
   2  12 -18    0.38    0.39
  -2  12 -18    0.44    0.38
   3  12 -18    5.85    0.77
  -3  12 -18    3.69    0.62
   4  12 -18    9.57    0.94
   4 -12 -18    9.64    0.80
   5  12 -18    0.20    0.43
   5 -12 -18    0.04    0.38
   6  12 -18    0.79    0.44
   6 -12 -18    1.87    0.52
   0  13 -18   -0.03    0.40
   1  13 -18    0.81    0.36
  -1  13 -18    2.01    0.51
   2  13 -18    3.17    0.63
  -2  13 -18    2.03    0.52
   3  13 -18    0.52    0.48
  -3  13 -18    0.54    0.43
   4  13 -18    1.49    0.55
  -4  13 -18    0.29    0.45
   0  14 -18    1.26    0.49
   1  14 -18    1.78    0.58
  -1  14 -18    2.52    0.57
   0   0  19    0.60    0.29
   1   0  19   37.57    1.45
   1   0 -19   37.36    1.28
  -1   0  19   36.84    1.46
   2   0  19    0.07    0.28
  -2   0  19    0.24    0.22
   2   0 -19    0.07    0.18
  -3   0  19   41.56    1.61
   3   0 -19   41.63    1.51
  -3   0 -19   45.08    1.65
  -4   0 -19    3.01    0.45
  -4   0  19    1.69    0.40
   4   0 -19    2.53    0.38
  -5   0  19    1.39    0.34
   5   0 -19    1.36    0.33
  -5   0 -19    1.58    0.39
  -6   0 -19   18.01    0.99
  -6   0  19   17.28    0.95
   6   0 -19   15.79    0.90
   7   0 -19    0.75    0.35
  -7   0  19    0.78    0.44
  -7   0 -19    0.93    0.33
  -8   0  19    2.95    0.53
  -8   0 -19    2.97    0.53
   8   0 -19    2.89    0.48
   9   0 -19   15.16    1.03
  -9   0  19   13.91    1.09
  -9   0 -19   14.93    1.07
 -10   0 -19    0.69    0.52
 -10   0  19    0.29    0.53
  10   0 -19    1.46    0.51
 -11   0  19    3.07    0.73
 -11   0 -19    5.58    0.82
  11   0 -19    3.96    0.74
   0   1 -19    5.23    0.36
   0   1  19    5.42    0.54
   0  -1  19    5.11    0.53
   1  -1  19   28.20    1.23
  -1   1  19   32.29    1.29
   1   1 -19   30.49    1.11
   1  -1 -19   31.64    1.09
   1   1  19   29.66    1.24
  -1  -1  19   31.52    1.29
  -2   1  19    0.41    0.23
   2  -1  19    0.55    0.24
   2   1 -19    0.67    0.21
  -2  -1  19    0.59    0.30
   2   1  19    0.62    0.30
   3   1 -19   34.98    1.32
  -3   1  19   35.35    1.41
  -3  -1 -19   35.23    1.41
   3  -1 -19   33.47    1.29
  -3  -1  19   36.94    1.45
  -3   1 -19   37.42    1.45
  -4   1  19    2.58    0.45
   4   1 -19    1.96    0.34
  -4  -1 -19    3.30    0.47
  -4  -1  19    2.55    0.40
   4  -1 -19    2.69    0.37
  -4   1 -19    2.07    0.38
   5   1 -19   12.95    0.76
  -5  -1 -19   13.28    0.78
  -5   1  19   12.34    0.83
   5  -1 -19   11.90    0.69
  -5  -1  19   12.81    0.83
  -5   1 -19   12.90    0.83
  -6   1  19    0.62    0.38
   6   1 -19    0.47    0.31
  -6  -1 -19    0.81    0.30
   6  -1 -19    0.18    0.22
  -6   1 -19    0.96    0.37
  -6  -1  19    0.88    0.38
  -7   1  19   15.57    1.01
   7   1 -19   15.04    0.90
  -7  -1 -19   15.01    0.95
   7  -1 -19   13.21    0.86
  -7  -1  19   13.35    0.95
  -7   1 -19   14.17    0.96
  -8  -1 -19    1.45    0.47
   8   1 -19    1.50    0.42
  -8   1  19    1.13    0.52
  -8  -1  19    1.57    0.43
   8  -1 -19    1.64    0.45
  -8   1 -19    1.77    0.50
   9   1 -19    0.31    0.40
  -9  -1 -19    0.99    0.49
  -9   1  19    0.82    0.52
  -9   1 -19    1.08    0.50
   9  -1 -19   -0.21    0.37
  -9  -1  19    1.09    0.45
  10   1 -19    4.41    0.69
 -10  -1 -19    5.15    0.77
 -10   1  19    1.55    0.65
 -10   1 -19    4.55    0.74
  10  -1 -19    3.44    0.65
 -10  -1  19    3.14    0.70
 -11   1  19    0.21    0.60
  11   1 -19    1.37    0.55
 -11  -1 -19    0.41    0.47
 -11  -1  19    0.18    0.42
  11  -1 -19    0.89    0.52
 -11   1 -19    1.09    0.58
   0   2  19   65.67    2.24
   0  -2  19   61.63    2.22
   0   2 -19   68.94    2.08
  -1   2  19   24.38    1.08
   1  -2  19   24.22    1.08
   1   2  19   23.39    1.07
   1  -2 -19   25.99    0.91
  -1  -2  19   20.29    1.01
   2   2 -19    9.82    0.57
  -2   2  19   11.43    0.71
   2   2  19    9.91    0.63
  -2  -2  19    9.57    0.62
  -3  -2 -19   11.78    0.75
   3   2 -19   13.24    0.70
  -3   2  19   12.55    0.73
  -3   2 -19   13.54    0.76
  -3  -2  19   13.40    0.74
   3  -2 -19   12.18    0.64
  -4   2  19   27.81    1.22
   4   2 -19   24.37    1.09
  -4  -2 -19   25.58    1.14
  -4   2 -19   25.08    1.19
  -4  -2  19   26.47    1.18
   4  -2 -19   24.75    1.06
  -5  -2 -19   15.88    0.89
   5   2 -19   14.27    0.82
  -5   2  19   14.15    0.89
   5  -2 -19   14.20    0.76
  -5  -2  19   13.88    0.82
  -5   2 -19   15.58    0.91
  -6   2  19   16.16    0.99
  -6  -2 -19   17.70    0.97
   6   2 -19   15.76    0.91
  -6  -2  19   17.52    0.98
  -6   2 -19   15.62    0.96
   6  -2 -19   15.93    0.89
  -7   2  19    1.90    0.44
  -7  -2 -19    1.84    0.45
   7   2 -19    2.49    0.43
  -7  -2  19    1.23    0.45
   7  -2 -19    1.67    0.42
  -7   2 -19    1.58    0.41
  -8  -2 -19    2.40    0.53
  -8   2  19    1.98    0.58
   8   2 -19    2.90    0.53
   8  -2 -19    2.28    0.49
  -8  -2  19    1.79    0.53
  -8   2 -19    2.58    0.58
  -9  -2 -19    8.55    0.86
  -9   2  19    7.70    0.92
   9   2 -19    8.19    0.81
   9  -2 -19    7.56    0.81
  -9   2 -19    6.70    0.79
  -9  -2  19    7.01    0.78
 -10   2  19    1.16    0.62
  10   2 -19    1.05    0.52
 -10  -2 -19    1.90    0.57
 -10  -2  19    1.58    0.59
  10  -2 -19    1.10    0.51
 -10   2 -19    0.58    0.41
 -11   2  19    0.44    0.48
 -11  -2 -19    1.20    0.54
  11   2 -19    1.39    0.44
  11  -2 -19    1.08    0.44
 -11  -2  19    0.60    0.55
 -11   2 -19    0.93    0.58
   0   3  19    7.91    0.61
   0   3 -19    8.36    0.47
   0  -3  19    7.53    0.55
   1  -3  19   21.91    1.02
   1   3 -19   21.55    0.88
  -1   3  19   20.90    1.00
  -1  -3  19   22.90    0.99
   1   3  19   20.50    0.96
   1  -3 -19   20.52    0.82
   2   3 -19   32.43    1.25
  -2   3  19   31.25    1.31
  -2  -3  19   33.27    1.32
   2   3  19   35.61    1.37
  -3   3  19    9.24    0.66
   3   3 -19    8.61    0.58
  -3   3 -19    7.74    0.64
   3  -3 -19    8.13    0.52
  -3  -3  19    8.74    0.59
  -4   3  19   24.07    1.11
  -4  -3 -19   25.20    1.13
   4   3 -19   23.30    1.08
  -4   3 -19   24.00    1.16
  -4  -3  19   25.35    1.14
   4  -3 -19   24.66    1.03
  -5   3  19    4.03    0.50
   5   3 -19    3.95    0.49
  -5  -3 -19    4.39    0.53
  -5  -3  19    4.05    0.49
  -5   3 -19    3.76    0.53
   5  -3 -19    3.98    0.46
  -6   3  19    4.08    0.59
  -6  -3 -19    4.94    0.58
   6   3 -19    3.68    0.52
  -6   3 -19    3.81    0.58
  -6  -3  19    4.06    0.56
   6  -3 -19    3.68    0.49
   7   3 -19    0.03    0.31
  -7   3  19    0.49    0.34
  -7  -3 -19    0.85    0.31
   7  -3 -19    0.47    0.33
  -7   3 -19    0.38    0.30
  -7  -3  19   -0.09    0.37
   8   3 -19    0.08    0.35
  -8  -3 -19    0.84    0.33
  -8   3  19    0.19    0.48
  -8  -3  19   -0.19    0.29
   8  -3 -19    0.41    0.37
  -8   3 -19    0.13    0.42
   9   3 -19    6.99    0.82
  -9   3  19    7.45    0.89
  -9  -3 -19    7.59    0.82
  -9   3 -19    6.43    0.78
  -9  -3  19    8.18    0.88
   9  -3 -19    7.72    0.82
 -10  -3 -19    0.02    0.42
  10   3 -19   -0.45    0.42
 -10   3  19   -0.37    0.38
  10  -3 -19    0.78    0.46
 -10   3 -19    0.31    0.40
 -10  -3  19   -0.61    0.45
   0   4  19   -0.37    0.24
   0  -4  19    0.10    0.27
   1  -4  19    9.11    0.66
   1   4 -19    9.19    0.55
  -1   4  19   10.59    0.67
  -1  -4  19    8.80    0.59
  -1   4 -19   10.87    0.56
   1   4  19    9.34    0.61
  -2   4  19   30.47    1.28
   2   4 -19   29.30    1.20
  -2  -4  19   30.44    1.24
   2   4  19   33.13    1.31
  -3   4  19   20.24    0.99
   3   4 -19   19.65    0.93
   3  -4 -19   18.78    0.86
   3   4  19   20.10    0.98
  -3  -4  19   18.63    0.92
  -3   4 -19   19.51    0.97
  -4  -4 -19    2.43    0.40
  -4   4  19    2.30    0.43
   4   4 -19    2.49    0.42
  -4  -4  19    2.63    0.40
   4  -4 -19    2.47    0.37
  -4   4 -19    3.71    0.47
  -5  -4 -19    1.24    0.34
   5   4 -19    0.93    0.34
  -5   4  19    0.46    0.35
  -5  -4  19    0.93    0.35
  -5   4 -19    0.95    0.38
   5  -4 -19    1.37    0.33
   6   4 -19    9.04    0.71
  -6   4  19   10.22    0.73
  -6  -4 -19    8.51    0.68
   6  -4 -19    7.31    0.63
  -6  -4  19   10.25    0.75
  -6   4 -19    8.78    0.80
  -7   4  19    7.82    0.80
   7   4 -19    6.49    0.70
  -7  -4 -19    7.74    0.72
  -7   4 -19    6.16    0.74
  -7  -4  19    7.69    0.75
   7  -4 -19    7.50    0.71
  -8  -4 -19    4.01    0.58
  -8   4  19    5.50    0.78
   8   4 -19    5.35    0.68
  -8  -4  19    3.45    0.63
  -8   4 -19    5.35    0.72
   8  -4 -19    3.99    0.60
   9   4 -19    3.93    0.66
  -9   4  19    3.13    0.69
  -9  -4 -19    4.20    0.62
   9  -4 -19    3.87    0.63
  -9  -4  19    2.89    0.61
  -9   4 -19    3.31    0.67
 -10  -4 -19   -0.25    0.38
 -10   4  19    0.12    0.41
  10   4 -19    0.21    0.47
  10  -4 -19   -0.42    0.41
 -10  -4  19    0.19    0.36
 -10   4 -19    0.17    0.50
   0   5 -19   13.49    0.70
   0   5  19   13.70    0.78
   0  -5  19   13.72    0.78
  -1   5  19   71.71    2.44
   1  -5  19   72.17    2.43
   1   5 -19   67.66    2.36
  -1  -5  19   73.33    2.44
   1   5  19   77.38    2.47
   2   5 -19    8.93    0.60
  -2   5  19    8.02    0.57
   2  -5  19    9.38    0.62
   2   5  19    9.44    0.61
  -2  -5  19    8.67    0.62
  -3   5  19    1.47    0.36
   3   5 -19    1.57    0.35
  -3  -5  19    1.46    0.35
   3   5  19    1.66    0.32
  -3   5 -19    1.31    0.38
   3  -5 -19    1.98    0.31
   4   5 -19    5.32    0.57
  -4   5  19    6.80    0.63
   4  -5 -19    5.64    0.53
  -4   5 -19    5.90    0.62
  -4  -5  19    5.18    0.55
   5   5 -19    4.90    0.59
  -5  -5 -19    6.12    0.57
  -5   5  19    4.32    0.52
  -5   5 -19    5.20    0.58
  -5  -5  19    4.71    0.51
   5  -5 -19    4.84    0.52
  -6  -5 -19    3.74    0.49
   6   5 -19    3.41    0.49
  -6   5  19    3.58    0.56
   6  -5 -19    2.99    0.48
  -6  -5  19    3.04    0.50
  -6   5 -19    3.23    0.48
  -7   5  19    1.75    0.51
   7   5 -19    1.47    0.45
  -7  -5 -19    1.82    0.42
  -7  -5  19    1.74    0.47
   7  -5 -19    2.02    0.46
  -7   5 -19    2.42    0.53
  -8   5  19   -0.83    0.39
  -8  -5 -19    0.20    0.34
   8   5 -19   -0.11    0.25
   8  -5 -19   -0.07    0.35
  -8  -5  19    0.53    0.34
  -8   5 -19    0.19    0.31
   9   5 -19    3.79    0.66
  -9   5  19    5.13    0.78
  -9  -5 -19    5.03    0.64
  -9  -5  19    4.02    0.67
  -9   5 -19    3.18    0.66
   9  -5 -19    4.20    0.66
 -10  -5 -19   -0.27    0.36
 -10   5  19    0.13    0.42
  10   5 -19   -0.48    0.39
 -10  -5  19    0.02    0.45
  10  -5 -19   -0.06    0.42
 -10   5 -19   -0.32    0.45
   0   6  19    2.82    0.42
   0  -6  19    2.49    0.39
   0   6 -19    3.09    0.38
   1  -6  19    7.39    0.59
  -1   6  19    6.94    0.57
   1   6 -19    6.42    0.52
  -1  -6  19    7.67    0.58
  -1   6 -19    7.81    0.52
   1   6  19    8.12    0.60
  -2   6  19    1.43    0.35
   2   6 -19    1.68    0.35
   2  -6  19    2.05    0.41
  -2  -6  19    2.32    0.38
   2   6  19    1.50    0.36
  -3   6  19    1.91    0.39
   3   6 -19    1.53    0.37
  -3   6 -19    1.50    0.33
   3   6  19    1.79    0.37
  -3  -6  19    1.62    0.35
   3  -6 -19    1.68    0.31
  -4   6  19    6.52    0.63
   4   6 -19    6.19    0.63
   4   6  19    5.69    0.56
  -4  -6  19    5.62    0.57
  -4   6 -19    6.90    0.57
   4  -6 -19    5.38    0.50
   5   6 -19    3.44    0.52
  -5   6  19    3.01    0.46
  -5  -6 -19    3.68    0.46
   5  -6 -19    3.50    0.46
  -5  -6  19    3.62    0.49
  -5   6 -19    3.72    0.55
  -6  -6 -19    8.26    0.62
   6   6 -19    8.34    0.79
  -6   6  19    8.22    0.77
  -6   6 -19    7.94    0.76
  -6  -6  19    6.38    0.66
   6  -6 -19    7.90    0.70
  -7  -6 -19    3.50    0.50
   7   6 -19    4.45    0.63
  -7   6  19    3.94    0.63
  -7   6 -19    3.82    0.61
  -7  -6  19    4.00    0.58
   7  -6 -19    4.77    0.60
   8   6 -19    1.07    0.48
  -8   6  19   -0.13    0.43
  -8  -6 -19    0.65    0.34
   8  -6 -19   -0.29    0.33
  -8   6 -19    1.12    0.49
  -8  -6  19   -0.28    0.39
  -9   6  19   -0.27    0.34
   9   6 -19   -0.17    0.29
   9  -6 -19   -0.01    0.39
  -9   6 -19   -0.42    0.40
  -9  -6  19    0.03    0.46
  10   6 -19    2.44    0.55
 -10   6  19    1.66    0.64
 -10  -6  19    2.24    0.61
  10  -6 -19    2.06    0.57
 -10   6 -19    2.40    0.64
   0   7  19    7.04    0.61
   0   7 -19    5.85    0.54
   0  -7  19    6.34    0.58
   1   7 -19    0.47    0.26
   1  -7  19    0.54    0.29
  -1   7  19    0.24    0.24
  -1   7 -19    0.45    0.25
  -1  -7  19    0.66    0.29
   1   7  19    0.42    0.28
  -2   7  19    8.67    0.63
   2   7 -19    8.38    0.64
   2  -7  19    8.03    0.63
  -2  -7  19    8.46    0.61
  -2   7 -19    8.95    0.59
   2   7  19    9.82    0.66
   3   7 -19    8.09    0.67
  -3   7  19    8.77    0.65
  -3  -7  19    9.27    0.64
   3   7  19    9.65    0.66
  -3   7 -19    9.05    0.64
   3  -7 -19    9.12    0.60
  -4   7  19    3.86    0.50
   4   7 -19    4.15    0.55
  -4  -7  19    4.55    0.53
   4  -7 -19    4.46    0.48
  -4   7 -19    5.40    0.60
   4   7  19    3.38    0.50
  -5   7  19   -0.13    0.33
   5   7 -19    0.74    0.31
  -5   7 -19    0.79    0.39
  -5  -7  19    1.02    0.38
   5  -7 -19    0.92    0.34
  -6   7  19    3.33    0.56
   6   7 -19    4.19    0.58
   6  -7 -19    3.29    0.51
  -6   7 -19    4.39    0.60
  -6  -7  19    4.03    0.54
   7   7 -19    7.07    0.80
  -7   7  19    7.17    0.78
  -7  -7  19    6.77    0.72
  -7   7 -19    7.82    0.79
   7  -7 -19    6.53    0.70
   8   7 -19    0.76    0.46
  -8   7  19    0.76    0.40
   8  -7 -19    0.91    0.45
  -8   7 -19    1.41    0.51
  -8  -7  19    1.76    0.51
  -9   7  19    0.40    0.52
   9   7 -19    0.75    0.49
   9  -7 -19    1.23    0.50
  -9   7 -19    0.90    0.40
   0  -8  19    4.47    0.49
   0   8 -19    4.88    0.52
   1  -8  19    1.09    0.32
  -1   8  19    1.73    0.35
   1   8 -19    1.63    0.36
  -1  -8  19    1.54    0.33
  -1   8 -19    1.67    0.35
   2  -8  19    0.03    0.26
  -2   8  19    0.53    0.28
   2   8 -19    0.31    0.23
  -2  -8  19    0.55    0.29
  -2   8 -19    0.68    0.32
  -3   8  19    3.24    0.46
   3   8 -19    3.61    0.53
  -3   8 -19    4.68    0.55
   3  -8 -19    4.56    0.47
  -3  -8  19    5.20    0.52
  -4   8  19   23.46    1.14
   4   8 -19   28.13    1.30
   4  -8 -19   22.42    1.07
  -4  -8  19   24.41    1.11
  -4   8 -19   23.94    1.18
   5   8 -19   10.85    0.85
  -5   8  19   11.43    0.80
  -5   8 -19   11.08    0.81
   5  -8 -19    9.30    0.70
  -6   8  19    0.34    0.38
   6   8 -19    0.25    0.39
   6  -8 -19    0.94    0.31
  -6   8 -19    0.43    0.38
  -7   8  19    9.21    0.89
   7   8 -19   11.20    0.87
   7  -8 -19   11.21    0.84
  -7   8 -19   12.44    0.90
  -8   8  19    1.64    0.51
   8   8 -19    1.78    0.46
  -8   8 -19    2.29    0.54
   8  -8 -19    2.34    0.53
  -9   8  19    0.68    0.53
   9   8 -19    0.03    0.44
   9  -8 -19    0.00    0.42
  -9   8 -19    0.79    0.46
   0   9 -19    9.38    0.69
   0  -9  19   10.36    0.67
   1  -9  19    2.58    0.41
   1   9 -19    2.95    0.46
  -1   9 -19    2.27    0.41
   2  -9  19    1.14    0.32
   2   9 -19    0.88    0.31
  -2   9 -19    0.96    0.33
   3   9 -19    6.06    0.69
   3  -9 -19    5.53    0.55
   4   9 -19    2.11    0.45
  -4   9 -19    2.49    0.46
   4  -9 -19    2.34    0.41
   5   9 -19   30.82    1.50
  -5   9 -19   29.53    1.37
   5  -9 -19   27.76    1.29
  -6   9  19    2.01    0.54
   6   9 -19    2.45    0.55
   6  -9 -19    1.77    0.46
  -6   9 -19    1.73    0.47
   7   9 -19    6.60    0.83
  -7   9  19    4.99    0.68
   7  -9 -19    5.47    0.67
  -7   9 -19    6.23    0.73
  -8   9  19    0.62    0.48
   8   9 -19    1.19    0.51
  -8   9 -19    1.43    0.48
   8  -9 -19    1.19    0.38
   0  10 -19    3.15    0.49
   1  10 -19    7.46    0.72
  -1  10 -19    8.71    0.69
   2  10 -19    7.17    0.71
  -2  10 -19    7.66    0.65
   3  10 -19    0.95    0.42
  -3  10 -19    0.90    0.37
   4  10 -19    8.32    0.86
   4 -10 -19    8.36    0.67
   5  10 -19    1.17    0.49
   5 -10 -19    1.22    0.40
   6  10 -19    1.96    0.49
   6 -10 -19    1.68    0.46
   7  10 -19    1.91    0.58
   7 -10 -19    2.25    0.52
   0  11 -19    0.12    0.25
   1  11 -19    8.51    0.80
  -1  11 -19    6.69    0.71
   2  11 -19   13.36    0.94
  -2  11 -19   12.10    0.85
   3  11 -19    5.30    0.71
  -3  11 -19    4.98    0.63
   4  11 -19    0.01    0.39
   4 -11 -19    0.18    0.33
   5  11 -19    0.05    0.31
   5 -11 -19   -0.21    0.34
   6  11 -19    3.53    0.69
   6 -11 -19    3.54    0.60
   0  12 -19    6.31    0.73
   1  12 -19    3.51    0.58
  -1  12 -19    3.86    0.59
   2  12 -19    3.30    0.63
  -2  12 -19    3.28    0.57
   3  12 -19    0.53    0.44
  -3  12 -19    0.36    0.43
   4  12 -19    1.46    0.48
   5  12 -19    0.05    0.42
   5 -12 -19   -0.08    0.37
   0  13 -19   -0.22    0.38
   1  13 -19    8.38    0.85
  -1  13 -19    8.27    0.83
   2  13 -19    0.39    0.36
  -2  13 -19    0.96    0.44
   3  13 -19    2.28    0.62
  -3  13 -19    2.68    0.57
   0   0  20    1.51    0.37
  -1   0  20   47.64    1.77
   1   0  20   46.47    1.76
   1   0 -20   48.62    1.59
   2   0  20    0.75    0.28
  -2   0  20    1.02    0.35
  -3   0 -20    4.97    0.56
   3   0 -20    4.61    0.44
  -3   0  20    3.66    0.46
  -4   0 -20    1.28    0.38
   4   0 -20    2.01    0.35
  -4   0  20    1.01    0.37
  -5   0 -20    3.23    0.47
  -5   0  20    2.14    0.46
   5   0 -20    3.19    0.44
   6   0 -20    1.26    0.35
  -6   0  20    2.61    0.50
  -6   0 -20    1.52    0.37
  -7   0  20    1.15    0.39
  -7   0 -20    0.84    0.41
   7   0 -20    1.09    0.38
  -8   0  20    4.99    0.74
  -8   0 -20    4.75    0.64
   8   0 -20    5.23    0.61
  -9   0  20    0.78    0.56
   9   0 -20    0.77    0.46
  -9   0 -20    0.55    0.48
 -10   0  20    0.61    0.58
  10   0 -20    2.01    0.57
 -10   0 -20    0.73    0.56
   0  -1  20   64.71    2.29
   0   1  20   68.36    2.32
  -1   1  20    5.60    0.57
   1   1 -20    5.27    0.39
   1  -1  20    5.04    0.52
   1   1  20    5.09    0.52
   1  -1 -20    5.89    0.40
  -1  -1  20    5.18    0.51
   2  -1  20    7.52    0.62
   2   1 -20    8.61    0.51
  -2   1  20    6.81    0.64
   2   1  20    6.62    0.54
  -2  -1  20    7.85    0.63
  -3  -1 -20    4.43    0.54
   3   1 -20    4.37    0.44
  -3   1  20    4.13    0.49
   3  -1 -20    4.59    0.43
  -3  -1  20    4.33    0.52
  -3   1 -20    5.37    0.59
   4   1 -20    1.02    0.25
  -4  -1 -20    0.68    0.35
  -4   1  20    0.95    0.30
  -4  -1  20    1.77    0.41
  -4   1 -20    1.17    0.32
   4  -1 -20    1.66    0.33
   5   1 -20    5.72    0.57
  -5  -1 -20    5.65    0.60
  -5   1  20    5.22    0.62
   5  -1 -20    5.57    0.55
  -5  -1  20    5.45    0.58
  -5   1 -20    4.83    0.60
   6   1 -20   10.98    0.75
  -6   1  20   10.52    0.76
  -6  -1 -20   10.80    0.75
  -6  -1  20   12.06    0.79
   6  -1 -20   11.93    0.76
  -6   1 -20   10.04    0.81
  -7   1  20    5.27    0.69
  -7  -1 -20    6.75    0.73
   7   1 -20    5.60    0.64
  -7  -1  20    5.40    0.69
   7  -1 -20    6.29    0.66
  -7   1 -20    6.51    0.73
   8   1 -20    6.06    0.70
  -8  -1 -20    6.11    0.74
  -8   1  20    4.68    0.67
  -8  -1  20    5.45    0.74
   8  -1 -20    4.16    0.60
  -8   1 -20    5.23    0.70
  -9  -1 -20    1.92    0.55
  -9   1  20    3.62    0.64
   9   1 -20    2.98    0.60
  -9  -1  20    2.95    0.67
   9  -1 -20    3.48    0.63
  -9   1 -20    3.73    0.61
  10   1 -20    2.59    0.60
 -10  -1 -20    2.10    0.58
 -10   1  20    1.80    0.56
 -10   1 -20    1.28    0.50
 -10  -1  20    2.76    0.71
  10  -1 -20    2.42    0.60
   0   2 -20   43.21    1.52
   0   2  20   47.46    1.73
   0  -2  20   44.41    1.67
   1  -2  20   16.75    0.90
  -1   2  20   16.97    0.87
   1   2  20   16.85    0.90
  -1  -2  20   16.94    0.90
  -2   2  20   20.84    1.05
   2  -2  20   20.40    1.02
   2   2 -20   23.62    0.95
  -2  -2  20   22.97    1.07
   2   2  20   24.08    1.09
   3   2 -20   17.01    0.83
  -3   2  20   16.76    0.89
   3  -2 -20   17.68    0.82
  -3   2 -20   17.75    0.96
  -3  -2  20   17.75    0.90
  -4   2  20   21.72    1.09
   4   2 -20   21.32    0.99
  -4  -2 -20   22.02    1.06
  -4  -2  20   21.01    1.06
  -4   2 -20   20.58    1.08
   4  -2 -20   19.85    0.93
  -5   2  20    1.13    0.39
   5   2 -20    0.81    0.31
  -5  -2 -20    0.32    0.25
   5  -2 -20    0.69    0.29
  -5   2 -20    0.41    0.27
  -5  -2  20    0.39    0.35
   6   2 -20    7.83    0.71
  -6  -2 -20    7.37    0.63
  -6   2  20    8.54    0.69
   6  -2 -20    7.51    0.63
  -6  -2  20    8.34    0.66
  -6   2 -20    7.77    0.77
   7   2 -20    0.33    0.32
  -7  -2 -20   -0.07    0.35
  -7   2  20    0.45    0.44
  -7   2 -20    0.64    0.34
  -7  -2  20   -0.19    0.38
   7  -2 -20    0.43    0.28
   8   2 -20    2.50    0.52
  -8   2  20    2.37    0.62
  -8  -2 -20    3.65    0.60
  -8  -2  20    1.79    0.55
   8  -2 -20    2.24    0.49
  -8   2 -20    2.73    0.56
  -9   2  20   -0.71    0.49
  -9  -2 -20   -0.03    0.30
   9   2 -20   -0.06    0.38
   9  -2 -20   -0.24    0.40
  -9  -2  20   -0.28    0.48
  -9   2 -20    0.01    0.35
 -10  -2 -20    5.50    0.71
 -10   2  20    4.76    0.81
  10   2 -20    4.76    0.73
  10  -2 -20    5.68    0.79
 -10  -2  20    4.10    0.76
 -10   2 -20    5.53    0.76
   0  -3  20    0.71    0.26
   0   3 -20    1.07    0.22
   0   3  20    0.91    0.27
   1  -3  20   19.58    0.97
  -1   3  20   18.79    0.95
   1   3 -20   17.98    0.82
  -1  -3  20   17.64    0.93
   1   3  20   18.05    0.90
   2  -3  20    5.20    0.55
  -2   3  20    3.73    0.45
   2   3 -20    3.51    0.41
  -2  -3  20    4.16    0.50
   2   3  20    3.47    0.47
   2  -3 -20    3.58    0.38
  -3   3  20    4.17    0.53
   3   3 -20    5.75    0.53
  -3   3 -20    4.77    0.56
  -3  -3  20    4.19    0.48
   3   3  20    4.20    0.51
   3  -3 -20    5.19    0.46
   4   3 -20   15.89    0.85
  -4  -3 -20   15.70    0.85
  -4   3  20   16.96    0.95
  -4   3 -20   16.88    0.96
  -4  -3  20   16.92    0.93
   4  -3 -20   15.88    0.81
   5   3 -20    0.67    0.31
  -5  -3 -20    1.46    0.37
  -5   3  20    1.33    0.41
  -5  -3  20    1.93    0.44
   5  -3 -20    1.12    0.32
  -5   3 -20    2.06    0.41
  -6   3  20    0.52    0.31
   6   3 -20    0.46    0.33
  -6  -3 -20    0.81    0.36
  -6  -3  20    0.82    0.33
  -6   3 -20    1.17    0.41
   6  -3 -20    0.97    0.35
  -7   3  20    6.52    0.77
   7   3 -20    5.02    0.64
  -7  -3 -20    5.79    0.66
  -7   3 -20    5.87    0.67
   7  -3 -20    5.95    0.64
  -7  -3  20    5.98    0.70
  -8   3  20    0.63    0.51
   8   3 -20    0.79    0.35
  -8  -3 -20    0.39    0.38
  -8   3 -20    0.91    0.41
   8  -3 -20    0.92    0.42
  -8  -3  20   -0.15    0.44
  -9   3  20   -0.67    0.46
  -9  -3 -20    1.28    0.46
   9   3 -20    0.64    0.36
  -9  -3  20   -0.70    0.44
   9  -3 -20    0.49    0.34
  -9   3 -20    0.19    0.47
 -10   3  20    3.22    0.73
 -10  -3 -20    2.88    0.59
  10   3 -20    2.61    0.60
 -10  -3  20    2.16    0.64
  10  -3 -20    1.70    0.54
 -10   3 -20    2.29    0.57
   0   4  20   -0.05    0.19
   0  -4  20   -0.04    0.20
   1  -4  20   11.26    0.72
  -1   4  20   10.18    0.69
   1   4 -20   10.47    0.60
  -1  -4  20    8.08    0.65
   1   4  20    9.63    0.69
   2   4 -20   10.77    0.63
   2  -4  20   10.79    0.68
  -2   4  20    9.67    0.69
  -2  -4  20   10.44    0.70
   2   4  20   11.52    0.73
   2  -4 -20    9.90    0.57
  -3   4  20   23.12    1.07
   3   4 -20   22.41    1.03
  -3   4 -20   23.33    1.13
   3   4  20   23.94    1.07
   3  -4 -20   23.37    0.96
  -3  -4  20   21.36    1.03
   4   4 -20    3.02    0.45
  -4   4  20    3.14    0.44
  -4  -4 -20    2.65    0.42
   4  -4 -20    3.49    0.44
  -4   4 -20    3.57    0.52
  -4  -4  20    3.20    0.48
  -5  -4 -20    7.13    0.66
   5   4 -20    7.23    0.69
  -5   4  20    8.06    0.64
   5  -4 -20    8.82    0.62
  -5   4 -20    7.54    0.64
  -5  -4  20    8.05    0.62
  -6   4  20   38.12    1.63
  -6  -4 -20   34.60    1.49
   6   4 -20   36.93    1.55
  -6  -4  20   36.23    1.55
   6  -4 -20   38.89    1.50
  -6   4 -20   37.29    1.62
   7   4 -20    5.43    0.63
  -7  -4 -20    4.35    0.59
  -7   4  20    4.02    0.65
  -7   4 -20    4.48    0.61
   7  -4 -20    4.49    0.58
  -7  -4  20    4.94    0.61
  -8  -4 -20    1.74    0.47
  -8   4  20    1.84    0.58
   8   4 -20    2.66    0.56
   8  -4 -20    1.77    0.40
  -8  -4  20    1.41    0.51
  -8   4 -20    2.81    0.62
  -9  -4 -20    1.33    0.45
  -9   4  20    0.45    0.55
   9   4 -20    1.76    0.46
  -9   4 -20    0.90    0.44
   9  -4 -20    1.73    0.52
  -9  -4  20    1.32    0.53
 -10  -4 -20    0.90    0.46
  10   4 -20   -0.03    0.43
 -10   4  20    0.17    0.57
 -10   4 -20    0.58    0.43
  10  -4 -20    1.64    0.53
 -10  -4  20   -0.12    0.50
   0   5  20    8.44    0.65
   0  -5  20    8.76    0.65
   0   5 -20    9.24    0.56
  -1   5  20    2.69    0.43
   1   5 -20    2.63    0.36
   1  -5  20    2.77    0.41
  -1   5 -20    2.38    0.32
  -1  -5  20    2.34    0.37
   1   5  20    2.60    0.39
   2  -5  20    4.57    0.55
   2   5 -20    4.90    0.50
  -2   5  20    4.60    0.53
  -2  -5  20    5.62    0.55
   2   5  20    5.74    0.55
  -3   5  20    1.79    0.35
   3   5 -20    1.70    0.36
   3   5  20    1.53    0.37
   3  -5 -20    1.84    0.31
  -3  -5  20    1.77    0.38
  -3   5 -20    2.06    0.43
   4   5 -20    0.82    0.33
  -4   5  20    1.12    0.31
   4   5  20    1.20    0.35
  -4   5 -20    1.61    0.36
   4  -5 -20    1.74    0.34
  -4  -5  20    1.30    0.37
  -5  -5 -20    1.35    0.35
  -5   5  20    1.55    0.43
   5   5 -20    1.40    0.39
  -5  -5  20    0.87    0.37
  -5   5 -20    1.11    0.41
   5  -5 -20    1.56    0.35
   6   5 -20    2.02    0.46
  -6  -5 -20    1.78    0.40
  -6   5  20    1.40    0.39
   6  -5 -20    1.84    0.36
  -6   5 -20    1.17    0.42
  -6  -5  20    1.77    0.43
  -7  -5 -20    2.49    0.47
   7   5 -20    1.60    0.47
  -7   5  20    1.43    0.43
  -7   5 -20    1.74    0.51
  -7  -5  20    1.61    0.48
   7  -5 -20    1.43    0.43
   8   5 -20    0.18    0.40
  -8  -5 -20    0.07    0.31
  -8   5  20    0.03    0.37
  -8  -5  20   -0.39    0.42
  -8   5 -20   -0.41    0.38
   8  -5 -20   -0.02    0.36
  -9  -5 -20    6.17    0.72
   9   5 -20    7.70    0.87
  -9   5  20    6.98    0.87
  -9   5 -20    9.92    0.99
  -9  -5  20    6.67    0.81
   9  -5 -20    7.49    0.77
 -10  -5 -20    0.50    0.39
  10   5 -20   -0.33    0.44
 -10   5  20   -0.58    0.53
 -10  -5  20   -0.43    0.42
  10  -5 -20    0.19    0.45
 -10   5 -20   -0.16    0.50
   0   6  20   22.82    1.04
   0   6 -20   21.97    0.96
   0  -6  20   19.53    1.00
   1  -6  20    2.15    0.41
  -1   6  20    2.00    0.39
   1   6 -20    2.54    0.38
  -1  -6  20    2.15    0.39
   1   6  20    2.47    0.41
  -2   6  20    3.23    0.46
   2  -6  20    3.44    0.45
   2   6 -20    3.08    0.43
  -2  -6  20    3.35    0.45
   2   6  20    2.97    0.45
  -3   6  20    1.75    0.39
   3   6 -20    2.65    0.39
   3   6  20    2.41    0.42
  -3  -6  20    1.97    0.39
   3  -6 -20    1.77    0.32
  -3   6 -20    1.98    0.43
   4   6 -20   40.59    1.64
  -4   6  20   38.69    1.58
   4   6  20   43.70    1.61
  -4  -6  20   38.23    1.55
  -4   6 -20   42.19    1.68
   4  -6 -20   38.72    1.51
  -5   6  20    6.91    0.70
   5   6 -20    8.26    0.76
  -5   6 -20    7.54    0.74
   5  -6 -20    6.66    0.62
  -5  -6  20    6.18    0.65
  -6  -6 -20    1.00    0.35
   6   6 -20    2.04    0.42
  -6   6  20    1.17    0.44
  -6   6 -20    1.75    0.48
   6  -6 -20    1.34    0.38
  -6  -6  20    1.61    0.42
   7   6 -20    6.50    0.75
  -7   6  20    4.68    0.68
  -7  -6 -20    4.70    0.58
   7  -6 -20    6.19    0.67
  -7   6 -20    4.57    0.65
  -7  -6  20    4.63    0.62
   8   6 -20    5.80    0.71
  -8  -6 -20    5.71    0.64
  -8   6  20    4.83    0.75
  -8  -6  20    6.24    0.75
  -8   6 -20    6.62    0.79
   8  -6 -20    8.02    0.79
   9   6 -20    3.29    0.66
  -9   6  20    2.28    0.64
  -9   6 -20    2.38    0.54
   9  -6 -20    2.87    0.60
  -9  -6  20    3.07    0.64
   0   7 -20    0.13    0.22
   0  -7  20   -0.10    0.24
   0   7  20    0.14    0.28
  -1   7  20    4.77    0.52
   1  -7  20    4.69    0.53
   1   7 -20    4.58    0.51
  -1   7 -20    4.31    0.49
  -1  -7  20    3.87    0.48
   1   7  20    5.85    0.57
   2   7 -20    0.20    0.26
   2  -7  20   -0.10    0.26
  -2   7  20    0.38    0.29
   2   7  20    0.45    0.30
  -2  -7  20   -0.34    0.24
  -3   7  20    6.07    0.59
   3   7 -20    5.70    0.61
   3   7  20    5.79    0.59
   3  -7 -20    4.88    0.48
  -3  -7  20    5.84    0.57
  -3   7 -20    5.36    0.61
   4   7 -20    1.51    0.40
  -4   7  20    1.47    0.39
  -4   7 -20    2.08    0.46
   4  -7 -20    1.86    0.35
  -4  -7  20    0.65    0.31
  -5   7  20    1.04    0.40
   5   7 -20    1.22    0.42
   5  -7 -20    1.02    0.35
  -5  -7  20    1.03    0.38
  -5   7 -20    1.24    0.40
   6   7 -20    3.79    0.62
  -6   7  20    2.96    0.56
   6  -7 -20    3.88    0.54
  -6  -7  20    4.17    0.55
  -6   7 -20    4.29    0.61
  -7   7  20   -0.46    0.39
   7   7 -20    0.08    0.39
   7  -7 -20   -0.40    0.32
  -7  -7  20    0.41    0.40
  -7   7 -20    0.00    0.29
  -8   7  20    2.08    0.57
   8   7 -20    1.98    0.55
  -8  -7  20    1.64    0.54
  -8   7 -20    1.35    0.51
   8  -7 -20    1.65    0.42
  -9   7  20    1.04    0.55
   9   7 -20    2.50    0.61
   9  -7 -20    1.36    0.50
  -9   7 -20    2.46    0.59
   0  -8  20   13.75    0.79
   0   8 -20   12.75    0.76
   1  -8  20   10.56    0.71
  -1   8  20   12.35    0.78
   1   8 -20   11.00    0.73
  -1  -8  20   11.69    0.72
  -1   8 -20   11.72    0.72
   2   8 -20   15.26    0.89
  -2   8  20   15.79    0.86
   2  -8  20   15.84    0.87
  -2  -8  20   13.77    0.84
   3   8 -20    2.51    0.48
  -3   8  20    2.65    0.44
  -3  -8  20    3.22    0.45
   4   8 -20    0.07    0.24
  -4   8  20    0.44    0.32
  -4  -8  20    0.04    0.29
   4  -8 -20    0.15    0.26
  -4   8 -20    0.25    0.33
  -5   8  20    2.97    0.53
   5   8 -20    4.03    0.61
  -5   8 -20    3.77    0.57
   5  -8 -20    2.95    0.47
   6   8 -20    1.73    0.43
  -6   8  20    1.61    0.46
  -6   8 -20    1.15    0.44
   6  -8 -20    1.56    0.42
  -7   8  20    2.48    0.55
   7   8 -20    3.49    0.66
  -7   8 -20    3.49    0.60
   7  -8 -20    2.87    0.53
  -8   8  20   -0.44    0.43
   8   8 -20    0.73    0.48
  -8   8 -20    0.72    0.43
   8  -8 -20    0.54    0.43
   0   9 -20    0.36    0.29
   0  -9  20    0.17    0.27
   1  -9  20    1.10    0.34
   1   9 -20    0.59    0.31
  -1   9 -20    0.92    0.33
   2  -9  20    4.68    0.55
   2   9 -20    5.16    0.61
  -2   9 -20    4.44    0.54
   3  -9  20    0.67    0.35
   3   9 -20    0.35    0.27
   4   9 -20   -0.18    0.34
  -4   9 -20    0.19    0.31
   4  -9 -20    0.12    0.27
   5   9 -20    1.21    0.38
  -5   9 -20    0.76    0.39
   5  -9 -20    0.11    0.28
   6   9 -20    1.16    0.49
  -6   9 -20    0.51    0.40
   6  -9 -20    0.30    0.35
   7   9 -20    1.56    0.54
   7  -9 -20    0.10    0.38
  -7   9 -20    1.29    0.46
   8   9 -20    0.56    0.48
   8  -9 -20    1.05    0.48
   0  10 -20    2.89    0.47
   1  10 -20    4.93    0.59
  -1  10 -20    4.79    0.58
   2  10 -20    5.18    0.65
  -2  10 -20    6.12    0.64
   3  10 -20    1.25    0.38
   4  10 -20    1.53    0.51
   5  10 -20    5.44    0.75
   5 -10 -20    5.76    0.64
   6  10 -20    1.14    0.53
   6 -10 -20    0.79    0.39
   7  10 -20    1.39    0.54
   7 -10 -20    2.23    0.51
   0  11 -20   -0.12    0.31
   1  11 -20    2.53    0.51
  -1  11 -20    2.73    0.51
   2  11 -20    1.12    0.43
  -2  11 -20    1.43    0.41
   3  11 -20    6.39    0.77
   4  11 -20    0.94    0.48
   5  11 -20    3.42    0.68
   5 -11 -20    2.49    0.50
   6  11 -20    0.52    0.50
   6 -11 -20    0.17    0.37
   0  12 -20    3.07    0.57
   1  12 -20    2.52    0.54
  -1  12 -20    2.67    0.53
   2  12 -20    3.07    0.61
  -2  12 -20    2.85    0.55
   3  12 -20    2.47    0.58
   4  12 -20    8.56    0.95
   0  13 -20   -0.14    0.37
   1  13 -20   -0.06    0.37
  -1  13 -20    0.85    0.41
   2  13 -20    3.18    0.58
  -2  13 -20    4.02    0.65
   0   0  21   -0.07    0.20
   1   0  21    0.32    0.23
  -1   0  21    0.39    0.31
  -2   0  21    6.26    0.62
   2   0  21    6.74    0.63
  -3   0 -21   36.59    1.49
  -3   0  21   37.10    1.49
   3   0 -21   34.82    1.35
   4   0 -21   12.03    0.68
  -4   0 -21   14.98    0.84
  -4   0  21   13.48    0.86
  -5   0  21    2.09    0.47
   5   0 -21    2.02    0.37
  -5   0 -21    2.83    0.50
   6   0 -21    0.64    0.25
  -6   0  21   -0.11    0.26
  -6   0 -21    0.57    0.31
  -7   0 -21    6.49    0.76
   7   0 -21    6.40    0.68
  -7   0  21    6.64    0.77
  -8   0 -21    7.06    0.79
  -8   0  21    6.89    0.78
   8   0 -21    6.71    0.71
  -9   0 -21    0.32    0.48
  -9   0  21    0.16    0.40
   9   0 -21    0.36    0.42
 -10   0  21    0.31    0.45
 -10   0 -21    1.18    0.54
  10   0 -21    0.51    0.45
   0  -1  21   24.10    1.14
   0   1  21   24.51    1.12
  -1   1  21    3.21    0.48
   1  -1  21    2.92    0.46
   1   1 -21    2.79    0.33
   1   1  21    3.75    0.46
  -1  -1  21    3.46    0.50
   2  -1  21    7.73    0.65
   2   1 -21    8.40    0.57
  -2   1  21    8.79    0.68
   2   1  21    7.88    0.60
  -2  -1  21    7.63    0.59
   3   1 -21    0.08    0.21
  -3   1  21   -0.25    0.19
   3  -1 -21    0.21    0.20
  -3  -1  21    0.05    0.29
  -3   1 -21   -0.35    0.27
  -4   1  21    5.56    0.59
  -4  -1 -21    5.51    0.59
   4   1 -21    5.98    0.55
   4  -1 -21    6.14    0.51
  -4  -1  21    5.80    0.63
  -4   1 -21    5.75    0.63
  -5  -1 -21    3.58    0.54
   5   1 -21    2.92    0.43
  -5   1  21    2.74    0.46
  -5  -1  21    3.14    0.53
  -5   1 -21    2.42    0.45
   5  -1 -21    2.57    0.41
  -6   1  21    4.56    0.64
  -6  -1 -21    6.05    0.68
   6   1 -21    3.67    0.52
   6  -1 -21    3.65    0.51
  -6  -1  21    3.83    0.59
  -6   1 -21    4.19    0.62
  -7   1  21   13.47    0.99
   7   1 -21   12.06    0.85
  -7  -1 -21   12.63    0.92
  -7   1 -21   11.45    0.84
  -7  -1  21   11.03    0.92
   7  -1 -21   12.89    0.86
  -8  -1 -21    1.58    0.50
  -8   1  21    1.04    0.55
   8   1 -21    1.57    0.47
  -8   1 -21    2.09    0.55
   8  -1 -21    1.93    0.47
  -8  -1  21    1.65    0.56
  -9   1  21    4.29    0.78
   9   1 -21    3.84    0.67
  -9  -1 -21    4.56    0.66
  -9  -1  21    4.70    0.68
   9  -1 -21    4.87    0.71
  -9   1 -21    5.35    0.79
 -10   1  21   -0.46    0.56
 -10  -1 -21    0.31    0.35
  10   1 -21    0.53    0.38
 -10   1 -21    1.81    0.63
  10  -1 -21    1.83    0.55
 -10  -1  21    0.42    0.44
   0   2  21    7.79    0.65
   0  -2  21    7.90    0.59
   1   2 -21   30.47    1.12
  -1   2  21   30.50    1.30
   1  -2  21   28.16    1.25
  -1  -2  21   29.48    1.29
   1   2  21   27.63    1.24
   2   2 -21    0.72    0.24
   2  -2  21    1.06    0.30
  -2   2  21    0.76    0.34
  -2  -2  21    0.41    0.32
   2  -2 -21    0.35    0.21
   2   2  21    0.45    0.32
   3   2 -21    7.59    0.54
  -3   2  21    6.47    0.63
  -3  -2  21    8.02    0.60
  -3   2 -21    7.77    0.62
   3  -2 -21    7.62    0.54
   3   2  21    7.39    0.59
  -4   2  21   21.45    1.07
  -4  -2 -21   20.46    1.04
   4   2 -21   22.03    1.01
   4  -2 -21   21.55    0.97
  -4  -2  21   21.48    1.10
  -4   2 -21   21.71    1.09
  -5  -2 -21    3.71    0.54
  -5   2  21    3.99    0.52
   5   2 -21    3.80    0.50
  -5   2 -21    3.79    0.52
  -5  -2  21    4.73    0.61
   5  -2 -21    3.64    0.47
   6   2 -21    4.15    0.55
  -6  -2 -21    4.17    0.59
  -6   2  21    3.73    0.60
  -6  -2  21    3.74    0.58
   6  -2 -21    3.70    0.48
  -6   2 -21    3.91    0.56
  -7   2  21    2.76    0.53
   7   2 -21    2.95    0.52
  -7  -2 -21    3.00    0.56
  -7  -2  21    3.54    0.55
  -7   2 -21    3.33    0.60
   7  -2 -21    2.71    0.50
  -8  -2 -21    0.99    0.45
   8   2 -21    0.65    0.43
  -8   2  21    1.22    0.56
  -8   2 -21    1.20    0.43
  -8  -2  21    0.44    0.50
   8  -2 -21    1.68    0.46
  -9  -2 -21    9.59    0.91
  -9   2  21   10.17    1.04
   9   2 -21    9.36    0.93
  -9  -2  21   10.30    0.87
  -9   2 -21   11.10    1.05
   9  -2 -21   10.51    0.96
 -10   2  21    2.71    0.62
  10   2 -21    2.99    0.58
 -10  -2 -21    2.57    0.63
 -10   2 -21    4.04    0.77
 -10  -2  21    2.24    0.56
  10  -2 -21    2.82    0.61
   0   3  21   19.21    1.00
   0  -3  21   19.07    0.99
  -1   3  21    4.65    0.52
   1  -3  21    5.84    0.60
  -1  -3  21    6.51    0.60
   1   3  21    6.40    0.62
   2  -3  21   24.64    1.13
   2   3 -21   24.92    1.03
  -2   3  21   23.11    1.13
   2   3  21   25.26    1.13
  -2  -3  21   23.96    1.14
   3   3 -21   25.28    1.11
  -3   3  21   25.96    1.21
  -3  -3  21   26.68    1.18
   3   3  21   25.76    1.20
   3  -3 -21   27.08    1.07
  -3   3 -21   25.81    1.23
   4   3 -21   14.89    0.84
  -4  -3 -21   17.19    0.93
  -4   3  21   14.81    0.92
  -4  -3  21   15.94    0.92
  -4   3 -21   14.77    0.89
   4  -3 -21   15.77    0.80
   5   3 -21    3.10    0.46
  -5   3  21    2.55    0.45
  -5  -3 -21    2.91    0.44
  -5   3 -21    3.31    0.55
   5  -3 -21    2.79    0.43
  -5  -3  21    3.34    0.53
   6   3 -21    1.06    0.32
  -6   3  21    0.87    0.43
  -6  -3 -21    1.62    0.37
  -6   3 -21    1.82    0.43
  -6  -3  21    0.88    0.42
   6  -3 -21    1.17    0.36
  -7   3  21    1.22    0.41
  -7  -3 -21    1.06    0.43
   7   3 -21    2.28    0.49
  -7  -3  21    1.84    0.51
   7  -3 -21    1.28    0.40
  -7   3 -21    2.89    0.57
  -8   3  21    6.73    0.77
  -8  -3 -21    6.59    0.75
   8   3 -21    7.30    0.80
   8  -3 -21    6.87    0.70
  -8  -3  21    5.62    0.77
  -8   3 -21    7.91    0.83
  -9   3  21    3.20    0.63
  -9  -3 -21    3.58    0.57
   9   3 -21    3.98    0.66
  -9   3 -21    3.76    0.73
  -9  -3  21    4.10    0.64
   9  -3 -21    3.37    0.56
 -10  -3 -21    5.88    0.76
  10   3 -21    5.38    0.79
 -10   3  21    5.93    0.90
 -10  -3  21    5.17    0.81
  10  -3 -21    5.99    0.80
 -10   3 -21    7.21    0.94
   0   4 -21    1.71    0.30
   0   4  21    1.68    0.40
   0  -4  21    1.43    0.35
   1  -4  21   -0.02    0.22
  -1   4  21    0.57    0.31
   1   4 -21   -0.03    0.18
  -1  -4  21   -0.31    0.29
   1   4  21   -0.33    0.27
   2  -4  21   21.24    1.03
  -2   4  21   20.65    1.01
   2   4 -21   19.45    0.92
   2   4  21   21.63    1.06
  -2  -4  21   21.15    1.04
  -3   4  21    5.36    0.56
   3   4 -21    6.18    0.58
   3  -4 -21    5.67    0.46
  -3   4 -21    6.88    0.65
   3   4  21    7.10    0.65
  -3  -4  21    7.91    0.64
   4   4 -21    2.86    0.44
  -4   4  21    2.23    0.46
  -4   4 -21    2.59    0.44
   4  -4 -21    2.66    0.38
  -4  -4  21    2.37    0.46
   4   4  21    2.93    0.46
  -5   4  21    3.72    0.56
   5   4 -21    3.20    0.49
  -5  -4 -21    3.99    0.53
   5  -4 -21    4.18    0.48
  -5   4 -21    4.24    0.56
  -5  -4  21    3.71    0.55
  -6   4  21    0.09    0.29
   6   4 -21    0.05    0.32
  -6  -4 -21    0.27    0.31
  -6   4 -21   -0.16    0.27
   6  -4 -21    0.26    0.29
  -6  -4  21    0.15    0.35
  -7   4  21    6.38    0.79
  -7  -4 -21    6.38    0.69
   7   4 -21    6.81    0.74
   7  -4 -21    6.33    0.68
  -7  -4  21    7.46    0.78
  -7   4 -21    8.38    0.81
  -8   4  21   12.41    1.02
   8   4 -21    9.36    0.79
  -8  -4 -21   10.27    0.77
  -8   4 -21   10.05    0.94
  -8  -4  21    8.95    0.89
   8  -4 -21   11.57    0.87
  -9   4  21    3.97    0.69
   9   4 -21    3.07    0.63
  -9  -4 -21    4.80    0.69
   9  -4 -21    4.93    0.70
  -9  -4  21    3.84    0.72
  -9   4 -21    3.76    0.72
   0  -5  21    9.04    0.68
   0   5  21    9.52    0.70
   1  -5  21    7.73    0.65
  -1   5  21    7.58    0.64
   1   5 -21    7.78    0.54
  -1  -5  21    8.14    0.65
   1   5  21    7.91    0.65
   2  -5  21    7.92    0.67
   2   5 -21    7.48    0.56
  -2   5  21    7.61    0.64
   2   5  21    7.45    0.63
  -2  -5  21    6.61    0.63
   3   5 -21    3.55    0.43
  -3   5  21    2.65    0.46
   3   5  21    3.40    0.50
  -3  -5  21    3.33    0.48
   3  -5 -21    3.07    0.39
  -3   5 -21    3.43    0.53
   4   5 -21    0.77    0.33
  -4   5  21    0.92    0.40
  -4   5 -21    1.22    0.40
   4  -5 -21    0.66    0.27
  -4  -5  21    0.70    0.28
   4   5  21    1.49    0.38
   5   5 -21    9.81    0.74
  -5   5  21    9.01    0.69
  -5  -5 -21    8.44    0.67
   5  -5 -21    8.39    0.63
  -5   5 -21    9.28    0.78
  -5  -5  21    8.84    0.72
  -6   5  21    0.41    0.43
   6   5 -21    0.81    0.39
  -6  -5 -21    0.85    0.34
   6  -5 -21    0.56    0.33
  -6  -5  21    0.46    0.40
  -6   5 -21   -0.39    0.34
   7   5 -21    3.14    0.53
  -7   5  21    4.77    0.70
  -7  -5 -21    3.79    0.55
  -7   5 -21    4.10    0.64
   7  -5 -21    3.59    0.55
  -7  -5  21    2.77    0.56
  -8  -5 -21    2.01    0.47
  -8   5  21    0.88    0.56
   8   5 -21    1.19    0.47
  -8  -5  21    1.22    0.51
  -8   5 -21    1.54    0.55
   8  -5 -21    1.28    0.44
  -9   5  21    5.92    0.84
  -9  -5 -21    5.22    0.68
   9   5 -21    4.36    0.68
  -9   5 -21    6.30    0.78
   9  -5 -21    4.07    0.67
  -9  -5  21    6.02    0.79
   0   6  21    2.16    0.40
   0  -6  21    1.61    0.34
   0   6 -21    2.07    0.34
   1   6 -21    5.36    0.53
  -1   6  21    6.00    0.60
   1  -6  21    5.67    0.59
  -1  -6  21    5.69    0.57
   1   6  21    6.72    0.64
   2   6 -21    8.06    0.61
   2  -6  21    8.80    0.68
  -2   6  21    8.46    0.67
   2   6  21    9.00    0.70
  -2  -6  21    7.97    0.64
  -3   6  21    6.00    0.58
   3   6 -21    5.10    0.57
  -3   6 -21    6.42    0.66
  -3  -6  21    5.68    0.59
   3   6  21    5.96    0.61
  -4   6  21   -0.16    0.29
   4   6 -21    0.05    0.29
   4   6  21    0.35    0.30
  -4   6 -21   -0.03    0.23
   4  -6 -21    0.09    0.25
  -4  -6  21    0.54    0.34
   5   6 -21    4.61    0.60
  -5   6  21    3.64    0.52
   5   6  21    3.92    0.51
   5  -6 -21    4.24    0.51
  -5   6 -21    5.23    0.62
  -5  -6  21    4.03    0.54
  -6   6  21    4.79    0.66
  -6  -6 -21    3.62    0.51
   6   6 -21    4.08    0.60
  -6   6 -21    4.47    0.60
  -6  -6  21    3.57    0.55
   6  -6 -21    4.85    0.57
  -7   6  21   -0.23    0.43
   7   6 -21    1.39    0.48
  -7  -6 -21    1.28    0.38
  -7   6 -21    1.30    0.40
   7  -6 -21    1.06    0.41
  -7  -6  21    1.42    0.41
   8   6 -21    4.49    0.70
  -8   6  21    3.24    0.59
  -8  -6 -21    3.46    0.55
  -8  -6  21    2.93    0.61
  -8   6 -21    3.65    0.58
   8  -6 -21    3.09    0.59
  -9   6  21    5.70    0.84
   9   6 -21    5.85    0.76
  -9   6 -21    7.39    0.90
  -9  -6  21    6.66    0.81
   9  -6 -21    7.37    0.78
   0  -7  21    0.99    0.32
   0   7 -21    0.40    0.26
   0   7  21    0.11    0.29
   1   7 -21    5.59    0.56
  -1   7  21    5.20    0.57
   1  -7  21    5.84    0.59
   1   7  21    6.52    0.64
  -1  -7  21    5.17    0.57
   2   7 -21    2.22    0.43
   2  -7  21    2.22    0.43
  -2   7  21    2.36    0.44
  -2  -7  21    2.27    0.41
   2   7  21    2.83    0.46
   3   7 -21   15.64    0.88
  -3   7  21   16.14    0.92
   3   7  21   17.28    0.93
  -3  -7  21   14.58    0.86
   4   7 -21    5.66    0.64
  -4   7  21    4.43    0.57
  -4  -7  21    4.71    0.57
   4  -7 -21    4.83    0.51
  -4   7 -21    6.24    0.65
   5   7 -21    1.33    0.44
  -5   7  21    1.18    0.42
  -5   7 -21    0.86    0.42
  -5  -7  21    1.14    0.40
   5  -7 -21    1.64    0.38
   6   7 -21    0.20    0.29
  -6   7  21    0.58    0.44
  -6  -7  21   -0.24    0.34
  -6   7 -21   -0.04    0.27
   6  -7 -21    0.26    0.36
  -7   7  21    4.70    0.65
   7   7 -21    6.78    0.80
  -7  -7  21    5.33    0.68
  -7   7 -21    5.13    0.71
   7  -7 -21    6.20    0.68
   8   7 -21    0.49    0.45
  -8   7  21    0.59    0.51
   8  -7 -21    0.83    0.43
  -8  -7  21   -0.22    0.47
  -8   7 -21    0.58    0.46
   0  -8  21   -0.06    0.26
   0   8 -21    0.42    0.28
  -1   8  21    0.13    0.28
   1   8 -21    0.55    0.30
   1  -8  21    0.37    0.29
  -1   8 -21    0.70    0.30
  -1  -8  21    0.10    0.28
   2  -8  21    1.92    0.43
  -2   8  21    2.50    0.45
   2   8 -21    1.48    0.39
  -2  -8  21    2.65    0.43
   3   8 -21   -0.40    0.29
  -3   8  21   -0.33    0.25
   3  -8  21    0.14    0.31
  -3  -8  21   -0.06    0.26
   4   8 -21    1.98    0.49
  -4   8  21    2.72    0.50
   4  -8 -21    2.62    0.41
  -4  -8  21    2.25    0.43
  -4   8 -21    3.38    0.54
  -5   8  21    1.39    0.44
   5   8 -21    0.95    0.44
  -5   8 -21    1.18    0.43
   5  -8 -21    1.00    0.34
  -6   8  21    2.51    0.57
   6   8 -21    4.30    0.67
  -6   8 -21    3.95    0.57
   6  -8 -21    2.89    0.51
   7   8 -21    0.38    0.34
  -7   8  21   -0.50    0.39
  -7   8 -21    0.29    0.40
   7  -8 -21    0.33    0.38
  -8   8  21    6.94    0.84
   8   8 -21    7.41    0.86
  -8   8 -21    6.91    0.81
   8  -8 -21    7.04    0.80
   0   9 -21    2.52    0.43
   0  -9  21    2.06    0.41
   1   9 -21    0.48    0.30
   1  -9  21    0.68    0.33
  -1   9 -21    0.78    0.33
   2   9 -21    4.49    0.58
   2  -9  21    4.08    0.54
   3  -9  21    1.21    0.41
   3   9 -21    0.33    0.36
   4   9 -21    5.27    0.69
  -4   9 -21    4.48    0.61
   5   9 -21    1.35    0.49
  -5   9 -21    0.31    0.37
   5  -9 -21    0.92    0.36
   6   9 -21   10.94    1.03
   6  -9 -21    9.89    0.80
  -6   9 -21   11.07    0.89
   7   9 -21    0.08    0.33
  -7   9 -21    0.04    0.30
   7  -9 -21    0.24    0.38
   0  10 -21    5.66    0.63
   1  10 -21    9.80    0.71
  -1  10 -21    9.25    0.74
   2  10 -21    5.51    0.67
   3  10 -21    1.75    0.50
   4  10 -21    4.56    0.68
   5  10 -21   14.27    1.08
   5 -10 -21   14.05    0.92
   6  10 -21    6.23    0.83
   6 -10 -21    6.64    0.72
   0  11 -21    9.25    0.79
   1  11 -21    1.57    0.46
  -1  11 -21    0.96    0.42
   2  11 -21    0.05    0.33
   3  11 -21    7.44    0.82
   4  11 -21    0.73    0.47
   5  11 -21    6.71    0.86
   0  12 -21    1.90    0.51
   1  12 -21    2.93    0.55
  -1  12 -21    1.89    0.48
   2  12 -21    7.72    0.83
   3  12 -21    3.86    0.65
   0   0  22    0.85    0.30
   1   0  22   13.46    0.79
  -1   0  22   12.40    0.77
  -2   0  22   12.12    0.77
   2   0  22   13.19    0.84
  -3   0  22    3.17    0.47
   3   0 -22    3.09    0.39
   3   0  22    4.97    0.58
   4   0 -22   27.12    1.16
  -4   0 -22   29.57    1.34
  -4   0  22   27.09    1.27
  -5   0 -22    0.37    0.37
  -5   0  22    0.82    0.33
   5   0 -22    0.62    0.27
  -6   0 -22   14.03    0.97
   6   0 -22   12.98    0.84
  -6   0  22   15.98    1.01
   7   0 -22    3.90    0.52
  -7   0 -22    3.50    0.64
  -7   0  22    2.94    0.61
  -8   0  22    1.26    0.56
  -8   0 -22    0.52    0.48
   8   0 -22    0.24    0.28
   9   0 -22    0.69    0.45
  -9   0  22    0.45    0.57
  -9   0 -22    0.01    0.35
 -10   0  22    0.58    0.61
 -10   0 -22    0.65    0.42
  10   0 -22    0.99    0.41
   0  -1  22    1.53    0.35
   0   1  22    1.35    0.39
   1  -1  22    0.30    0.32
  -1   1  22    0.62    0.27
   1   1  22   -0.16    0.20
  -1  -1  22    0.06    0.30
   2  -1  22    9.24    0.66
  -2   1  22    7.46    0.62
   2   1  22    9.31    0.72
  -2  -1  22    8.38    0.70
  -3   1  22    3.87    0.50
   3   1 -22    3.81    0.43
  -3  -1  22    3.83    0.54
   3  -1 -22    3.79    0.42
   3   1  22    3.81    0.52
  -4   1  22    4.38    0.55
  -4  -1 -22    3.63    0.55
   4   1 -22    4.40    0.49
  -4  -1  22    4.54    0.58
   4  -1 -22    3.82    0.45
  -4   1 -22    5.49    0.61
  -5   1  22   12.26    0.88
   5   1 -22   13.08    0.78
  -5  -1 -22   13.35    0.89
  -5  -1  22   12.01    0.87
  -5   1 -22   13.35    0.90
   5  -1 -22   10.99    0.73
  -6  -1 -22    5.60    0.68
  -6   1  22    5.61    0.70
   6   1 -22    3.88    0.54
  -6  -1  22    4.79    0.65
  -6   1 -22    4.86    0.62
   6  -1 -22    4.54    0.57
  -7  -1 -22    5.24    0.66
  -7   1  22    5.23    0.73
   7   1 -22    5.20    0.65
  -7  -1  22    4.69    0.64
  -7   1 -22    5.78    0.73
   7  -1 -22    5.61    0.65
  -8   1  22    0.91    0.45
  -8  -1 -22    0.52    0.47
   8   1 -22    0.53    0.41
   8  -1 -22    0.55    0.33
  -8   1 -22    0.81    0.39
  -8  -1  22    0.81    0.53
   9   1 -22    4.62    0.71
  -9   1  22    5.12    0.75
  -9  -1 -22    4.75    0.71
  -9   1 -22    4.87    0.77
   9  -1 -22    3.46    0.61
  -9  -1  22    4.82    0.79
 -10  -1 -22    2.03    0.63
  10   1 -22    0.76    0.49
 -10   1  22    1.34    0.55
  10  -1 -22    2.21    0.59
 -10   1 -22    2.14    0.66
 -10  -1  22    3.29    0.75
   0  -2  22    9.54    0.74
   0   2  22    9.26    0.67
   1  -2  22    4.99    0.55
  -1   2  22    4.51    0.53
   1   2  22    4.97    0.55
  -1  -2  22    5.05    0.56
   2  -2  22    2.39    0.46
  -2   2  22    2.57    0.42
   2   2 -22    2.31    0.33
   2   2  22    2.38    0.46
  -2  -2  22    1.51    0.35
  -3   2  22    3.80    0.50
   3   2 -22    3.26    0.41
   3   2  22    3.14    0.49
   3  -2 -22    3.22    0.39
  -3  -2  22    3.01    0.50
  -4   2  22    0.46    0.29
   4   2 -22    0.57    0.28
  -4  -2 -22    0.51    0.35
  -4   2 -22    0.33    0.35
  -4  -2  22    0.16    0.35
   4  -2 -22    0.51    0.25
  -5  -2 -22    0.85    0.39
   5   2 -22    0.53    0.31
  -5   2  22    0.89    0.42
  -5  -2  22    0.56    0.39
   5  -2 -22    1.12    0.32
  -5   2 -22    0.88    0.42
  -6  -2 -22    2.84    0.53
  -6   2  22    2.22    0.53
   6   2 -22    1.99    0.45
  -6  -2  22    2.09    0.43
   6  -2 -22    1.96    0.41
  -6   2 -22    2.67    0.55
  -7   2  22    2.78    0.61
  -7  -2 -22    3.08    0.53
   7   2 -22    2.86    0.53
   7  -2 -22    1.91    0.46
  -7   2 -22    3.49    0.65
  -7  -2  22    2.39    0.56
  -8  -2 -22    5.61    0.68
   8   2 -22    5.04    0.68
  -8   2  22    3.75    0.72
  -8   2 -22    4.14    0.72
   8  -2 -22    5.55    0.68
  -8  -2  22    3.95    0.70
   9   2 -22    1.16    0.50
  -9   2  22    0.27    0.62
  -9  -2 -22    1.70    0.55
  -9  -2  22    0.80    0.60
  -9   2 -22    2.96    0.67
   9  -2 -22    1.16    0.48
   0  -3  22    0.73    0.36
   0   3  22    0.45    0.35
  -1   3  22   20.83    1.05
   1  -3  22   21.50    1.07
   1   3  22   19.05    1.04
  -1  -3  22   18.78    1.03
   2   3 -22    6.16    0.48
  -2   3  22    5.76    0.62
   2  -3  22    6.05    0.64
  -2  -3  22    4.76    0.53
   2   3  22    7.00    0.58
  -3   3  22   19.49    1.04
   3   3 -22   19.05    0.92
  -3   3 -22   19.65    1.03
   3   3  22   20.86    1.05
   3  -3 -22   19.39    0.87
  -3  -3  22   18.45    0.98
  -4   3  22    0.63    0.31
   4   3 -22    0.35    0.28
   4   3  22    0.37    0.26
   4  -3 -22    0.27    0.24
  -4   3 -22    0.10    0.33
  -4  -3  22    0.54    0.36
   5   3 -22   16.54    0.94
  -5  -3 -22   16.92    0.98
  -5   3  22   17.55    1.04
  -5   3 -22   16.77    1.04
  -5  -3  22   16.95    1.01
   5  -3 -22   16.82    0.89
  -6  -3 -22    2.15    0.46
  -6   3  22    1.60    0.50
   6   3 -22    1.85    0.39
   6  -3 -22    1.56    0.39
  -6  -3  22    1.59    0.47
  -6   3 -22    1.77    0.51
  -7  -3 -22    0.48    0.40
   7   3 -22    0.45    0.31
  -7   3  22    0.85    0.51
  -7  -3  22    0.16    0.42
   7  -3 -22    0.53    0.36
  -7   3 -22    1.64    0.53
   8   3 -22    1.04    0.46
  -8   3  22    1.41    0.61
  -8  -3 -22    1.32    0.49
  -8   3 -22    1.05    0.53
  -8  -3  22    0.68    0.51
   8  -3 -22    0.60    0.40
   9   3 -22    2.00    0.58
  -9  -3 -22    2.36    0.58
  -9   3  22    2.23    0.69
  -9  -3  22    3.29    0.71
  -9   3 -22    2.77    0.67
   9  -3 -22    2.11    0.55
   0   4  22    8.90    0.70
   0  -4  22    8.66    0.71
   1  -4  22    4.66    0.54
  -1   4  22    4.91    0.55
   1   4 -22    4.58    0.45
  -1  -4  22    5.07    0.55
   1   4  22    5.01    0.60
   2   4 -22   32.34    1.32
  -2   4  22   32.37    1.42
   2  -4  22   36.38    1.50
  -2  -4  22   35.76    1.44
   2   4  22   35.53    1.48
   3   4 -22   19.29    0.96
  -3   4  22   21.20    1.04
   3   4  22   20.01    1.06
  -3  -4  22   20.29    1.05
  -4   4  22    3.70    0.55
   4   4 -22    4.14    0.51
  -4   4 -22    4.32    0.60
  -4  -4  22    2.82    0.51
   4   4  22    3.62    0.53
   4  -4 -22    3.59    0.45
   5   4 -22    2.75    0.44
  -5   4  22    3.75    0.58
  -5  -4 -22    2.77    0.48
  -5  -4  22    2.44    0.50
  -5   4 -22    2.93    0.56
   5  -4 -22    2.83    0.43
   6   4 -22    8.77    0.75
  -6   4  22    8.91    0.86
  -6  -4 -22    8.62    0.72
  -6   4 -22    8.06    0.83
  -6  -4  22    8.46    0.80
   6  -4 -22    8.04    0.67
  -7   4  22    0.47    0.47
  -7  -4 -22   -0.37    0.31
   7   4 -22   -0.26    0.35
  -7  -4  22    0.65    0.47
  -7   4 -22    1.23    0.51
   7  -4 -22    0.36    0.35
   8   4 -22    1.77    0.50
  -8  -4 -22    3.14    0.57
  -8   4  22    2.03    0.63
   8  -4 -22    2.74    0.53
  -8   4 -22    1.65    0.56
  -8  -4  22    2.65    0.62
  -9  -4 -22    4.55    0.67
  -9   4  22    2.33    0.69
   9   4 -22    4.48    0.72
  -9   4 -22    4.46    0.78
   9  -4 -22    3.57    0.63
  -9  -4  22    2.58    0.55
   0  -5  22   22.61    1.13
   0   5  22   23.29    1.13
   1  -5  22    8.64    0.70
   1   5 -22    8.63    0.60
  -1   5  22    8.04    0.63
  -1  -5  22    8.54    0.69
   1   5  22    9.44    0.73
   2  -5  22    2.19    0.45
  -2   5  22    1.41    0.34
   2   5 -22    1.94    0.35
  -2  -5  22    1.68    0.41
   2   5  22    1.89    0.44
   3   5 -22   10.11    0.69
  -3   5  22   11.22    0.80
   3   5  22   11.71    0.80
  -3  -5  22   10.16    0.75
  -4   5  22    2.69    0.51
   4   5 -22    3.10    0.48
  -4  -5  22    2.79    0.44
   4   5  22    4.12    0.54
  -4   5 -22    4.36    0.56
   4  -5 -22    3.00    0.41
  -5   5  22   12.59    0.89
   5   5 -22   11.84    0.83
  -5  -5  22   12.42    0.79
   5  -5 -22   11.65    0.75
   5   5  22   11.87    0.81
  -5   5 -22   12.40    0.84
  -6   5  22    7.58    0.77
  -6  -5 -22    7.65    0.74
   6   5 -22    9.02    0.71
   6  -5 -22    8.72    0.70
  -6  -5  22    8.39    0.68
  -6   5 -22    8.51    0.85
  -7  -5 -22    0.33    0.35
  -7   5  22    0.23    0.34
   7   5 -22   -0.08    0.36
  -7  -5  22   -0.53    0.37
  -7   5 -22    0.91    0.39
   7  -5 -22   -0.26    0.31
   8   5 -22    1.43    0.45
  -8   5  22    2.46    0.55
  -8  -5 -22    1.29    0.48
  -8   5 -22    1.76    0.57
  -8  -5  22    0.51    0.52
   8  -5 -22    1.94    0.50
  -9  -5 -22    1.77    0.49
  -9   5  22   -0.06    0.54
   9   5 -22    1.01    0.51
  -9   5 -22    1.29    0.56
   9  -5 -22    0.98    0.48
  -9  -5  22   -0.30    0.50
   0  -6  22   15.15    0.89
   0   6  22   14.34    0.87
   0   6 -22   13.58    0.78
   1   6 -22    1.94    0.36
   1  -6  22    2.15    0.39
  -1   6  22    2.32    0.44
   1   6  22    2.24    0.45
  -1  -6  22    1.89    0.37
  -2   6  22    1.29    0.37
   2   6 -22    1.42    0.34
   2  -6  22    1.40    0.40
  -2  -6  22    0.47    0.33
   2   6  22    2.01    0.44
   3   6 -22    3.74    0.50
   3  -6  22    4.52    0.60
  -3   6  22    4.16    0.56
  -3  -6  22    4.39    0.55
   3   6  22    3.93    0.54
   4   6 -22    3.45    0.52
  -4   6  22    2.96    0.52
   4  -6 -22    3.78    0.46
  -4  -6  22    3.13    0.50
  -4   6 -22    3.41    0.55
   4   6  22    3.31    0.51
  -5   6  22    1.60    0.47
   5   6 -22    2.07    0.41
   5  -6 -22    1.37    0.36
  -5  -6  22    1.18    0.41
  -5   6 -22    1.94    0.50
   5   6  22    0.96    0.37
  -6   6  22    3.57    0.63
   6   6 -22    3.29    0.58
   6  -6 -22    3.47    0.52
  -6  -6  22    3.32    0.56
  -6   6 -22    3.65    0.60
   7   6 -22    0.79    0.35
  -7  -6 -22    0.70    0.37
  -7   6  22    0.36    0.50
   7  -6 -22    0.74    0.38
  -7  -6  22    0.75    0.46
  -7   6 -22    1.03    0.48
  -8   6  22    9.30    0.99
   8   6 -22   10.08    0.97
  -8   6 -22   10.38    1.01
  -8  -6  22   10.38    0.94
   8  -6 -22   10.15    0.79
   0   7  22   29.78    1.31
   0   7 -22   26.19    1.20
   0  -7  22   29.22    1.29
   1  -7  22    0.14    0.32
   1   7 -22    0.30    0.26
  -1   7  22    0.02    0.29
  -1  -7  22    0.12    0.29
   1   7  22    0.43    0.34
   2   7 -22    1.49    0.35
   2  -7  22    1.88    0.45
  -2   7  22    0.75    0.36
  -2  -7  22    1.29    0.37
   2   7  22    1.77    0.42
   3   7 -22    3.18    0.50
  -3   7  22    3.85    0.54
   3  -7  22    3.21    0.54
  -3  -7  22    2.86    0.47
   3   7  22    3.88    0.55
   4   7 -22    0.43    0.35
  -4   7  22    1.34    0.42
  -4   7 -22    1.38    0.44
  -4  -7  22    1.07    0.37
   5   7 -22    1.90    0.48
  -5   7  22    2.11    0.50
  -5   7 -22    2.38    0.50
  -5  -7  22    1.48    0.42
   5  -7 -22    2.20    0.43
  -6   7  22    3.77    0.64
   6   7 -22    5.03    0.68
  -6  -7  22    3.23    0.55
   6  -7 -22    3.97    0.55
  -6   7 -22    4.12    0.64
  -7   7  22    1.47    0.56
   7   7 -22    2.14    0.53
  -7   7 -22    1.54    0.52
  -7  -7  22    1.00    0.48
   7  -7 -22    1.24    0.43
  -8   7  22    0.93    0.54
   8   7 -22    1.83    0.57
  -8   7 -22    3.17    0.65
   8  -7 -22    1.55    0.50
   0   8 -22    0.21    0.26
   0  -8  22    0.02    0.30
   1   8 -22    5.86    0.62
  -1   8  22    5.77    0.62
   1  -8  22    5.69    0.59
  -1  -8  22    6.21    0.61
   2  -8  22    1.51    0.42
  -2   8  22    1.25    0.40
   2   8 -22    1.09    0.35
  -2  -8  22    1.35    0.39
   3  -8  22    3.67    0.55
  -3   8  22    3.03    0.50
   3   8 -22    2.51    0.48
  -3  -8  22    2.12    0.42
  -4   8  22    5.52    0.64
   4   8 -22    7.04    0.74
  -4  -8  22    6.00    0.64
  -4   8 -22    7.18    0.76
   5   8 -22    1.39    0.47
  -5   8  22    1.02    0.37
   5  -8 -22    0.54    0.33
  -5   8 -22    0.87    0.43
   6   8 -22    0.72    0.45
  -6   8  22    0.58    0.46
   6  -8 -22    1.06    0.41
  -6   8 -22    0.76    0.44
   7   8 -22    1.67    0.55
  -7   8  22    0.86    0.53
  -7   8 -22    2.88    0.60
   7  -8 -22    3.10    0.57
   0  -9  22    5.36    0.61
   0   9 -22    5.48    0.62
   1  -9  22    2.11    0.45
   1   9 -22    2.82    0.47
   2   9 -22    1.81    0.42
   2  -9  22    2.36    0.46
   3  -9  22    2.67    0.51
   3   9 -22    2.67    0.52
   4   9 -22    4.06    0.59
   5   9 -22    0.96    0.46
  -5   9 -22    0.68    0.40
   6   9 -22    0.30    0.33
   6  -9 -22    0.81    0.40
  -6   9 -22    0.61    0.42
   0  10 -22    0.45    0.31
   1  10 -22    7.96    0.76
   2  10 -22    6.77    0.72
   3  10 -22   -0.20    0.34
   4  10 -22    0.31    0.34
   5  10 -22    5.98    0.80
   6 -10 -22    3.13    0.55
   0  11 -22   12.72    0.91
   1  11 -22    1.65    0.44
  -1  11 -22    1.55    0.49
   2  11 -22    0.64    0.38
   3  11 -22    0.04    0.36
   4  11 -22    2.26    0.56
   0  12 -22    4.24    0.64
   1  12 -22    3.11    0.58
  -1  12 -22    3.92    0.61
   2  12 -22    2.14    0.52
   0   0  23    0.37    0.34
  -1   0  23   16.92    0.96
   1   0  23   13.92    0.86
   2   0  23    1.20    0.41
  -2   0  23    0.84    0.40
  -3   0  23   15.34    0.95
   3   0  23   15.46    0.94
   3   0 -23   13.27    0.75
  -4   0  23    0.13    0.27
   4   0 -23   -0.12    0.21
  -4   0 -23    0.36    0.27
  -5   0 -23    2.71    0.48
  -5   0  23    1.55    0.41
   5   0 -23    2.08    0.40
  -6   0  23    9.37    0.88
   6   0 -23    7.20    0.70
  -6   0 -23    7.22    0.81
   7   0 -23    1.25    0.41
  -7   0 -23    0.98    0.40
  -7   0  23    0.51    0.38
  -8   0  23    1.68    0.49
   8   0 -23    2.73    0.53
  -8   0 -23    2.62    0.53
  -9   0 -23   13.47    1.08
  -9   0  23   11.82    1.14
   9   0 -23   11.30    1.03
   0  -1  23   13.01    0.82
   0   1  23   13.75    0.89
   1  -1  23   34.65    1.50
  -1   1  23   36.51    1.52
  -1  -1  23   34.50    1.47
   1   1  23   32.29    1.44
  -2   1  23    1.73    0.45
   2  -1  23    2.03    0.41
   2   1  23    1.74    0.44
  -2  -1  23    2.03    0.40
   3   1 -23    2.09    0.34
  -3   1  23    2.81    0.45
   3  -1  23    2.88    0.46
   3   1  23    2.65    0.49
  -3  -1  23    2.35    0.47
   3  -1 -23    2.35    0.35
   4   1 -23    3.10    0.44
  -4   1  23    3.90    0.54
  -4  -1 -23    3.75    0.53
  -4   1 -23    5.56    0.65
  -4  -1  23    3.63    0.57
   4  -1 -23    4.61    0.49
  -5   1  23    4.84    0.66
   5   1 -23    3.95    0.52
  -5  -1 -23    5.40    0.66
  -5  -1  23    4.47    0.65
  -5   1 -23    4.76    0.64
   5  -1 -23    4.02    0.50
  -6  -1 -23    1.13    0.38
  -6   1  23    0.78    0.36
   6   1 -23    0.59    0.27
   6  -1 -23    0.32    0.31
  -6  -1  23    0.68    0.35
  -6   1 -23   -0.20    0.37
  -7   1  23    0.67    0.52
   7   1 -23    1.02    0.41
  -7  -1 -23    0.66    0.46
  -7   1 -23    0.70    0.50
  -7  -1  23    1.12    0.53
   7  -1 -23    1.49    0.38
  -8   1  23    1.73    0.62
   8   1 -23    1.98    0.50
  -8  -1 -23    2.29    0.59
  -8  -1  23    2.49    0.56
  -8   1 -23    3.57    0.67
   8  -1 -23    2.57    0.53
  -9   1  23    4.50    0.81
   9   1 -23    6.37    0.79
  -9  -1 -23    5.75    0.80
  -9  -1  23    5.12    0.74
  -9   1 -23    4.29    0.75
   9  -1 -23    4.88    0.71
   0   2  23    0.06    0.32
   0  -2  23    0.53    0.34
  -1   2  23    3.61    0.54
   1  -2  23    5.19    0.58
   1   2  23    4.53    0.55
  -1  -2  23    4.11    0.57
  -2   2  23    0.91    0.39
   2  -2  23    0.85    0.38
  -2  -2  23    1.25    0.40
   2   2  23    0.76    0.35
  -3   2  23    2.61    0.45
   3   2 -23    2.44    0.38
   3  -2  23    3.62    0.55
   3   2  23    3.42    0.51
  -3  -2  23    3.35    0.54
  -4   2  23    3.22    0.49
   4   2 -23    3.56    0.47
  -4   2 -23    3.53    0.52
  -4  -2  23    3.39    0.54
   4   2  23    3.61    0.49
   4  -2 -23    3.63    0.46
  -5  -2 -23    6.02    0.69
   5   2 -23    6.51    0.65
  -5   2  23    7.15    0.76
  -5  -2  23    6.69    0.74
   5  -2 -23    6.14    0.59
  -5   2 -23    6.04    0.69
   6   2 -23   10.34    0.78
  -6  -2 -23   11.45    0.80
  -6   2  23    9.30    0.78
  -6  -2  23    9.56    0.77
   6  -2 -23   10.80    0.75
  -6   2 -23   11.22    0.91
  -7  -2 -23    1.58    0.49
   7   2 -23    2.34    0.50
  -7   2  23    2.03    0.58
   7  -2 -23    1.22    0.36
  -7  -2  23    0.51    0.49
  -7   2 -23    1.37    0.53
   8   2 -23    0.36    0.40
  -8  -2 -23    0.30    0.44
  -8   2  23    0.73    0.56
  -8  -2  23   -0.36    0.46
   8  -2 -23    0.15    0.37
  -8   2 -23    0.49    0.51
  -9  -2 -23    1.76    0.56
   9   2 -23    0.93    0.48
  -9   2  23   -0.68    0.55
   9  -2 -23    0.93    0.39
  -9   2 -23    0.97    0.46
  -9  -2  23    0.56    0.46
   0  -3  23    1.68    0.44
   0   3  23    0.65    0.30
   1  -3  23    5.64    0.60
  -1   3  23    5.80    0.60
  -1  -3  23    5.33    0.63
   1   3  23    5.17    0.62
   2  -3  23   10.76    0.79
  -2   3  23   10.23    0.78
   2   3 -23    8.42    0.58
  -2  -3  23   11.58    0.80
   2   3  23   10.38    0.72
   3  -3  23    2.42    0.49
   3   3 -23    2.31    0.38
  -3   3  23    2.59    0.49
  -3  -3  23    2.40    0.48
   3   3  23    1.95    0.41
  -4   3  23    3.13    0.50
   4   3 -23    2.68    0.42
   4  -3 -23    3.31    0.43
  -4   3 -23    2.98    0.49
  -4  -3  23    2.98    0.51
   4   3  23    2.61    0.50
  -5  -3 -23    4.23    0.58
   5   3 -23    4.41    0.55
  -5   3  23    3.99    0.61
   5  -3 -23    4.41    0.51
  -5   3 -23    5.64    0.66
  -5  -3  23    4.99    0.66
   6   3 -23    3.99    0.57
  -6   3  23    4.12    0.59
  -6  -3 -23    4.03    0.60
  -6   3 -23    4.67    0.68
  -6  -3  23    3.58    0.53
   6  -3 -23    3.38    0.50
  -7   3  23   17.63    1.17
  -7  -3 -23   16.01    0.99
   7   3 -23   18.02    1.02
   7  -3 -23   15.82    0.94
  -7   3 -23   17.11    1.08
  -7  -3  23   17.38    1.12
  -8  -3 -23    4.76    0.64
   8   3 -23    5.30    0.72
  -8   3  23    4.71    0.79
  -8  -3  23    5.92    0.75
   8  -3 -23    6.71    0.76
  -8   3 -23    6.31    0.83
   9   3 -23   -0.32    0.41
  -9   3  23   -0.37    0.41
  -9  -3 -23   -0.21    0.41
   9  -3 -23   -0.09    0.40
  -9  -3  23   -0.72    0.48
  -9   3 -23   -0.12    0.35
   0  -4  23    4.67    0.60
   0   4  23    5.43    0.62
   1  -4  23   15.62    0.90
  -1   4  23   14.99    0.93
  -1  -4  23   15.92    0.94
   1   4  23   15.81    0.95
  -2   4  23    0.44    0.36
   2   4 -23    0.21    0.24
   2  -4  23    1.03    0.42
  -2  -4  23    1.05    0.39
   2   4  23    0.05    0.32
   3  -4  23    7.26    0.72
  -3   4  23    6.88    0.67
   3   4 -23    5.75    0.57
  -3  -4  23    6.03    0.67
   3   4  23    5.80    0.64
  -4   4  23    7.82    0.77
   4   4 -23    7.14    0.66
  -4   4 -23    8.66    0.80
   4   4  23    8.36    0.65
   4  -4 -23    6.79    0.56
  -4  -4  23    7.62    0.74
  -5   4  23    2.98    0.50
   5   4 -23    3.23    0.51
   5  -4 -23    2.59    0.42
  -5   4 -23    3.14    0.52
  -5  -4  23    2.43    0.53
  -6   4  23    4.53    0.68
  -6  -4 -23    4.56    0.60
   6   4 -23    3.52    0.57
  -6   4 -23    5.04    0.71
  -6  -4  23    4.24    0.61
   6  -4 -23    4.05    0.54
  -7  -4 -23    1.53    0.49
   7   4 -23    1.39    0.46
  -7   4  23    1.37    0.57
  -7  -4  23    1.66    0.55
   7  -4 -23    1.25    0.42
  -7   4 -23    2.22    0.58
   8   4 -23    2.62    0.57
  -8  -4 -23    3.28    0.61
  -8   4  23    1.42    0.63
  -8   4 -23    3.96    0.72
   8  -4 -23    2.73    0.49
  -8  -4  23    2.47    0.65
   9   4 -23    1.51    0.53
  -9   4  23    0.77    0.49
  -9  -4 -23    0.80    0.47
  -9   4 -23    0.00    0.37
   9  -4 -23    0.55    0.35
  -9  -4  23    1.09    0.61
   0   5  23    1.52    0.42
   0  -5  23    1.02    0.34
   1  -5  23    6.17    0.66
   1   5 -23    5.62    0.53
  -1   5  23    5.34    0.63
   1   5  23    6.72    0.68
  -1  -5  23    4.20    0.53
   2  -5  23    8.99    0.70
  -2   5  23    8.44    0.67
   2   5 -23    9.83    0.64
  -2  -5  23   10.00    0.70
   2   5  23    9.90    0.77
   3  -5  23   11.47    0.78
   3   5 -23   10.95    0.72
  -3   5  23   11.35    0.83
  -3  -5  23    9.91    0.72
   3   5  23   11.30    0.82
  -4   5  23    6.37    0.72
   4   5 -23    7.57    0.70
   4   5  23    8.49    0.76
  -4   5 -23    8.45    0.82
  -4  -5  23    7.80    0.64
  -5   5  23   20.81    1.15
   5   5 -23   17.85    1.04
  -5   5 -23   21.47    1.19
   5  -5 -23   18.36    0.97
   5   5  23   20.86    1.09
  -5  -5  23   18.04    1.01
   6   5 -23    1.31    0.45
  -6   5  23    0.87    0.49
  -6  -5 -23    0.81    0.39
  -6  -5  23    1.28    0.47
   6  -5 -23    0.76    0.36
  -6   5 -23    0.47    0.44
  -7   5  23   13.08    1.03
   7   5 -23   13.23    0.97
  -7  -5 -23   11.48    0.86
  -7  -5  23   12.88    0.97
   7  -5 -23   10.99    0.84
  -7   5 -23   11.73    1.05
  -8  -5 -23    0.40    0.38
  -8   5  23    0.94    0.61
   8   5 -23    0.80    0.47
  -8   5 -23    0.24    0.47
   8  -5 -23    0.65    0.42
  -8  -5  23    0.27    0.48
   0   6  23   24.47    1.18
   0  -6  23   26.23    1.24
   1   6 -23    1.92    0.36
   1  -6  23    2.08    0.41
  -1   6  23    1.37    0.42
  -1  -6  23    1.57    0.42
   1   6  23    1.52    0.42
   2  -6  23    5.49    0.66
  -2   6  23    5.87    0.65
   2   6 -23    5.86    0.58
  -2  -6  23    6.82    0.67
   2   6  23    7.41    0.71
   3  -6  23   -0.35    0.34
  -3   6  23    0.14    0.35
   3   6 -23    0.19    0.27
  -3  -6  23    0.08    0.34
   3   6  23   -0.19    0.30
   4   6 -23    0.36    0.26
  -4   6  23    1.02    0.35
  -4  -6  23    0.72    0.38
  -4   6 -23    0.25    0.30
   4   6  23    1.06    0.39
  -5   6  23   10.01    0.89
   5   6 -23   10.91    0.82
  -5  -6  23    9.50    0.78
   5   6  23    9.65    0.76
  -5   6 -23   10.57    0.80
   5  -6 -23    8.99    0.69
  -6   6  23    2.14    0.56
   6   6 -23    2.99    0.50
   6  -6 -23    3.15    0.51
  -6   6 -23    3.70    0.65
  -6  -6  23    2.75    0.55
   6   6  23    2.41    0.49
  -7  -6 -23    0.89    0.39
   7   6 -23    0.20    0.41
  -7   6  23    0.16    0.49
   7  -6 -23    0.43    0.36
  -7   6 -23    0.12    0.43
  -7  -6  23    0.00    0.45
  -8   6  23    0.50    0.43
   8   6 -23   -0.08    0.41
  -8  -6  23    0.59    0.53
   8  -6 -23    1.09    0.45
  -8   6 -23    0.64    0.52
   0  -7  23    3.34    0.54
   0   7  23    4.33    0.57
   1  -7  23   15.09    0.93
   1   7 -23   14.62    0.84
  -1   7  23   14.00    0.90
  -1  -7  23   14.82    0.90
   1   7  23   16.19    0.94
   2   7 -23    5.29    0.58
  -2   7  23    6.47    0.68
   2  -7  23    6.53    0.70
  -2  -7  23    5.96    0.64
   2   7  23    5.86    0.66
  -3   7  23    1.14    0.41
   3   7 -23    1.76    0.42
   3  -7  23    0.98    0.42
  -3  -7  23    1.52    0.42
   3   7  23    2.39    0.49
  -4   7  23    4.91    0.63
   4   7 -23    5.24    0.64
  -4  -7  23    4.09    0.58
  -4   7 -23    5.46    0.67
   5   7 -23    2.98    0.49
  -5   7  23    1.90    0.52
  -5  -7  23    2.20    0.51
  -5   7 -23    2.80    0.56
  -6   7  23    1.09    0.48
   6   7 -23    1.05    0.44
  -6   7 -23    1.21    0.48
  -6  -7  23    0.54    0.43
   6  -7 -23    0.24    0.37
  -7   7  23    3.66    0.61
   7   7 -23    5.08    0.73
  -7  -7  23    3.07    0.61
  -7   7 -23    5.31    0.69
   7  -7 -23    4.80    0.62
   0  -8  23    3.06    0.50
   1  -8  23    7.13    0.71
   1   8 -23    5.44    0.60
  -1  -8  23    5.78    0.63
   2  -8  23    4.59    0.61
  -2   8  23    5.30    0.62
   2   8 -23    4.78    0.58
  -2  -8  23    4.90    0.59
   3  -8  23    1.20    0.44
   3   8 -23    2.40    0.47
  -3   8  23    1.78    0.46
  -3  -8  23    2.07    0.43
   4  -8  23    1.82    0.44
  -4   8  23    2.19    0.50
   4   8 -23    2.11    0.50
  -4  -8  23    1.93    0.49
  -5   8  23    0.23    0.42
   5   8 -23    0.43    0.38
  -5   8 -23    0.66    0.43
   6   8 -23    2.47    0.57
  -6   8  23    0.79    0.50
  -6   8 -23    1.98    0.54
   6  -8 -23    2.15    0.47
   7   8 -23    6.06    0.77
  -7   8  23    5.12    0.75
  -7   8 -23    6.57    0.80
   7  -8 -23    7.16    0.76
   0  -9  23    4.33    0.59
   1   9 -23   14.30    0.89
   1  -9  23   15.48    0.95
   2  -9  23   21.69    1.14
   2   9 -23   19.89    1.12
   3   9 -23    2.74    0.53
   3  -9  23    3.02    0.54
   4   9 -23    1.92    0.52
   4  -9  23    2.44    0.54
   5   9 -23    0.97    0.45
  -5   9 -23    0.47    0.42
   6   9 -23    0.78    0.47
  -6   9 -23    1.30    0.50
   0  10 -23    1.09    0.39
   1  10 -23   -0.02    0.33
   2  10 -23    0.24    0.33
   3  10 -23    2.27    0.47
   4  10 -23    3.24    0.62
   5  10 -23    0.45    0.46
   0  11 -23    2.46    0.50
   1  11 -23    1.53    0.45
   2  11 -23    1.17    0.45
   3  11 -23    1.96    0.52
   0   0  24   32.05    1.47
   1   0  24    0.63    0.30
  -1   0  24    0.21    0.28
   2   0  24    5.22    0.60
  -2   0  24    6.75    0.67
   3   0  24   27.71    1.30
  -3   0  24   28.06    1.36
  -4   0  24    0.39    0.41
   4   0 -24    1.69    0.34
  -5   0  24   11.48    0.82
   5   0 -24    9.55    0.71
  -5   0 -24   12.63    0.92
   6   0 -24    7.76    0.74
  -6   0  24    8.28    0.85
  -6   0 -24    9.79    0.78
   7   0 -24    1.43    0.43
  -7   0 -24    1.67    0.55
  -7   0  24    0.73    0.52
  -8   0 -24   -0.02    0.48
   8   0 -24    0.13    0.38
  -8   0  24    0.11    0.41
   9   0 -24    2.00    0.54
  -9   0  24    2.18    0.61
  -9   0 -24    2.30    0.65
   0  -1  24   19.19    1.05
   0   1  24   20.46    1.11
   1  -1  24   10.89    0.83
  -1   1  24   10.53    0.76
  -1  -1  24   11.03    0.84
   1   1  24   10.74    0.76
  -2   1  24   25.51    1.27
   2  -1  24   23.53    1.23
  -2  -1  24   26.43    1.27
   2   1  24   23.52    1.23
   3   1 -24    8.84    0.61
   3  -1  24   11.14    0.83
  -3   1  24   11.54    0.85
  -3  -1  24   11.77    0.79
   3   1  24   10.38    0.75
  -4   1  24    2.60    0.47
   4   1 -24    1.84    0.39
  -4   1 -24    1.87    0.42
  -4  -1  24    1.92    0.49
   4  -1 -24    2.00    0.37
   4   1  24    1.87    0.47
  -5   1  24    3.04    0.58
   5   1 -24    1.67    0.39
  -5  -1 -24    2.04    0.50
  -5  -1  24    1.82    0.51
  -5   1 -24    1.14    0.37
   5  -1 -24    2.13    0.39
  -6  -1 -24    3.06    0.60
  -6   1  24    2.93    0.54
   6   1 -24    3.10    0.52
   6  -1 -24    3.11    0.49
  -6   1 -24    4.39    0.69
  -6  -1  24    3.01    0.54
  -7   1  24    1.58    0.58
   7   1 -24    0.85    0.41
  -7  -1 -24    2.37    0.58
  -7   1 -24    1.57    0.47
   7  -1 -24    1.62    0.46
  -7  -1  24    2.16    0.60
  -8  -1 -24    7.96    0.89
   8   1 -24    5.62    0.72
  -8   1  24    5.26    0.84
  -8  -1  24    4.94    0.79
  -8   1 -24    6.28    0.84
   8  -1 -24    5.78    0.71
  -9   1  24    1.45    0.66
  -9  -1 -24    2.06    0.54
   9   1 -24    3.48    0.63
  -9  -1  24    1.51    0.69
   9  -1 -24    2.77    0.57
  -9   1 -24    2.61    0.58
   0   2  24    3.81    0.57
   0  -2  24    3.07    0.54
  -1   2  24   16.37    0.94
   1  -2  24   15.39    0.92
   1   2  24   16.60    0.95
  -1  -2  24   15.76    0.93
   2  -2  24    0.37    0.30
  -2   2  24    0.56    0.38
  -2  -2  24    0.39    0.29
   2   2  24    0.85    0.39
  -3   2  24   11.82    0.87
   3  -2  24   10.88    0.78
   3   2 -24   11.16    0.69
   3   2  24   12.35    0.81
  -3  -2  24   12.29    0.88
   4   2 -24   16.75    0.90
  -4   2  24   17.13    1.00
  -4  -2  24   17.98    1.06
   4   2  24   18.05    1.04
   4  -2 -24   15.69    0.85
  -4   2 -24   19.01    1.10
  -5  -2 -24    1.51    0.48
  -5   2  24    1.83    0.52
   5   2 -24    1.34    0.38
  -5   2 -24    1.02    0.47
   5  -2 -24    1.26    0.34
  -5  -2  24    1.78    0.49
  -6   2  24    3.72    0.64
   6   2 -24    4.97    0.61
  -6  -2 -24    2.57    0.56
  -6  -2  24    4.11    0.64
   6  -2 -24    3.35    0.51
  -6   2 -24    3.88    0.60
  -7   2  24    3.06    0.58
  -7  -2 -24    4.50    0.68
   7   2 -24    3.48    0.57
  -7  -2  24    3.62    0.67
  -7   2 -24    4.36    0.66
   7  -2 -24    4.13    0.60
  -8  -2 -24    5.95    0.80
  -8   2  24    5.30    0.76
   8   2 -24    5.73    0.74
  -8   2 -24    7.47    0.86
   8  -2 -24    6.05    0.73
  -8  -2  24    5.13    0.80
  -9  -2 -24    1.77    0.50
  -9   2  24    2.43    0.62
   9   2 -24    3.69    0.66
  -9   2 -24    4.04    0.75
   9  -2 -24    2.17    0.56
  -9  -2  24    2.21    0.68
   0   3  24    5.17    0.66
   0  -3  24    4.87    0.63
  -1   3  24    7.43    0.74
   1  -3  24    6.40    0.67
  -1  -3  24    6.78    0.66
   1   3  24    6.23    0.70
   2  -3  24    2.81    0.54
  -2   3  24    3.06    0.47
  -2  -3  24    2.43    0.49
   2   3  24    2.37    0.49
  -3   3  24   17.76    1.05
   3   3 -24   15.99    0.86
   3  -3  24   16.74    0.97
   3   3  24   17.99    1.03
  -3  -3  24   17.90    1.04
  -4   3  24    0.99    0.37
   4   3 -24    0.53    0.30
  -4  -3  24    0.43    0.40
   4   3  24    0.68    0.39
  -4   3 -24    0.05    0.38
  -5   3  24    4.71    0.70
   5   3 -24    4.48    0.58
   5  -3 -24    5.33    0.57
  -5  -3  24    5.75    0.69
  -5   3 -24    5.87    0.73
   6   3 -24    1.95    0.44
  -6   3  24    1.82    0.54
  -6  -3 -24    1.29    0.45
  -6   3 -24    1.51    0.43
  -6  -3  24    1.41    0.50
   6  -3 -24    1.01    0.38
  -7  -3 -24    9.51    0.90
   7   3 -24    8.88    0.84
  -7   3  24    8.29    0.86
  -7   3 -24    6.54    0.84
  -7  -3  24    8.99    0.90
   7  -3 -24    8.06    0.78
  -8  -3 -24    8.21    0.87
   8   3 -24    7.75    0.86
  -8   3  24    6.42    0.82
  -8   3 -24    8.19    0.90
   8  -3 -24    7.89    0.81
  -8  -3  24    7.43    0.89
   0   4  24   14.63    0.95
   0  -4  24   14.19    0.94
   1  -4  24   21.03    1.08
  -1   4  24   20.84    1.08
  -1  -4  24   19.27    1.05
   1   4  24   19.49    1.06
   2  -4  24   14.05    0.88
  -2   4  24   15.18    0.95
   2   4 -24   13.42    0.79
  -2  -4  24   13.01    0.84
   2   4  24   16.69    0.98
   3   4 -24    0.60    0.28
   3  -4  24    0.58    0.33
  -3   4  24    0.68    0.32
   3   4  24    0.53    0.38
  -3  -4  24    0.67    0.40
   4   4 -24    0.16    0.27
  -4   4  24    0.56    0.41
  -4   4 -24    0.72    0.43
  -4  -4  24    0.32    0.38
   4   4  24    1.03    0.40
  -5   4  24    1.63    0.51
   5   4 -24    1.06    0.39
   5  -4 -24    1.40    0.36
   5   4  24    1.62    0.44
  -5   4 -24    1.68    0.50
  -5  -4  24    1.65    0.50
  -6   4  24    6.29    0.73
  -6  -4 -24    8.21    0.80
   6   4 -24    7.67    0.78
  -6   4 -24    8.38    0.85
   6  -4 -24    7.76    0.71
  -6  -4  24    6.23    0.69
  -7  -4 -24    2.00    0.45
   7   4 -24    3.44    0.58
  -7   4  24    2.29    0.54
  -7  -4  24    3.51    0.66
  -7   4 -24    2.52    0.52
   7  -4 -24    2.30    0.49
  -8   4  24    0.65    0.45
  -8  -4 -24    0.49    0.33
   8   4 -24    1.06    0.47
  -8   4 -24    0.93    0.44
   8  -4 -24    1.03    0.45
  -8  -4  24    0.85    0.45
   0  -5  24    4.54    0.62
   0   5  24    4.91    0.62
   1  -5  24   12.51    0.89
  -1   5  24   12.00    0.88
  -1  -5  24   13.69    0.90
   1   5  24   13.47    0.85
   2  -5  24    9.22    0.77
   2   5 -24    7.26    0.58
  -2   5  24    8.15    0.78
  -2  -5  24    7.56    0.74
   2   5  24    7.97    0.77
  -3   5  24    4.57    0.63
   3   5 -24    3.96    0.51
   3  -5  24    4.76    0.64
   3   5  24    5.57    0.64
  -3  -5  24    4.16    0.58
  -4   5  24    1.74    0.42
   4   5 -24    2.13    0.44
  -4  -5  24    2.70    0.52
   4   5  24    2.53    0.50
  -4   5 -24    3.14    0.53
   5   5 -24    1.39    0.42
  -5   5  24    1.68    0.50
  -5  -5  24    2.52    0.52
   5   5  24    1.52    0.42
  -5   5 -24    1.39    0.41
   6   5 -24    4.13    0.61
  -6   5  24    3.33    0.63
   6   5  24    3.04    0.49
  -6  -5  24    3.38    0.59
  -6   5 -24    3.81    0.67
   6  -5 -24    3.49    0.53
  -7   5  24   10.39    1.02
  -7  -5 -24   11.44    0.88
   7   5 -24    9.40    0.93
  -7  -5  24    9.17    0.91
  -7   5 -24   12.88    1.02
   7  -5 -24   10.92    0.83
  -8   5  24    3.71    0.75
   8   5 -24    3.13    0.66
  -8  -5 -24    4.51    0.63
   8  -5 -24    3.03    0.57
  -8  -5  24    3.22    0.67
  -8   5 -24    3.64    0.71
   0  -6  24    3.06    0.56
   0   6  24    2.83    0.54
  -1   6  24   21.17    1.14
   1  -6  24   20.99    1.10
   1   6  24   22.21    1.16
  -1  -6  24   21.77    1.14
   2  -6  24   15.88    1.00
  -2   6  24   16.93    1.00
   2   6 -24   13.83    0.84
   2   6  24   17.76    1.02
  -2  -6  24   15.94    0.92
   3   6 -24    5.47    0.61
   3  -6  24    6.39    0.68
  -3   6  24    6.87    0.73
  -3  -6  24    6.51    0.69
   3   6  24    6.78    0.70
   4   6 -24    0.77    0.36
  -4   6  24    1.19    0.37
   4   6  24    1.22    0.44
  -4  -6  24    1.46    0.44
  -5   6  24    3.59    0.53
   5   6 -24    2.16    0.49
   5   6  24    2.10    0.47
  -5  -6  24    3.11    0.57
  -5   6 -24    3.30    0.60
  -6   6  24    4.79    0.66
   6   6 -24    6.27    0.74
   6  -6 -24    6.23    0.66
   6   6  24    6.39    0.69
  -6  -6  24    5.66    0.71
  -6   6 -24    7.55    0.80
  -7   6  24    3.99    0.65
   7   6 -24    4.78    0.71
  -7  -6  24    3.47    0.64
  -7   6 -24    6.04    0.80
   7  -6 -24    4.95    0.64
   0   7  24    1.62    0.45
   0  -7  24    1.00    0.41
  -1   7  24    2.68    0.50
   1  -7  24    2.61    0.51
   1   7  24    2.81    0.52
  -1  -7  24    3.10    0.47
  -2   7  24    4.48    0.63
   2   7 -24    4.86    0.57
   2  -7  24    4.92    0.65
   2   7  24    5.42    0.67
  -2  -7  24    4.60    0.60
   3   7 -24   13.92    0.89
  -3   7  24   14.11    0.95
   3  -7  24   15.93    1.00
  -3  -7  24   14.85    0.93
  -4   7  24    4.25    0.56
   4   7 -24    3.87    0.57
   4  -7  24    5.54    0.69
  -4  -7  24    4.43    0.62
  -5   7  24    3.62    0.56
   5   7 -24    3.65    0.60
  -5   7 -24    4.74    0.68
  -5  -7  24    5.22    0.65
   6   7 -24   -0.10    0.37
  -6   7  24    0.31    0.44
   6  -7 -24    0.45    0.39
  -6   7 -24    0.51    0.45
  -6  -7  24    0.56    0.44
   7   7 -24    3.93    0.68
  -7   7  24    3.05    0.66
  -7   7 -24    2.54    0.61
   7  -7 -24    2.40    0.52
  -7  -7  24    3.93    0.67
   0  -8  24    2.54    0.50
   1  -8  24    2.90    0.52
  -1  -8  24    2.66    0.49
  -2   8  24    1.30    0.44
   2   8 -24    2.07    0.41
   2  -8  24    2.20    0.49
  -2  -8  24    0.87    0.39
   3   8 -24    6.49    0.71
  -3   8  24    6.16    0.72
   3  -8  24    7.05    0.75
  -3  -8  24    6.40    0.68
  -4   8  24   18.75    1.13
   4  -8  24   21.86    1.19
   4   8 -24   18.74    1.08
  -4  -8  24   18.78    1.15
   5   8 -24    3.07    0.58
  -5   8  24    3.74    0.64
  -5   8 -24    3.33    0.61
   6   8 -24    8.61    0.86
  -6   8  24    7.11    0.79
  -6   8 -24    8.06    0.86
   0  -9  24    4.68    0.63
   1  -9  24   10.26    0.82
   1   9 -24   11.12    0.80
   2  -9  24    7.60    0.78
   2   9 -24    6.35    0.71
   3  -9  24    2.04    0.51
   3   9 -24    1.68    0.46
   4  -9  24    0.93    0.45
   4   9 -24    0.78    0.36
   5   9 -24    0.08    0.40
   1  10 -24    9.97    0.84
   2  10 -24    1.48    0.46
   3  10 -24    3.81    0.64
   4  10 -24    2.28    0.55
   1  11 -24    5.18    0.68
   2  11 -24    2.70    0.55
   0   0  25    0.02    0.36
   1   0  25   13.90    0.91
  -1   0  25   16.27    1.01
   2   0  25    4.80    0.59
  -2   0  25    4.02    0.62
  -3   0  25    1.12    0.37
   3   0  25    0.36    0.36
   4   0 -25    5.48    0.56
   4   0  25    5.72    0.65
  -4   0  25    6.89    0.77
   5   0 -25    4.24    0.53
  -5   0 -25    4.34    0.62
  -5   0  25    4.20    0.60
   6   0 -25    1.35    0.38
  -6   0  25    2.19    0.55
  -6   0 -25    1.51    0.53
  -7   0 -25    0.45    0.46
  -7   0  25    0.49    0.52
   7   0 -25    0.18    0.38
   8   0 -25    2.44    0.55
  -8   0  25    1.81    0.67
  -8   0 -25    3.16    0.70
   0  -1  25   20.17    1.17
   0   1  25   22.26    1.15
   1  -1  25    1.09    0.45
  -1   1  25    0.96    0.42
   1   1  25    1.09    0.38
  -1  -1  25    0.92    0.35
  -2   1  25    5.33    0.64
   2  -1  25    4.88    0.65
   2   1  25    5.25    0.63
  -2  -1  25    5.50    0.68
  -3   1  25   10.44    0.85
   3  -1  25   11.07    0.85
  -3  -1  25   10.96    0.87
   3   1  25    9.94    0.77
  -4   1  25    2.83    0.51
   4  -1  25    3.57    0.58
   4   1 -25    3.55    0.47
   4   1  25    2.47    0.51
  -4  -1  25    4.16    0.57
  -5  -1 -25    5.68    0.73
   5   1 -25    4.83    0.57
  -5   1  25    5.81    0.74
   5  -1 -25    5.31    0.57
  -5  -1  25    4.20    0.67
  -5   1 -25    6.50    0.78
  -6  -1 -25    2.10    0.54
  -6   1  25    1.84    0.56
   6   1 -25    1.14    0.40
  -6   1 -25    0.45    0.36
  -6  -1  25    0.82    0.39
   6  -1 -25    0.71    0.34
  -7   1  25    0.45    0.43
  -7  -1 -25    1.76    0.48
   7   1 -25    0.36    0.39
   7  -1 -25    0.83    0.38
  -7  -1  25    1.63    0.48
  -7   1 -25    0.48    0.50
  -8  -1 -25    1.07    0.51
  -8   1  25    0.40    0.46
   8   1 -25    0.84    0.45
   8  -1 -25    1.25    0.44
  -8   1 -25    1.53    0.48
  -8  -1  25    0.03    0.54
   0  -2  25   14.52    0.97
   0   2  25   13.11    0.94
  -1   2  25   13.34    0.93
   1  -2  25   14.12    0.88
   1   2  25   12.89    0.87
  -1  -2  25   11.61    0.83
   2  -2  25    2.16    0.44
  -2   2  25    1.73    0.42
   2   2  25    1.56    0.41
  -2  -2  25    3.25    0.56
  -3   2  25   11.35    0.88
   3  -2  25   11.02    0.87
   3   2  25   11.40    0.87
  -3  -2  25   11.80    0.82
   4   2 -25    1.50    0.35
   4  -2  25    1.54    0.41
  -4   2  25    0.91    0.39
   4   2  25    1.73    0.47
  -4  -2  25    1.91    0.51
  -5   2  25    1.27    0.50
   5   2 -25    1.19    0.34
  -5  -2  25    0.51    0.44
   5  -2 -25    1.14    0.34
  -5   2 -25    0.57    0.36
  -6  -2 -25    2.06    0.52
   6   2 -25    1.91    0.46
  -6   2  25    2.58    0.62
  -6   2 -25    3.81    0.67
  -6  -2  25    3.86    0.65
   6  -2 -25    2.38    0.45
  -7   2  25    5.49    0.82
  -7  -2 -25    6.93    0.77
   7   2 -25    6.60    0.74
  -7  -2  25    6.52    0.77
   7  -2 -25    5.29    0.67
  -7   2 -25    8.27    0.92
   8   2 -25    2.62    0.58
  -8   2  25    2.27    0.68
  -8  -2 -25    4.25    0.65
  -8  -2  25    2.04    0.64
  -8   2 -25    3.52    0.71
   8  -2 -25    3.11    0.58
   0   3  25    3.29    0.58
   0  -3  25    3.20    0.57
  -1   3  25    9.17    0.74
   1  -3  25    9.27    0.73
   1   3  25   10.58    0.85
  -1  -3  25   10.07    0.83
  -2   3  25   20.47    1.17
   2  -3  25   21.15    1.12
  -2  -3  25   21.89    1.18
   2   3  25   19.70    1.14
   3  -3  25    2.69    0.55
  -3   3  25    2.65    0.54
   3   3  25    2.36    0.51
  -3  -3  25    3.15    0.51
   4  -3  25    5.43    0.64
  -4   3  25    5.57    0.68
   4   3 -25    5.31    0.59
   4   3  25    5.99    0.65
  -4  -3  25    6.94    0.74
   5   3 -25    1.02    0.37
  -5   3  25    1.24    0.52
  -5   3 -25    1.42    0.42
  -5  -3  25    0.83    0.48
   5   3  25    0.25    0.27
   6   3 -25    7.69    0.76
  -6  -3 -25    6.87    0.78
  -6   3  25    7.49    0.86
   6  -3 -25    6.69    0.68
  -6  -3  25    7.75    0.83
  -6   3 -25    8.82    0.93
  -7  -3 -25    3.48    0.57
  -7   3  25    1.88    0.62
   7   3 -25    3.74    0.61
  -7   3 -25    4.61    0.75
  -7  -3  25    1.52    0.46
   7  -3 -25    3.94    0.58
  -8  -3 -25   -0.16    0.41
   8   3 -25    0.20    0.42
  -8   3  25   -0.52    0.51
   8  -3 -25    0.06    0.37
  -8  -3  25    1.09    0.59
  -8   3 -25    0.88    0.55
   0   4  25    1.20    0.38
   0  -4  25    0.28    0.40
   1  -4  25    1.21    0.39
  -1   4  25    1.69    0.49
  -1  -4  25    2.93    0.54
   1   4  25    2.33    0.50
   2  -4  25   11.51    0.81
  -2   4  25   11.04    0.86
   2   4  25    9.54    0.87
  -2  -4  25   10.69    0.85
   3  -4  25    2.27    0.52
   3   4 -25    1.72    0.37
  -3   4  25    2.19    0.51
  -3  -4  25    1.60    0.46
   3   4  25    1.86    0.41
   4   4 -25    4.23    0.54
   4  -4  25    3.59    0.56
  -4   4  25    4.98    0.68
  -4  -4  25    4.49    0.63
   4   4  25    5.08    0.65
  -5   4  25   -0.02    0.41
   5   4 -25    0.59    0.35
  -5   4 -25    2.03    0.47
   5   4  25    1.77    0.46
  -5  -4  25    1.90    0.52
   6   4 -25    7.59    0.78
  -6   4  25    8.56    0.91
  -6   4 -25    8.72    0.91
   6  -4 -25    7.71    0.73
  -6  -4  25    7.67    0.77
  -7  -4 -25    0.31    0.41
  -7   4  25    0.34    0.52
   7   4 -25   -0.02    0.29
   7  -4 -25    0.27    0.38
  -7   4 -25    0.84    0.53
  -7  -4  25    0.45    0.52
  -8   4  25    0.25    0.57
  -8  -4 -25    0.46    0.44
   8   4 -25    0.23    0.42
  -8   4 -25    1.45    0.56
   8  -4 -25    0.48    0.42
  -8  -4  25   -0.29    0.48
   0  -5  25   -0.20    0.37
   0   5  25    0.22    0.36
   1  -5  25    2.32    0.52
  -1   5  25    1.73    0.47
   1   5  25    1.94    0.50
  -1  -5  25    1.04    0.43
  -2   5  25    6.56    0.74
   2  -5  25    7.50    0.78
  -2  -5  25    6.34    0.72
   2   5  25    7.02    0.74
   3  -5  25    7.31    0.78
   3   5 -25    6.63    0.64
  -3   5  25    7.90    0.80
   3   5  25    7.63    0.77
  -3  -5  25    8.30    0.80
   4   5 -25    8.78    0.71
  -4   5  25    9.45    0.77
   4  -5  25    9.36    0.90
  -4  -5  25   10.86    0.85
   4   5  25    9.93    0.82
  -5   5  25    1.85    0.52
   5   5 -25    1.01    0.34
   5   5  25    1.19    0.42
  -5  -5  25    1.54    0.41
  -5   5 -25    1.42    0.51
  -6   5  25    2.02    0.59
   6   5 -25    1.40    0.45
   6   5  25    2.61    0.53
   6  -5 -25    2.06    0.48
  -6  -5  25    1.80    0.52
  -6   5 -25    2.03    0.49
  -7   5  25    3.10    0.62
   7   5 -25    2.76    0.57
  -7  -5  25    2.83    0.62
  -7   5 -25    2.86    0.66
   7  -5 -25    2.28    0.50
   0  -6  25    4.91    0.65
   0   6  25    4.86    0.62
  -1   6  25    9.76    0.81
   1  -6  25    8.96    0.72
  -1  -6  25    7.63    0.77
   1   6  25    7.18    0.77
   2  -6  25    0.01    0.30
  -2   6  25    0.41    0.40
   2   6  25    0.15    0.38
  -2  -6  25    0.31    0.40
   3  -6  25    2.56    0.56
  -3   6  25    2.11    0.52
   3   6 -25    1.84    0.41
  -3  -6  25    1.99    0.49
   3   6  25    1.67    0.42
   4  -6  25    0.57    0.36
  -4   6  25    1.14    0.47
   4   6 -25    0.70    0.37
   4   6  25    0.62    0.41
  -4  -6  25    0.60    0.41
   5   6 -25    1.14    0.43
  -5   6  25    1.61    0.50
   5   6  25    1.16    0.47
  -5  -6  25    1.55    0.49
  -5   6 -25    1.79    0.47
  -6   6  25    8.51    0.91
   6   6 -25    9.18    0.89
  -6   6 -25    8.23    0.91
   6   6  25    9.83    0.88
  -6  -6  25    9.12    0.87
  -7   6  25   -0.31    0.49
   7   6 -25   -0.33    0.35
  -7   6 -25    1.28    0.55
  -7  -6  25    0.29    0.51
   7  -6 -25    0.94    0.42
   0  -7  25   18.39    1.09
   0   7  25   18.39    1.10
   1  -7  25    8.22    0.82
  -1   7  25    8.28    0.81
  -1  -7  25    7.81    0.75
   1   7  25    9.16    0.85
   2  -7  25    1.16    0.47
  -2   7  25    1.74    0.49
   2   7 -25    1.64    0.39
   2   7  25    0.48    0.40
  -2  -7  25    1.82    0.48
   3  -7  25    5.05    0.63
  -3   7  25    4.29    0.65
   3   7 -25    4.34    0.58
  -3  -7  25    4.00    0.58
   4  -7  25   15.27    1.03
   4   7 -25   13.79    0.95
  -4   7  25   15.09    1.01
  -4  -7  25   15.00    0.98
  -5   7  25    4.41    0.69
   5   7 -25    5.81    0.71
  -5   7 -25    4.32    0.68
  -5  -7  25    4.27    0.64
   6   7 -25    3.64    0.65
  -6   7  25    4.82    0.74
  -6  -7  25    4.75    0.67
  -6   7 -25    4.97    0.72
   0  -8  25    1.04    0.44
   1  -8  25    0.69    0.43
  -1  -8  25    0.91    0.40
   2   8 -25    1.89    0.44
   2  -8  25    0.73    0.44
  -2  -8  25    1.67    0.47
  -3   8  25    2.24    0.52
   3   8 -25    3.27    0.55
   3  -8  25    3.33    0.59
  -3  -8  25    3.36    0.54
   4   8 -25    2.19    0.51
  -4   8  25    1.84    0.54
   4  -8  25    2.01    0.54
  -5   8  25    5.28    0.68
   5   8 -25    4.72    0.69
   1  -9  25    4.84    0.66
   2   9 -25   10.28    0.83
   2  -9  25   11.91    0.88
   3   9 -25    1.44    0.45
   3  -9  25    0.62    0.44
   4  -9  25    3.38    0.61
   4   9 -25    1.78    0.51
   2  10 -25    7.02    0.76
   3  10 -25    3.54    0.60
   0   0  26    0.89    0.37
   1   0  26    1.15    0.38
  -1   0  26    1.56    0.49
  -2   0  26    6.92    0.78
   2   0  26    6.50    0.70
   3   0  26    2.51    0.55
  -3   0  26    2.86    0.51
  -4   0  26    1.96    0.54
   4   0  26    1.08    0.46
  -5   0  26    4.47    0.62
   5   0 -26    3.55    0.51
   6   0 -26    0.15    0.33
  -6   0  26    0.14    0.43
  -6   0 -26    0.58    0.35
   7   0 -26   20.23    1.16
  -7   0 -26   20.98    1.31
  -7   0  26   21.95    1.36
  -8   0  26    1.55    0.66
  -8   0 -26    1.40    0.49
   8   0 -26    1.87    0.49
   0  -1  26    4.50    0.67
   0   1  26    3.73    0.56
   1  -1  26    0.15    0.40
  -1   1  26   -0.32    0.24
   1   1  26    0.29    0.32
  -1  -1  26    0.42    0.33
  -2   1  26    4.03    0.65
   2  -1  26    3.06    0.57
   2   1  26    3.05    0.52
  -2  -1  26    3.16    0.60
  -3   1  26   12.29    0.88
   3  -1  26   12.75    0.88
   3   1  26   12.34    0.93
  -3  -1  26   12.91    0.96
  -4   1  26    1.19    0.49
   4  -1  26    0.59    0.42
   4   1  26    0.94    0.36
  -4  -1  26    1.67    0.43
  -5   1  26    3.17    0.64
   5   1 -26    3.05    0.49
   5   1  26    3.51    0.59
  -5  -1  26    3.23    0.64
  -5   1 -26    3.70    0.59
  -6  -1 -26    7.30    0.84
   6   1 -26    6.22    0.69
  -6   1  26    8.08    0.88
  -6   1 -26    8.73    0.93
  -6  -1  26    6.80    0.82
   6  -1 -26    6.11    0.67
  -7   1  26    2.78    0.59
   7   1 -26    2.05    0.50
  -7  -1 -26    1.90    0.60
   7  -1 -26    3.75    0.58
  -7   1 -26    2.36    0.62
  -7  -1  26    2.79    0.58
  -8  -1 -26    4.40    0.73
   8   1 -26    5.58    0.74
  -8   1  26    3.47    0.67
  -8   1 -26    3.47    0.73
  -8  -1  26    3.14    0.73
   8  -1 -26    5.00    0.68
   0   2  26    9.69    0.78
   0  -2  26    8.79    0.86
   1  -2  26   12.99    0.90
  -1   2  26   13.77    0.97
   1   2  26   12.91    0.90
  -1  -2  26   14.22    0.99
   2  -2  26   10.62    0.93
  -2   2  26   10.60    0.88
   2   2  26    9.71    0.77
  -2  -2  26    9.30    0.77
   3  -2  26    0.88    0.45
  -3   2  26    1.22    0.39
   3   2  26    1.89    0.51
  -3  -2  26    1.33    0.50
   4  -2  26    4.75    0.68
  -4   2  26    5.15    0.67
  -4  -2  26    5.43    0.67
   4   2  26    4.78    0.60
   5   2 -26    5.55    0.62
  -5   2  26    5.54    0.78
  -5  -2  26    5.94    0.75
   5   2  26    6.61    0.74
  -5   2 -26    7.09    0.84
   6   2 -26    2.54    0.51
  -6  -2 -26    3.33    0.63
  -6   2  26    2.67    0.64
  -6  -2  26    2.18    0.58
   6  -2 -26    2.32    0.46
  -6   2 -26    3.53    0.60
  -7  -2 -26    7.29    0.86
  -7   2  26    7.72    0.93
   7   2 -26    5.64    0.71
  -7  -2  26    7.04    0.80
   7  -2 -26    5.88    0.68
  -7   2 -26    6.92    0.84
   8   2 -26    8.29    0.87
   0   3  26    8.99    0.86
   0  -3  26   10.09    0.79
   1  -3  26    1.74    0.44
  -1   3  26    1.86    0.53
   1   3  26    0.89    0.44
  -1  -3  26    1.69    0.51
  -2   3  26    1.00    0.46
   2  -3  26    1.12    0.39
   2   3  26    1.11    0.48
  -2  -3  26    0.98    0.39
   3  -3  26    2.53    0.56
  -3   3  26    1.73    0.44
  -3  -3  26    1.83    0.53
   3   3  26    1.62    0.50
   4   3 -26    3.90    0.52
   4  -3  26    3.87    0.64
  -4   3  26    4.36    0.68
  -4  -3  26    4.36    0.65
   4   3  26    4.34    0.65
  -5   3  26    7.02    0.84
   5   3 -26    6.79    0.70
  -5  -3  26    6.53    0.77
  -5   3 -26    5.78    0.78
   5   3  26    7.06    0.76
   6   3 -26    6.00    0.70
  -6   3  26    6.34    0.83
  -6   3 -26    6.92    0.81
   6  -3 -26    6.20    0.69
  -6  -3  26    5.02    0.74
  -7  -3 -26    7.65    0.85
  -7   3  26    8.28    0.95
   7   3 -26    6.79    0.78
  -7   3 -26    8.16    0.90
  -7  -3  26    7.70    0.82
   7  -3 -26    7.44    0.76
   0  -4  26    0.26    0.41
   0   4  26    0.37    0.42
  -1   4  26   25.96    1.32
   1  -4  26   25.37    1.31
   1   4  26   30.59    1.44
  -1  -4  26   25.65    1.35
  -2   4  26    3.40    0.55
   2  -4  26    3.83    0.63
   2   4  26    3.34    0.59
  -2  -4  26    2.57    0.50
   3  -4  26    4.24    0.65
  -3   4  26    3.91    0.63
  -3  -4  26    3.95    0.65
   3   4  26    4.50    0.65
  -4   4  26    2.91    0.61
   4  -4  26    3.87    0.64
   4   4 -26    3.28    0.50
  -4  -4  26    3.52    0.55
   4   4  26    3.58    0.60
   5   4 -26    2.44    0.49
  -5   4  26    2.81    0.62
  -5  -4  26    1.87    0.55
   5   4  26    1.83    0.49
  -5   4 -26    2.50    0.60
  -6   4  26    2.24    0.61
   6   4 -26    1.59    0.45
  -6  -4  26    0.56    0.37
  -6   4 -26    1.93    0.58
   6   4  26    1.47    0.47
   7   4 -26    2.02    0.51
  -7  -4 -26    2.65    0.51
  -7   4  26    0.89    0.57
  -7  -4  26    1.20    0.56
  -7   4 -26    2.38    0.55
   7  -4 -26    1.39    0.45
   0  -5  26    6.68    0.77
   0   5  26    8.89    0.86
   1  -5  26    2.32    0.56
  -1   5  26    3.35    0.58
   1   5  26    2.67    0.56
  -1  -5  26    2.67    0.49
   2  -5  26    1.32    0.50
  -2   5  26    1.60    0.50
  -2  -5  26    1.27    0.49
   2   5  26    1.32    0.50
   3  -5  26    9.11    0.77
  -3   5  26    9.98    0.79
  -3  -5  26    9.27    0.75
   3   5  26    9.61    0.77
   4   5 -26    0.40    0.31
   4  -5  26    0.36    0.43
  -4   5  26    0.26    0.34
  -4  -5  26    0.60    0.43
   4   5  26   -0.26    0.36
  -5   5  26    0.84    0.46
   5   5 -26   -0.04    0.33
  -5   5 -26    1.55    0.46
   5   5  26    1.54    0.48
  -5  -5  26    0.80    0.38
   6   5 -26    7.61    0.80
  -6   5  26    7.46    0.81
   6   5  26    6.25    0.73
  -6   5 -26    8.11    0.92
  -6  -5  26    7.91    0.85
   7   5 -26    7.10    0.80
  -7   5  26    4.71    0.71
  -7  -5  26    4.63    0.76
   7  -5 -26    6.04    0.72
  -7   5 -26    6.37    0.87
   7   5  26    6.18    0.73
   0  -6  26    0.75    0.43
   0   6  26    0.43    0.42
  -1   6  26    5.27    0.71
   1  -6  26    5.11    0.65
   1   6  26    4.90    0.69
  -1  -6  26    5.14    0.68
   2  -6  26   13.18    0.90
  -2   6  26   12.74    0.96
  -2  -6  26   12.94    0.88
   2   6  26   13.13    0.97
  -3   6  26    4.38    0.68
   3  -6  26    5.14    0.72
   3   6  26    4.68    0.63
  -3  -6  26    4.80    0.67
  -4   6  26    4.48    0.67
   4  -6  26    3.90    0.64
   4   6 -26    3.13    0.53
   4   6  26    3.74    0.61
  -4  -6  26    3.68    0.60
   5   6 -26    0.82    0.39
  -5   6  26    0.91    0.49
  -5  -6  26    0.24    0.43
   5   6  26    0.83    0.43
   6   6 -26    2.48    0.53
  -6   6  26    2.37    0.65
  -6   6 -26    2.71    0.56
  -6  -6  26    3.02    0.59
   0  -7  26    0.37    0.40
   0   7  26   -0.07    0.38
   1  -7  26    9.05    0.88
  -1   7  26    9.46    0.89
  -1  -7  26    9.42    0.85
   1   7  26    9.17    0.88
  -2   7  26    2.28    0.55
   2  -7  26    2.32    0.55
  -2  -7  26    2.12    0.52
   3  -7  26    3.49    0.63
   3   7 -26    3.14    0.51
  -3   7  26    2.02    0.53
  -3  -7  26    3.93    0.60
  -4   7  26    7.19    0.82
   4   7 -26    8.47    0.82
   4  -7  26    9.51    0.78
  -4  -7  26    7.82    0.76
  -5   7  26   -0.32    0.43
   5  -7  26    0.01    0.43
   5   7 -26   -0.11    0.32
  -5  -7  26   -0.51    0.39
   0  -8  26    0.30    0.32
   1  -8  26   -0.07    0.40
  -1  -8  26    0.34    0.38
   2  -8  26    1.78    0.52
  -2  -8  26    0.19    0.40
   3  -8  26    7.52    0.83
   3   8 -26    5.23    0.65
  -3  -8  26    6.79    0.73
   4  -8  26    1.80    0.46
   4   8 -26    1.82    0.49
  -4   8  26    1.32    0.50
   1  -9  26    0.97    0.47
   2  -9  26   -0.46    0.37
   3  -9  26    1.14    0.50
   3   9 -26    1.73    0.45
   0   0  27   -0.33    0.27
  -1   0  27   21.08    1.17
   1   0  27   21.15    1.19
  -2   0  27    0.17    0.45
   2   0  27    1.15    0.48
  -3   0  27    0.07    0.44
   3   0  27   -0.10    0.39
   4   0  27    1.90    0.51
  -4   0  27    0.59    0.46
   5   0  27    4.24    0.61
  -5   0  27    4.32    0.63
   6   0 -27    9.24    0.78
  -6   0  27   12.22    1.02
  -6   0 -27   12.44    1.12
  -7   0 -27   -0.63    0.42
  -7   0  27    0.37    0.55
   7   0 -27   -0.08    0.34
   0  -1  27    5.93    0.76
   0   1  27    4.63    0.70
   1  -1  27    0.58    0.47
  -1   1  27    0.32    0.44
   1   1  27    0.57    0.45
  -1  -1  27    0.48    0.43
   2  -1  27   11.58    0.94
  -2   1  27   11.14    0.86
   2   1  27   12.05    0.87
  -2  -1  27   11.80    0.95
   3  -1  27    4.89    0.70
  -3   1  27    7.10    0.80
   3   1  27    5.71    0.73
  -3  -1  27    6.17    0.71
   4  -1  27    1.52    0.42
  -4   1  27    1.99    0.57
  -4  -1  27    2.00    0.56
   4   1  27    1.36    0.51
   5  -1  27    0.83    0.48
  -5   1  27    0.64    0.53
  -5  -1  27    1.53    0.53
   5   1  27    1.31    0.49
   6   1 -27    1.44    0.44
  -6   1  27    1.23    0.55
  -6   1 -27    1.25    0.45
  -6  -1  27    1.86    0.48
   7   1 -27    2.08    0.50
  -7  -1 -27    3.33    0.61
  -7   1  27    1.56    0.63
  -7   1 -27    3.23    0.62
  -7  -1  27    3.07    0.60
   7  -1 -27    2.31    0.51
   0  -2  27   13.19    0.92
   0   2  27   13.42    1.01
   1  -2  27    4.28    0.62
  -1   2  27    2.88    0.59
  -1  -2  27    4.46    0.66
   1   2  27    4.03    0.66
  -2   2  27    1.10    0.41
   2  -2  27    0.97    0.48
  -2  -2  27    1.26    0.50
   2   2  27    1.78    0.45
   3  -2  27    7.51    0.77
  -3   2  27    7.22    0.78
  -3  -2  27    6.23    0.77
   3   2  27    8.16    0.83
   4  -2  27    7.40    0.81
  -4   2  27    8.16    0.87
  -4  -2  27    7.11    0.76
   4   2  27    7.48    0.80
   5  -2  27    0.79    0.38
   5   2 -27    1.08    0.39
  -5   2  27    0.77    0.51
  -5  -2  27   -0.25    0.45
   5   2  27    1.54    0.50
   6   2 -27    1.29    0.42
  -6   2  27    1.17    0.57
   6   2  27    1.36    0.41
  -6  -2  27    0.85    0.53
  -6   2 -27    1.85    0.59
   7   2 -27    4.07    0.61
  -7   2  27    4.50    0.79
  -7  -2 -27    3.37    0.61
   7  -2 -27    4.49    0.62
  -7  -2  27    4.37    0.76
  -7   2 -27    4.73    0.79
   0  -3  27   28.15    1.40
   0   3  27   28.32    1.41
  -1   3  27    2.04    0.47
   1  -3  27    3.45    0.57
   1   3  27    2.67    0.52
  -1  -3  27    1.90    0.46
   2  -3  27    8.54    0.86
  -2   3  27    7.62    0.79
  -2  -3  27    8.56    0.86
   2   3  27    8.12    0.86
   3  -3  27    2.27    0.53
  -3   3  27    1.91    0.56
   3   3  27    1.37    0.50
  -3  -3  27    0.36    0.45
   4  -3  27    1.21    0.50
  -4   3  27    1.41    0.53
  -4  -3  27    1.10    0.43
   4   3  27    2.05    0.53
   5   3 -27    5.03    0.63
   5  -3  27    5.34    0.67
  -5   3  27    4.65    0.75
   5   3  27    5.17    0.68
  -5  -3  27    6.50    0.80
   6   3 -27    1.48    0.43
  -6   3  27    1.91    0.60
  -6   3 -27    1.44    0.59
  -6  -3  27    2.06    0.57
   6   3  27    1.78    0.51
   7   3 -27    1.25    0.47
  -7   3  27    1.11    0.61
  -7   3 -27    2.08    0.66
   7  -3 -27    1.59    0.46
  -7  -3  27    1.36    0.47
   0  -4  27    4.01    0.60
   0   4  27    4.99    0.69
  -1   4  27    7.26    0.82
   1  -4  27    7.78    0.80
   1   4  27    7.14    0.83
  -1  -4  27    7.38    0.81
  -2   4  27    5.04    0.70
   2  -4  27    3.97    0.66
   2   4  27    3.76    0.65
  -2  -4  27    3.07    0.60
   3  -4  27    2.09    0.49
  -3   4  27    2.07    0.56
  -3  -4  27    1.75    0.45
   3   4  27    2.70    0.56
  -4   4  27   12.30    1.00
   4  -4  27   12.59    0.97
  -4  -4  27   13.73    1.00
   4   4  27   13.06    0.90
   5  -4  27    5.00    0.66
  -5   4  27    3.92    0.69
   5   4 -27    4.87    0.62
   5   4  27    5.98    0.72
  -5  -4  27    5.14    0.71
  -6   4  27    1.55    0.60
   6   4 -27    2.57    0.52
  -6  -4  27    2.98    0.56
  -6   4 -27    3.03    0.66
   6   4  27    3.08    0.58
   0  -5  27    0.18    0.44
   0   5  27    0.74    0.43
  -1   5  27    9.13    0.90
   1  -5  27   11.69    0.96
  -1  -5  27   11.32    0.92
   1   5  27    9.64    0.92
   2  -5  27   11.58    0.96
  -2   5  27   12.20    0.94
  -2  -5  27   11.15    0.85
   2   5  27   11.52    0.95
  -3   5  27    4.18    0.67
   3  -5  27    3.89    0.65
  -3  -5  27    2.87    0.58
   3   5  27    3.47    0.57
  -4   5  27    2.16    0.58
   4  -5  27    3.57    0.57
   4   5  27    2.87    0.59
  -4  -5  27    3.26    0.61
   5  -5  27    0.54    0.47
   5   5 -27    1.65    0.43
  -5   5  27    1.59    0.54
  -5  -5  27    1.20    0.49
   5   5  27    2.51    0.54
  -6   5  27    8.32    0.89
   6   5 -27    9.77    0.83
  -6   5 -27   10.87    1.01
  -6  -5  27   10.81    0.98
   6   5  27   10.40    0.88
   0   6  27   10.81    0.97
   0  -6  27    9.65    0.80
   1  -6  27    0.40    0.36
  -1   6  27    0.23    0.33
  -1  -6  27    0.95    0.45
   1   6  27    0.22    0.41
  -2   6  27    9.75    0.90
   2  -6  27   11.31    0.93
  -2  -6  27   10.85    0.97
   2   6  27   10.86    0.98
   3  -6  27    0.27    0.45
  -3   6  27    0.82    0.40
  -3  -6  27    1.16    0.47
   3   6  27    0.45    0.42
   4   6 -27    2.64    0.51
  -4   6  27    3.04    0.62
   4  -6  27    3.36    0.62
   4   6  27    3.79    0.63
  -4  -6  27    3.97    0.65
  -5   6  27    2.45    0.60
   5   6 -27    1.64    0.47
   5  -6  27    2.37    0.58
   5   6  27    2.10    0.53
  -5  -6  27    1.85    0.55
   0  -7  27    0.13    0.42
   0   7  27    0.98    0.47
   1  -7  27    1.53    0.52
  -1   7  27    1.95    0.51
   1   7  27    0.87    0.48
  -1  -7  27    1.62    0.43
  -2   7  27    1.45    0.50
   2  -7  27    2.55    0.50
  -2  -7  27    3.13    0.58
   3  -7  27    3.68    0.66
  -3   7  27    3.05    0.56
  -3  -7  27    3.02    0.60
  -4   7  27    1.49    0.53
   4  -7  27    2.16    0.57
   4   7 -27    1.77    0.46
  -4  -7  27    1.25    0.50
   0  -8  27   -0.27    0.38
   1  -8  27    3.16    0.61
  -1  -8  27    2.14    0.53
   2  -8  27   11.59    0.95
  -2  -8  27   10.36    0.88
   3  -8  27    1.16    0.52
  -3  -8  27    0.57    0.42
   0   0  28    7.69    0.86
  -1   0  28    4.48    0.71
   1   0  28    4.71    0.67
   2   0  28    0.90    0.48
  -2   0  28   -0.48    0.30
  -3   0  28    0.17    0.34
   3   0  28    0.66    0.36
   4   0  28    2.70    0.51
  -4   0  28    2.82    0.57
  -5   0  28   -0.47    0.43
   5   0  28   -0.25    0.37
  -6   0  28    0.31    0.51
   6   0  28   -0.20    0.28
   0  -1  28   21.25    1.29
   0   1  28   21.23    1.29
  -1   1  28    7.54    0.86
   1  -1  28    8.18    0.89
   1   1  28    6.26    0.80
  -1  -1  28    6.64    0.80
  -2   1  28    7.54    0.88
   2  -1  28    7.96    0.82
  -2  -1  28    7.40    0.86
   2   1  28    7.13    0.79
   3  -1  28    6.15    0.81
  -3   1  28    7.12    0.83
   3   1  28    7.05    0.81
  -3  -1  28    7.06    0.84
  -4   1  28    2.87    0.64
   4  -1  28    2.68    0.61
   4   1  28    3.65    0.63
  -4  -1  28    2.70    0.63
   5  -1  28    0.71    0.48
  -5   1  28    0.62    0.53
   5   1  28    0.25    0.32
  -5  -1  28    0.61    0.52
  -6   1  28    4.63    0.70
  -6  -1  28    5.98    0.76
   6   1  28    5.76    0.75
   0  -2  28    1.17    0.44
   0   2  28    1.76    0.56
   1  -2  28    5.33    0.71
  -1   2  28    4.48    0.74
   1   2  28    6.66    0.81
  -1  -2  28    5.33    0.68
   2  -2  28    5.16    0.73
  -2   2  28    3.75    0.70
  -2  -2  28    4.77    0.67
   2   2  28    4.52    0.65
   3  -2  28    9.41    0.94
  -3   2  28   12.87    1.00
  -3  -2  28   11.72    0.98
   3   2  28   11.83    0.97
  -4   2  28    0.24    0.51
   4  -2  28    0.28    0.35
  -4  -2  28    0.32    0.48
   4   2  28    0.25    0.46
   5  -2  28    1.96    0.56
  -5   2  28    2.27    0.62
  -5  -2  28    3.96    0.71
   5   2  28    2.92    0.52
   6   2 -28    0.40    0.39
  -6   2  28    0.82    0.54
  -6  -2  28   -0.20    0.49
   6   2  28    1.04    0.50
  -6   2 -28    0.77    0.44
   0   3  28    0.38    0.46
   0  -3  28   -0.21    0.41
  -1   3  28    0.37    0.48
   1  -3  28    0.48    0.38
  -1  -3  28    0.07    0.43
   1   3  28    0.59    0.38
   2  -3  28    2.01    0.57
  -2   3  28    1.68    0.57
   2   3  28    2.00    0.58
  -2  -3  28    2.23    0.50
   3  -3  28    4.58    0.64
  -3   3  28    5.69    0.76
   3   3  28    5.31    0.66
  -3  -3  28    3.98    0.68
   4  -3  28    0.71    0.37
  -4   3  28    0.02    0.46
  -4  -3  28    1.26    0.54
   4   3  28    0.67    0.36
  -5   3  28    5.81    0.80
   5  -3  28    4.97    0.72
   5   3  28    5.50    0.73
  -5  -3  28    4.89    0.73
  -6   3  28   -0.46    0.47
   6   3 -28   -0.23    0.32
  -6   3 -28    0.04    0.36
   6   3  28   -0.13    0.40
  -6  -3  28   -0.46    0.44
   0  -4  28    1.57    0.47
   0   4  28    2.76    0.54
   1  -4  28    0.84    0.40
  -1   4  28    0.96    0.42
   1   4  28    0.68    0.49
  -1  -4  28    0.71    0.35
   2  -4  28    0.34    0.46
  -2   4  28    0.96    0.41
   2   4  28   -0.25    0.43
  -2  -4  28   -0.11    0.32
   3  -4  28    4.96    0.72
  -3   4  28    4.18    0.65
  -3  -4  28    5.94    0.76
   3   4  28    5.68    0.77
   4  -4  28   12.79    0.91
  -4   4  28   12.23    0.93
   4   4  28   11.30    0.96
  -4  -4  28   11.54    0.98
   5  -4  28    0.97    0.52
  -5   4  28    1.55    0.56
  -5  -4  28    1.34    0.53
   5   4  28    1.33    0.49
   6   4 -28    1.26    0.42
   0   5  28    4.73    0.72
   0  -5  28    4.38    0.71
  -1   5  28    3.12    0.64
   1  -5  28    2.86    0.64
  -1  -5  28    3.04    0.59
   1   5  28    2.05    0.50
   2  -5  28   10.78    0.99
  -2   5  28    8.89    0.93
   2   5  28   11.71    1.04
  -2  -5  28    8.79    0.91
  -3   5  28    1.68    0.57
   3  -5  28    1.17    0.50
  -3  -5  28    1.88    0.56
   3   5  28    2.41    0.59
   4  -5  28    3.16    0.62
  -4   5  28    3.00    0.66
   4   5  28    2.79    0.53
  -4  -5  28    2.33    0.53
   5  -5  28   16.03    1.10
  -5   5  28   13.19    1.08
  -5  -5  28   14.08    1.05
   5   5  28   13.80    1.01
   0  -6  28    0.19    0.46
   0   6  28    0.35    0.47
  -1   6  28    1.14    0.51
   1  -6  28    0.68    0.41
   1   6  28    1.40    0.43
  -1  -6  28    0.59    0.46
  -2   6  28    4.64    0.71
   2  -6  28    4.75    0.72
  -2  -6  28    4.08    0.60
   2   6  28    5.55    0.76
   3  -6  28    1.68    0.47
  -3   6  28    2.30    0.58
   3   6  28    1.43    0.51
  -3  -6  28    1.35    0.52
  -4   6  28    4.82    0.68
   4  -6  28    3.90    0.62
  -4  -6  28    3.25    0.62
   4   6  28    3.84    0.66
   0  -7  28    1.64    0.53
   0   7  28    1.63    0.54
   1  -7  28    2.45    0.62
  -1   7  28    2.06    0.58
  -1  -7  28    2.73    0.60
   1   7  28    2.23    0.63
   2  -7  28    3.50    0.59
  -2   7  28    2.47    0.62
  -2  -7  28    3.09    0.61
  -3   7  28    1.41    0.53
   3  -7  28    1.27    0.52
  -3  -7  28    1.69    0.53
   0  -8  28   10.47    0.98
   1  -8  28    5.03    0.75
  -1  -8  28    4.53    0.70
   0   0  29    0.86    0.50
  -1   0  29    0.79    0.52
   1   0  29    0.99    0.43
  -2   0  29    3.53    0.70
   2   0  29    5.62    0.79
   3   0  29    2.82    0.66
  -3   0  29    3.64    0.69
   4   0  29    3.62    0.66
  -4   0  29    3.81    0.71
  -5   0  29    1.95    0.63
   5   0  29   -0.41    0.41
   0   1  29    0.38    0.48
   0  -1  29    1.06    0.43
   1  -1  29    1.94    0.62
  -1   1  29    1.73    0.55
  -1  -1  29    0.88    0.42
   1   1  29    1.84    0.55
  -2   1  29    9.80    0.94
   2  -1  29    9.74    0.94
   2   1  29   10.22    0.98
  -2  -1  29   10.39    0.88
  -3   1  29    6.52    0.78
   3  -1  29    6.22    0.82
   3   1  29    8.28    0.85
  -3  -1  29    7.88    0.83
  -4   1  29    3.79    0.64
   4  -1  29    3.36    0.67
   4   1  29    3.24    0.57
  -4  -1  29    3.60    0.62
  -5   1  29    1.58    0.50
   5  -1  29    3.22    0.63
   5   1  29    2.92    0.60
  -5  -1  29    1.41    0.48
   0  -2  29    5.02    0.75
   0   2  29    5.14    0.76
  -1   2  29    1.95    0.50
   1  -2  29    0.71    0.40
  -1  -2  29    1.82    0.57
   1   2  29    1.76    0.58
   2  -2  29    8.84    0.91
  -2   2  29    5.27    0.73
   2   2  29    7.57    0.87
  -2  -2  29    7.65    0.89
  -3   2  29    2.04    0.52
   3  -2  29    0.45    0.48
  -3  -2  29    1.15    0.54
   3   2  29    0.96    0.41
   4  -2  29    0.22    0.46
  -4   2  29   -0.03    0.35
   4   2  29    0.27    0.35
  -4  -2  29    0.12    0.48
   5  -2  29    0.56    0.38
  -5   2  29    0.29    0.50
  -5  -2  29    1.68    0.49
   5   2  29    0.36    0.47
   0  -3  29   14.72    1.13
   0   3  29   16.93    1.17
  -1   3  29    6.58    0.85
   1  -3  29    5.81    0.75
   1   3  29    6.25    0.82
  -1  -3  29    5.02    0.75
  -2   3  29    1.71    0.50
   2  -3  29    0.91    0.51
   2   3  29    1.18    0.54
  -2  -3  29    2.34    0.62
  -3   3  29    4.90    0.69
   3  -3  29    5.94    0.80
   3   3  29    5.04    0.73
  -3  -3  29    4.75    0.74
  -4   3  29   10.17    0.97
   4  -3  29    9.57    0.96
   4   3  29    9.27    0.93
  -4  -3  29   10.41    1.00
  -5   3  29    2.43    0.64
   5  -3  29    1.42    0.53
   5   3  29    2.36    0.59
  -5  -3  29    1.10    0.43
   0  -4  29    4.65    0.74
   0   4  29    4.57    0.71
  -1   4  29    0.08    0.46
   1  -4  29    0.23    0.36
  -1  -4  29   -0.05    0.44
   1   4  29   -0.30    0.43
  -2   4  29    5.75    0.78
   2  -4  29    3.88    0.70
   2   4  29    4.90    0.75
  -2  -4  29    4.65    0.73
  -3   4  29    2.27    0.61
   3  -4  29    2.19    0.59
  -3  -4  29    1.90    0.57
   3   4  29    1.56    0.56
   4  -4  29    0.77    0.50
  -4   4  29    0.00    0.37
   4   4  29    0.26    0.46
  -4  -4  29   -0.65    0.28
   5  -4  29    0.20    0.46
   5   4  29    0.43    0.45
   0   5  29    5.99    0.82
   0  -5  29    6.54    0.81
   1  -5  29    0.76    0.53
  -1   5  29    0.15    0.46
  -1  -5  29    0.50    0.38
   1   5  29    0.71    0.48
  -2   5  29    8.04    0.84
   2  -5  29    7.19    0.80
  -2  -5  29    5.86    0.74
   2   5  29    6.28    0.85
  -3   5  29    8.31    0.95
   3  -5  29    9.20    0.94
  -3  -5  29    8.29    0.89
   3   5  29    7.94    0.89
   4  -5  29    1.34    0.54
  -4   5  29    0.50    0.53
  -4  -5  29    0.64    0.51
   4   5  29    0.35    0.47
   0  -6  29    8.70    0.92
   0   6  29    8.52    0.94
   1  -6  29    0.38    0.40
  -1   6  29    0.00    0.32
  -1  -6  29    0.17    0.49
   1   6  29    0.11    0.48
  -2   6  29    1.48    0.57
   2  -6  29    1.09    0.57
  -2  -6  29    1.41    0.56
   2   6  29    0.88    0.52
   3  -6  29    1.24    0.58
  -3   6  29    2.90    0.65
   3   6  29    0.92    0.52
  -3  -6  29    0.99    0.52
   0   7  29    0.89    0.55
   0  -7  29    1.46    0.56
  -1   7  29    7.80    0.88
   1  -7  29    9.00    0.95
  -1  -7  29    8.71    0.91
   0   0  30   10.83    1.09
   1   0  30   38.03    1.83
  -1   0  30   41.40    1.92
   2   0  30    0.51    0.54
  -2   0  30    1.33    0.48
  -3   0  30    0.43    0.40
   3   0  30   -0.61    0.42
   4   0  30    6.82    0.84
  -4   0  30    7.16    0.91
   0  -1  30   13.74    1.02
   0   1  30   14.54    1.13
  -1   1  30    6.24    0.80
   1  -1  30    7.26    0.90
   1   1  30    5.64    0.83
  -1  -1  30    7.77    0.91
  -2   1  30    1.24    0.61
   2  -1  30    0.68    0.43
  -2  -1  30    0.93    0.55
   2   1  30    0.60    0.51
  -3   1  30    5.03    0.79
   3  -1  30    4.25    0.67
  -3  -1  30    4.31    0.73
   3   1  30    3.78    0.68
  -4   1  30    8.07    0.97
   4  -1  30    7.68    0.83
  -4  -1  30    8.14    0.95
   4   1  30    8.51    0.91
   0   2  30    0.12    0.37
   0  -2  30   -0.50    0.44
  -1   2  30    2.13    0.64
   1  -2  30    3.04    0.59
  -1  -2  30    1.86    0.64
   1   2  30    1.67    0.60
   2  -2  30    7.21    0.88
  -2   2  30    6.11    0.84
  -2  -2  30    4.95    0.79
   2   2  30    5.55    0.81
  -3   2  30   10.12    1.02
   3  -2  30    8.65    0.95
  -3  -2  30    9.34    0.98
   3   2  30   10.44    0.87
   4  -2  30    2.41    0.63
  -4   2  30    1.65    0.61
   4   2  30    1.43    0.55
  -4  -2  30    1.47    0.58
   0   3  30    0.84    0.53
   0  -3  30    1.50    0.60
   1  -3  30    1.42    0.47
  -1   3  30    1.18    0.48
  -1  -3  30    1.46    0.55
   1   3  30    1.81    0.58
  -2   3  30    0.73    0.52
   2  -3  30    0.69    0.51
  -2  -3  30    0.32    0.50
   2   3  30    0.65    0.52
  -3   3  30   10.36    1.06
   3  -3  30   11.27    1.06
  -3  -3  30   11.06    1.04
   3   3  30   10.20    1.02
  -4   3  30    4.75    0.78
   4  -3  30    3.53    0.67
  -4  -3  30    3.63    0.70
   4   3  30    4.35    0.74
   0  -4  30   11.86    1.10
   0   4  30   13.75    1.11
  -1   4  30   -0.12    0.45
   1  -4  30    0.40    0.43
  -1  -4  30    1.20    0.55
   1   4  30    0.19    0.38
  -2   4  30   -0.51    0.28
   2  -4  30    0.68    0.52
   2   4  30    0.20    0.47
  -2  -4  30    0.13    0.47
   3  -4  30    7.27    0.92
  -3   4  30    7.95    0.95
  -3  -4  30    7.02    0.87
   3   4  30    7.71    0.89
   0   5  30   12.91    1.16
   0  -5  30   12.45    0.97
  -1   5  30    0.30    0.50
   1  -5  30    0.76    0.54
  -1  -5  30   -0.39    0.45
   1   5  30    1.01    0.52
   2  -5  30    9.94    0.97
  -2   5  30    9.27    0.99
  -2  -5  30    9.08    0.96
   2   5  30    8.06    0.93
   0   6  30    0.17    0.48
   0  -6  30    0.96    0.53
   0   0  31    1.08    0.57
  -1   0  31    0.90    0.46
   1   0  31    1.80    0.53
  -2   0  31    1.39    0.58
   2   0  31    3.37    0.69
   3   0  31    0.57    0.54
  -3   0  31    0.84    0.55
   0   1  31    1.96    0.53
   0  -1  31    1.43    0.50
  -1   1  31    0.86    0.60
   1  -1  31    2.69    0.67
  -1  -1  31    2.52    0.67
   1   1  31    1.57    0.60
   2  -1  31    8.58    0.98
  -2   1  31    8.41    0.99
   2   1  31   10.59    1.08
  -2  -1  31    8.11    0.97
   3  -1  31    0.85    0.43
  -3   1  31    1.27    0.47
  -3  -1  31    0.89    0.47
   3   1  31    0.19    0.50
   0  -2  31    1.53    0.63
   0   2  31    0.67    0.42
   1  -2  31    0.30    0.38
  -1   2  31   -0.31    0.49
  -1  -2  31    0.25    0.52
   1   2  31    1.06    0.57
   2  -2  31    3.24    0.63
  -2   2  31    3.88    0.68
  -2  -2  31    5.99    0.79
   2   2  31    5.16    0.82
  -3   2  31    0.65    0.54
   3  -2  31   -0.15    0.46
   3   2  31    1.01    0.52
  -3  -2  31    0.21    0.53
   0   3  31   14.72    1.09
   0  -3  31   14.17    1.16
  -1   3  31   12.08    1.15
   1  -3  31   12.82    1.01
   1   3  31   10.55    1.07
  -1  -3  31   13.62    1.03
  -2   3  31    3.19    0.69
   2  -3  31    1.84    0.65
   2   3  31    2.60    0.68
  -2  -3  31    1.83    0.60
   0   4  31    0.46    0.57
   0  -4  31    0.09    0.52
   1  -4  31    1.16    0.48
  -1   4  31    0.59    0.55
  -1  -4  31    0.92    0.54
   1   4  31    0.91    0.44
   0   0  32    0.55    0.52
  -1   0  32    0.93    0.60
   1   0  32    0.46    0.43
   0   1  32    1.38    0.49
   0  -1  32    1.69    0.63
   0   0   0    0.00    0.00
;
_shelx_res_checksum              94058
_shelx_res_file
;
TITL CF solution in P212121
CELL 0.71073 9.679 11.8883 22.4824 90 90 90
ZERR 4 0.0007 0.0008 0.0016 0 0 0
LATT -1
SYMM 0.5-X,-Y,0.5+Z
SYMM 0.5+X,0.5-Y,-Z
SYMM -X,0.5+Y,0.5-Z

SFAC C H Cl N O S
UNIT 104 88 8 8 28 4
EQIV $1 1+X,+Y,+Z
DFIX 0.99 0.005 N1 H1

L.S. 4 0 0 511
PLAN  20
TEMP 23
HTAB N1 O7_$1
BOND
fmap 2
acta
REM <HKL>Z:/CHE-XRAY-15P/B/B302/work/B302_0m.hkl</HKL>

WGHT    0.071300    0.556500
FVAR       0.16549
S1    6   -0.346705   -0.631073   -0.379149    11.00000    0.03822    0.02649 =
         0.02084   -0.00347    0.00451   -0.01095
CL2   3   -0.235893   -0.759737   -0.775351    11.00000    0.03861    0.02978 =
         0.02581   -0.00901    0.00217    0.00114
CL1   3   -0.488603   -0.414308   -0.673928    11.00000    0.07489    0.05865 =
         0.02752   -0.01195   -0.01743    0.04535
O2    5   -0.265144   -0.527955   -0.508823    11.00000    0.03028    0.02604 =
         0.01427   -0.00092   -0.00182    0.00009
O3    5   -0.205572   -0.188930   -0.496842    11.00000    0.03777    0.02543 =
         0.02353    0.00278   -0.00089    0.00467
O1    5   -0.394645   -0.394732   -0.552526    11.00000    0.03471    0.03056 =
         0.02390   -0.00376   -0.00271    0.00722
O5    5   -0.462793   -0.628440   -0.418476    11.00000    0.04532    0.05249 =
         0.02296   -0.00439   -0.00036   -0.02372
O4    5   -0.079218   -0.209025   -0.580475    11.00000    0.04195    0.03575 =
         0.02581    0.00883    0.00144   -0.00172
N2    4   -0.238296   -0.538440   -0.406596    11.00000    0.03113    0.03409 =
         0.01613    0.00471    0.00094   -0.01112
O7    5   -0.893390   -0.502069   -0.558721    11.00000    0.04418    0.04556 =
         0.03036   -0.00579   -0.00643    0.01574
O6    5   -0.272397   -0.733489   -0.369855    11.00000    0.06324    0.02446 =
         0.04797   -0.00505    0.01334   -0.00393
N1    4   -0.095687   -0.349831   -0.510696    11.00000    0.02513    0.02907 =
         0.01743    0.00250    0.00424    0.00207
C3    1   -0.268296   -0.683312   -0.711181    11.00000    0.02524    0.02380 =
         0.02063   -0.00517    0.00176   -0.00119
C18   1   -0.398888   -0.581229   -0.309027    11.00000    0.03103    0.02797 =
         0.01686   -0.00070    0.00278   -0.00988
C7    1   -0.331578   -0.481654   -0.556033    11.00000    0.02392    0.02742 =
         0.01710   -0.00060   -0.00053   -0.00165
C5    1   -0.380244   -0.527869   -0.664021    11.00000    0.03090    0.02700 =
         0.02276    0.00046   -0.00399    0.01207
C12   1   -0.060292   -0.411486   -0.407172    11.00000    0.02375    0.02477 =
         0.01719    0.00002   -0.00033    0.00258
C9    1   -0.160461   -0.368279   -0.453603    11.00000    0.02205    0.02408 =
         0.01501   -0.00026    0.00100    0.00077
C10   1   -0.121114   -0.246937   -0.533809    11.00000    0.02348    0.02902 =
         0.02228    0.00037   -0.00315   -0.00291
C2    1   -0.201846   -0.710722   -0.658807    11.00000    0.02638    0.02423 =
         0.02929   -0.00121   -0.00331    0.00679
AFIX  43
H2    2   -0.142736   -0.772309   -0.657076    11.00000   -1.20000
AFIX   0
C4    1   -0.359532   -0.594307   -0.714310    11.00000    0.03114    0.03422 =
         0.01803   -0.00180   -0.00457    0.00534
AFIX  43
H4    2   -0.406507   -0.578885   -0.749461    11.00000   -1.20000
AFIX   0
C6    1   -0.313795   -0.552620   -0.610299    11.00000    0.02377    0.02473 =
         0.01615   -0.00014   -0.00075    0.00091
C8    1   -0.274712   -0.462302   -0.454733    11.00000    0.02449    0.02759 =
         0.01487   -0.00147   -0.00067   -0.00181
AFIX  13
H8    2   -0.367377   -0.430676   -0.449359    11.00000   -1.20000
AFIX   0
C17   1   -0.107537   -0.510301   -0.381575    11.00000    0.02703    0.02731 =
         0.01495   -0.00070    0.00250    0.00039
C1    1   -0.224576   -0.645195   -0.609022    11.00000    0.02703    0.02581 =
         0.01931    0.00278   -0.00430    0.00183
AFIX  43
H1A   2   -0.179424   -0.663066   -0.573752    11.00000   -1.20000
AFIX   0
C16   1   -0.030167   -0.568818   -0.340143    11.00000    0.03651    0.02804 =
         0.01706    0.00282    0.00377    0.00361
AFIX  43
H16   2   -0.061799   -0.635450   -0.323284    11.00000   -1.20000
AFIX   0

C25   1   -0.823004   -0.568122   -0.531163    11.00000    0.04196    0.03329 =
         0.03045   -0.01290   -0.01100    0.00830
C11   1   -0.218466   -0.248914   -0.441378    11.00000    0.02768    0.02798 =
         0.02051   -0.00080    0.00092    0.00343
AFIX  23
H11A  2   -0.314441   -0.252896   -0.429138    11.00000   -1.20000
H11B  2   -0.165772   -0.211896   -0.410334    11.00000   -1.20000
AFIX   0
C19   1   -0.359417   -0.639453   -0.258266    11.00000    0.03780    0.03648 =
         0.02871    0.00812   -0.00105   -0.00884
AFIX  43
H19   2   -0.298786   -0.699959   -0.260734    11.00000   -1.20000
AFIX   0
C13   1    0.066944   -0.367423   -0.392352    11.00000    0.02483    0.03295 =
         0.02751    0.00340   -0.00132   -0.00278
AFIX  43
H13   2    0.099149   -0.301763   -0.410056    11.00000   -1.20000
AFIX   0
C23   1   -0.486898   -0.489462   -0.306289    11.00000    0.03594    0.03461 =
         0.02793   -0.00153   -0.00089   -0.00179
AFIX  43
H23   2   -0.512233   -0.450932   -0.340598    11.00000   -1.20000
AFIX   0
C22   1   -0.536386   -0.456459   -0.250866    11.00000    0.03538    0.04638 =
         0.04410   -0.01712    0.00800   -0.00387
AFIX  43
H22   2   -0.594022   -0.394116   -0.247913    11.00000   -1.20000
AFIX   0
C14   1    0.145880   -0.424212   -0.350044    11.00000    0.02377    0.04611 =
         0.02906    0.00293   -0.00460    0.00101
AFIX  43
H14   2    0.231290   -0.395451   -0.338740    11.00000   -1.20000
AFIX   0
C15   1    0.098424   -0.522685   -0.324799    11.00000    0.03051    0.04263 =
         0.02182    0.00519    0.00014    0.01157
AFIX  43
H15   2    0.153093   -0.559446   -0.296882    11.00000   -1.20000
AFIX   0
C20   1   -0.412261   -0.605533   -0.203797    11.00000    0.04837    0.06480 =
         0.01969    0.00854   -0.00306   -0.02507
AFIX  43
H20   2   -0.387677   -0.644066   -0.169389    11.00000   -1.20000
AFIX   0
C21   1   -0.500858   -0.515201   -0.200349    11.00000    0.04332    0.06707 =
         0.02506   -0.01411    0.00940   -0.02158
AFIX  43
H21   2   -0.536896   -0.493740   -0.163720    11.00000   -1.20000
AFIX   0

C26   1   -0.887749   -0.643766   -0.485823    11.00000    0.09190    0.04736 =
         0.03442   -0.00134    0.00571    0.01387
AFIX 137
H26A  2   -0.850774   -0.626814   -0.447229    11.00000   -1.50000
H26B  2   -0.868075   -0.720717   -0.495614    11.00000   -1.50000
H26C  2   -0.985923   -0.632281   -0.485549    11.00000   -1.50000
AFIX   0
C24   1   -0.671335   -0.575921   -0.540771    11.00000    0.03730    0.04955 =
         0.09337   -0.02598   -0.01950    0.00760
AFIX 137
H24A  2   -0.647464   -0.538878   -0.577295    11.00000   -1.50000
H24B  2   -0.644611   -0.653580   -0.542916    11.00000   -1.50000
H24C  2   -0.623996   -0.540340   -0.508306    11.00000   -1.50000
AFIX   0

H1    2   -0.037142   -0.404633   -0.531823    11.00000    0.03104
HKLF 4

REM  CF solution in P212121
REM R1 =  0.0482 for    6840 Fo > 4sig(Fo)  and  0.0572 for all    7834 data
REM    349 parameters refined using      1 restraints

END

WGHT      0.0714      0.5482

REM Highest difference peak  0.774,  deepest hole -0.419,  1-sigma level  0.074
Q1    1  -0.5466 -0.4674 -0.6602  11.00000  0.05    0.77
Q2    1  -0.3864 -0.6367 -0.4117  11.00000  0.05    0.51
Q3    1  -0.3804 -0.6162 -0.3454  11.00000  0.05    0.48
Q4    1  -0.4361 -0.6216 -0.3844  11.00000  0.05    0.48
Q5    1  -0.2928 -0.5915 -0.4048  11.00000  0.05    0.47
Q6    1  -0.3379 -0.7039 -0.3821  11.00000  0.05    0.47
Q7    1  -0.2646 -0.6674 -0.3797  11.00000  0.05    0.44
Q8    1  -0.2329 -0.6830 -0.6824  11.00000  0.05    0.41
Q9    1   0.0004 -0.3965 -0.3961  11.00000  0.05    0.40
Q10   1  -0.3646 -0.5527 -0.6370  11.00000  0.05    0.40
Q11   1  -0.1880 -0.7632 -0.7514  11.00000  0.05    0.38
Q12   1  -0.1004 -0.4429 -0.3830  11.00000  0.05    0.37
Q13   1  -0.3134 -0.7485 -0.7731  11.00000  0.05    0.37
Q14   1  -0.2046 -0.7384 -0.8052  11.00000  0.05    0.35
Q15   1  -0.2093 -0.4255 -0.4548  11.00000  0.05    0.35
Q16   1  -0.1719 -0.3026 -0.4455  11.00000  0.05    0.34
Q17   1  -0.0967 -0.3933 -0.4336  11.00000  0.05    0.34
Q18   1  -0.5105 -0.4862 -0.2769  11.00000  0.05    0.34
Q19   1  -0.2787 -0.7388 -0.8068  11.00000  0.05    0.33
Q20   1  -0.2419 -0.6801 -0.6358  11.00000  0.05    0.33
;
_shelx_space_group_comment
;
The symmetry employed for this shelxl refinement is uniquely defined
by the following loop, which should always be used as a source of
symmetry information in preference to the above space-group names.
They are only intended as comments.
;
_shelxl_version_number           2012-4
#END Tags that were not found in dictionaries
loop_
_space_group_symop_operation_xyz
'x, y, z'
'-x+1/2, -y, z+1/2'
'x+1/2, -y+1/2, -z'
'-x, y+1/2, -z+1/2'
loop_
_atom_site_label
_atom_site_type_symbol
_atom_site_fract_x
_atom_site_fract_y
_atom_site_fract_z
_atom_site_U_iso_or_equiv
_atom_site_adp_type
_atom_site_occupancy
_atom_site_site_symmetry_order
_atom_site_calc_flag
_atom_site_refinement_flags
S1 S -0.34671(8) -0.63107(7) -0.37915(3) 0.02852(17) Uani 1 1 d D
Cl2 Cl -0.23589(8) -0.75974(6) -0.77535(3) 0.03140(17) Uani 1 1 d D
Cl1 Cl -0.48860(12) -0.41431(9) -0.67393(4) 0.0537(3) Uani 1 1 d D
O2 O -0.2651(2) -0.52795(17) -0.50882(8) 0.0235(4) Uani 1 1 d D
O3 O -0.2056(2) -0.18893(19) -0.49684(9) 0.0289(5) Uani 1 1 d D
O1 O -0.3946(2) -0.39473(19) -0.55253(9) 0.0297(5) Uani 1 1 d D
O5 O -0.4628(3) -0.6284(2) -0.41848(10) 0.0403(6) Uani 1 1 d D
O4 O -0.0792(2) -0.2090(2) -0.58048(10) 0.0345(5) Uani 1 1 d D
N2 N -0.2383(3) -0.5384(2) -0.40660(10) 0.0271(5) Uani 1 1 d D
O7 O -0.8934(3) -0.5021(2) -0.55872(10) 0.0400(6) Uani 1 1 d D
O6 O -0.2724(3) -0.7335(2) -0.36985(12) 0.0452(6) Uani 1 1 d D
N1 N -0.0957(2) -0.3498(2) -0.51070(10) 0.0239(5) Uani 1 1 d D
C3 C -0.2683(3) -0.6833(2) -0.71118(12) 0.0232(5) Uani 1 1 d D
C18 C -0.3989(3) -0.5812(3) -0.30903(12) 0.0253(6) Uani 1 1 d D
C7 C -0.3316(3) -0.4817(3) -0.55603(12) 0.0228(5) Uani 1 1 d D
C5 C -0.3802(3) -0.5279(3) -0.66402(13) 0.0269(6) Uani 1 1 d D
C12 C -0.0603(3) -0.4115(2) -0.40717(12) 0.0219(5) Uani 1 1 d D
C9 C -0.1605(3) -0.3683(2) -0.45360(11) 0.0204(5) Uani 1 1 d D
C10 C -0.1211(3) -0.2469(3) -0.53381(12) 0.0249(5) Uani 1 1 d D
C2 C -0.2018(3) -0.7107(3) -0.65881(13) 0.0266(6) Uani 1 1 d D
H2 H -0.1427 -0.7723 -0.6571 0.032 Uiso 1 1 calc R
C4 C -0.3595(3) -0.5943(3) -0.71431(12) 0.0278(6) Uani 1 1 d D
H4 H -0.4065 -0.5789 -0.7495 0.033 Uiso 1 1 calc R
C6 C -0.3138(3) -0.5526(2) -0.61030(11) 0.0215(5) Uani 1 1 d D
C8 C -0.2747(3) -0.4623(2) -0.45473(11) 0.0223(5) Uani 1 1 d D
H8 H -0.3674 -0.4307 -0.4494 0.027 Uiso 1 1 calc R
C17 C -0.1075(3) -0.5103(2) -0.38158(12) 0.0231(5) Uani 1 1 d D
C1 C -0.2246(3) -0.6452(2) -0.60902(12) 0.0241(5) Uani 1 1 d D
H1A H -0.1794 -0.6631 -0.5738 0.029 Uiso 1 1 calc R
C16 C -0.0302(3) -0.5688(3) -0.34014(12) 0.0272(6) Uani 1 1 d D
H16 H -0.0618 -0.6354 -0.3233 0.033 Uiso 1 1 calc R
C25 C -0.8230(4) -0.5681(3) -0.53116(15) 0.0352(7) Uani 1 1 d D
C11 C -0.2185(3) -0.2489(3) -0.44138(12) 0.0254(5) Uani 1 1 d D
H11A H -0.3144 -0.2529 -0.4291 0.030 Uiso 1 1 calc R
H11B H -0.1658 -0.2119 -0.4103 0.030 Uiso 1 1 calc R
C19 C -0.3594(4) -0.6395(3) -0.25827(14) 0.0343(7) Uani 1 1 d D
H19 H -0.2988 -0.7000 -0.2607 0.041 Uiso 1 1 calc R
C13 C 0.0669(3) -0.3674(3) -0.39235(13) 0.0284(6) Uani 1 1 d D
H13 H 0.0991 -0.3018 -0.4101 0.034 Uiso 1 1 calc R
C23 C -0.4869(3) -0.4895(3) -0.30629(14) 0.0328(7) Uani 1 1 d D
H23 H -0.5122 -0.4509 -0.3406 0.039 Uiso 1 1 calc R
C22 C -0.5364(4) -0.4565(4) -0.25087(17) 0.0420(8) Uani 1 1 d D
H22 H -0.5940 -0.3941 -0.2479 0.050 Uiso 1 1 calc R
C14 C 0.1459(3) -0.4242(3) -0.35004(14) 0.0330(7) Uani 1 1 d D
H14 H 0.2313 -0.3955 -0.3387 0.040 Uiso 1 1 calc R
C15 C 0.0984(3) -0.5227(3) -0.32480(13) 0.0316(6) Uani 1 1 d D
H15 H 0.1531 -0.5594 -0.2969 0.038 Uiso 1 1 calc R
C20 C -0.4123(4) -0.6055(4) -0.20380(14) 0.0443(9) Uani 1 1 d D
H20 H -0.3877 -0.6441 -0.1694 0.053 Uiso 1 1 calc R
C21 C -0.5009(4) -0.5152(4) -0.20035(15) 0.0452(10) Uani 1 1 d D
H21 H -0.5369 -0.4937 -0.1637 0.054 Uiso 1 1 calc R
C26 C -0.8877(6) -0.6438(4) -0.48582(18) 0.0579(12) Uani 1 1 d D
H26A H -0.8508 -0.6268 -0.4472 0.087 Uiso 1 1 calc R
H26B H -0.8681 -0.7207 -0.4956 0.087 Uiso 1 1 calc R
H26C H -0.9859 -0.6323 -0.4855 0.087 Uiso 1 1 calc R
C24 C -0.6713(4) -0.5759(4) -0.5408(2) 0.0601(13) Uani 1 1 d D
H24A H -0.6475 -0.5389 -0.5773 0.090 Uiso 1 1 calc R
H24B H -0.6446 -0.6536 -0.5429 0.090 Uiso 1 1 calc R
H24C H -0.6240 -0.5403 -0.5083 0.090 Uiso 1 1 calc R
H1 H -0.037(3) -0.405(2) -0.5318(15) 0.031(9) Uiso 1 1 d D
loop_
_atom_site_aniso_label
_atom_site_aniso_U_11
_atom_site_aniso_U_22
_atom_site_aniso_U_33
_atom_site_aniso_U_23
_atom_site_aniso_U_13
_atom_site_aniso_U_12
S1 0.0382(4) 0.0265(4) 0.0208(3) -0.0035(3) 0.0045(3) -0.0109(3)
Cl2 0.0386(4) 0.0298(4) 0.0258(3) -0.0090(3) 0.0022(3) 0.0011(3)
Cl1 0.0749(6) 0.0587(6) 0.0275(4) -0.0119(4) -0.0174(4) 0.0453(5)
O2 0.0303(9) 0.0260(10) 0.0143(8) -0.0009(7) -0.0018(7) 0.0001(8)
O3 0.0378(11) 0.0254(11) 0.0235(10) 0.0028(8) -0.0009(8) 0.0047(9)
O1 0.0347(10) 0.0306(12) 0.0239(10) -0.0038(8) -0.0027(8) 0.0072(9)
O5 0.0453(13) 0.0525(16) 0.0230(10) -0.0044(11) -0.0004(9) -0.0237(12)
O4 0.0420(12) 0.0357(13) 0.0258(10) 0.0088(9) 0.0014(9) -0.0017(10)
N2 0.0311(12) 0.0341(13) 0.0161(10) 0.0047(9) 0.0009(9) -0.0111(11)
O7 0.0442(13) 0.0456(15) 0.0304(12) -0.0058(10) -0.0064(10) 0.0157(12)
O6 0.0632(16) 0.0245(11) 0.0480(15) -0.0050(10) 0.0133(13) -0.0039(11)
N1 0.0251(11) 0.0291(13) 0.0174(10) 0.0025(9) 0.0042(8) 0.0021(9)
C3 0.0252(12) 0.0238(13) 0.0206(12) -0.0052(10) 0.0018(10) -0.0012(11)
C18 0.0310(13) 0.0280(14) 0.0169(11) -0.0007(10) 0.0028(10) -0.0099(11)
C7 0.0239(12) 0.0274(14) 0.0171(11) -0.0006(10) -0.0005(9) -0.0016(10)
C5 0.0309(13) 0.0270(14) 0.0228(13) 0.0005(11) -0.0040(11) 0.0121(11)
C12 0.0238(12) 0.0248(13) 0.0172(11) 0.0000(10) -0.0003(9) 0.0026(10)
C9 0.0221(11) 0.0241(13) 0.0150(10) -0.0003(10) 0.0010(9) 0.0008(10)
C10 0.0235(12) 0.0290(15) 0.0223(12) 0.0004(11) -0.0031(9) -0.0029(11)
C2 0.0264(12) 0.0242(14) 0.0293(14) -0.0012(11) -0.0033(11) 0.0068(10)
C4 0.0311(13) 0.0342(15) 0.0180(12) -0.0018(11) -0.0046(10) 0.0053(12)
C6 0.0238(12) 0.0247(13) 0.0161(11) -0.0001(10) -0.0007(9) 0.0009(10)
C8 0.0245(12) 0.0276(14) 0.0149(11) -0.0015(10) -0.0007(9) -0.0018(10)
C17 0.0270(12) 0.0273(14) 0.0149(11) -0.0007(10) 0.0025(10) 0.0004(10)
C1 0.0270(12) 0.0258(13) 0.0193(12) 0.0028(10) -0.0043(10) 0.0018(11)
C16 0.0365(15) 0.0280(15) 0.0171(12) 0.0028(11) 0.0038(10) 0.0036(12)
C25 0.0420(17) 0.0333(18) 0.0304(15) -0.0129(13) -0.0110(13) 0.0083(14)
C11 0.0277(12) 0.0280(14) 0.0205(12) -0.0008(11) 0.0009(10) 0.0034(11)
C19 0.0378(16) 0.0365(17) 0.0287(14) 0.0081(13) -0.0011(12) -0.0088(14)
C13 0.0248(13) 0.0330(16) 0.0275(14) 0.0034(12) -0.0013(10) -0.0028(11)
C23 0.0359(16) 0.0346(17) 0.0279(14) -0.0015(12) -0.0009(12) -0.0018(13)
C22 0.0354(17) 0.046(2) 0.0441(19) -0.0171(17) 0.0080(15) -0.0039(15)
C14 0.0238(13) 0.0461(19) 0.0291(14) 0.0029(13) -0.0046(11) 0.0010(13)
C15 0.0305(14) 0.0426(18) 0.0218(13) 0.0052(13) 0.0001(11) 0.0116(13)
C20 0.0484(19) 0.065(3) 0.0197(14) 0.0085(15) -0.0031(13) -0.0251(19)
C21 0.0433(19) 0.067(3) 0.0251(15) -0.0141(16) 0.0094(14) -0.0216(19)
C26 0.092(3) 0.047(2) 0.0344(19) -0.0013(18) 0.006(2) 0.014(2)
C24 0.0373(19) 0.050(3) 0.093(4) -0.026(2) -0.019(2) 0.0076(18)
loop_
_atom_type_symbol
_atom_type_description
_atom_type_scat_dispersion_real
_atom_type_scat_dispersion_imag
_atom_type_scat_source
C C 0.0033 0.0016 'International Tables Vol C Tables 4.2.6.8 and 6.1.1.4'
H H 0.0000 0.0000 'International Tables Vol C Tables 4.2.6.8 and 6.1.1.4'
Cl Cl 0.1484 0.1585 'International Tables Vol C Tables 4.2.6.8 and 6.1.1.4'
N N 0.0061 0.0033 'International Tables Vol C Tables 4.2.6.8 and 6.1.1.4'
O O 0.0106 0.0060 'International Tables Vol C Tables 4.2.6.8 and 6.1.1.4'
S S 0.1246 0.1234 'International Tables Vol C Tables 4.2.6.8 and 6.1.1.4'
loop_
_geom_angle_atom_site_label_1
_geom_angle_atom_site_label_2
_geom_angle_atom_site_label_3
_geom_angle
O5 S1 N2 104.78(14)
O5 S1 C18 108.74(15)
N2 S1 C18 107.13(13)
O6 S1 O5 120.29(17)
O6 S1 N2 107.74(15)
O6 S1 C18 107.49(16)
C7 O2 C8 114.1(2)
C10 O3 C11 109.3(2)
C8 N2 S1 122.8(2)
C17 N2 S1 125.23(19)
C17 N2 C8 111.3(2)
C10 N1 C9 113.6(2)
C2 C3 Cl2 120.1(2)
C4 C3 Cl2 118.4(2)
C4 C3 C2 121.5(3)
C19 C18 S1 119.3(3)
C23 C18 S1 118.8(2)
C23 C18 C19 121.7(3)
O2 C7 C6 110.8(2)
O1 C7 O2 122.5(3)
O1 C7 C6 126.7(3)
C4 C5 Cl1 115.2(2)
C4 C5 C6 121.0(3)
C6 C5 Cl1 123.8(2)
C17 C12 C9 111.3(2)
C13 C12 C9 127.5(3)
C13 C12 C17 121.1(3)
N1 C9 C12 112.7(2)
N1 C9 C8 113.5(2)
N1 C9 C11 100.1(2)
C12 C9 C8 102.7(2)
C12 C9 C11 114.8(2)
C11 C9 C8 113.5(2)
O4 C10 O3 122.9(3)
O4 C10 N1 127.5(3)
N1 C10 O3 109.6(2)
C3 C2 C1 118.9(3)
C3 C4 C5 119.0(2)
C5 C6 C7 122.2(2)
C1 C6 C7 119.9(2)
C1 C6 C5 117.8(2)
O2 C8 N2 105.9(2)
O2 C8 C9 110.6(2)
N2 C8 C9 105.1(2)
C12 C17 N2 109.2(2)
C16 C17 N2 129.0(3)
C16 C17 C12 121.8(3)
C2 C1 C6 121.7(2)
C17 C16 C15 116.7(3)
O7 C25 C26 120.2(4)
O7 C25 C24 121.5(4)
C24 C25 C26 118.4(4)
O3 C11 C9 105.5(2)
C20 C19 C18 118.6(3)
C12 C13 C14 118.0(3)
C18 C23 C22 118.3(3)
C21 C22 C23 120.6(4)
C15 C14 C13 120.6(3)
C14 C15 C16 121.7(3)
C21 C20 C19 120.4(3)
C20 C21 C22 120.3(3)
loop_
_geom_bond_atom_site_label_1
_geom_bond_atom_site_label_2
_geom_bond_distance
S1 O5 1.430(3)
S1 N2 1.642(2)
S1 O6 1.429(3)
S1 C18 1.758(3)
Cl2 C3 1.734(3)
Cl1 C5 1.724(3)
O2 C7 1.358(3)
O2 C8 1.448(3)
O3 C10 1.354(4)
O3 C11 1.442(3)
O1 C7 1.203(4)
O4 C10 1.212(4)
N2 C8 1.454(3)
N2 C17 1.425(4)
O7 C25 1.210(4)
N1 C9 1.445(3)
N1 C10 1.352(4)
C3 C2 1.381(4)
C3 C4 1.380(4)
C18 C19 1.388(4)
C18 C23 1.386(5)
C7 C6 1.493(4)
C5 C4 1.394(4)
C5 C6 1.400(4)
C12 C9 1.514(4)
C12 C17 1.386(4)
C12 C13 1.379(4)
C9 C8 1.573(4)
C9 C11 1.551(4)
C2 C1 1.381(4)
C6 C1 1.399(4)
C17 C16 1.383(4)
C16 C15 1.403(5)
C25 C26 1.497(6)
C25 C24 1.487(5)
C19 C20 1.387(5)
C13 C14 1.394(4)
C23 C22 1.391(5)
C22 C21 1.377(6)
C14 C15 1.380(5)
C20 C21 1.376(6)
loop_
_geom_hbond_atom_site_label_D
_geom_hbond_atom_site_label_H
_geom_hbond_atom_site_label_A
_geom_hbond_distance_DH
_geom_hbond_distance_HA
_geom_hbond_distance_DA
_geom_hbond_angle_DHA
_geom_hbond_site_symmetry_A
N1 H1 O7 0.985(7) 1.909(11) 2.877(3) 167(3) 1_655
