#------------------------------------------------------------------------------
#$Date: 2016-02-18 17:37:37 +0200 (Thu, 18 Feb 2016) $
#$Revision: 176729 $
#$URL: svn://www.crystallography.net/cod/cif/1/51/21/1512104.cif $
#------------------------------------------------------------------------------
#
# This file is available in the Crystallography Open Database (COD),
# http://www.crystallography.net/
#
# All data on this site have been placed in the public domain by the
# contributors.
#
data_1512104
loop_
_publ_author_name
'Poittevin, Cl\'ement'
'Liautard, Virginie'
'Beniazza, Redouane'
'Robert, Fr\'ed\'eric'
'Landais, Yannick'
_publ_section_title
;
 Free-Radical Carbo-alkenylation of Enamides and Ene-carbamates.
;
_journal_issue                   11
_journal_name_full               'Organic letters'
_journal_page_first              2814
_journal_page_last               2817
_journal_paper_doi               10.1021/ol401147w
_journal_volume                  15
_journal_year                    2013
_chemical_formula_sum            'C23 H25 N O4 S'
_chemical_formula_weight         411.50
_chemical_name_systematic
;
 ?
;
_space_group_crystal_system      monoclinic
_space_group_IT_number           14
_space_group_name_Hall           '-P 2ybc'
_space_group_name_H-M_alt        'P 1 21/c 1'
_symmetry_space_group_name_Hall  '-P 2ybc'
_symmetry_space_group_name_H-M   'P 1 21/c 1'
_atom_sites_solution_hydrogens   geom
_audit_creation_method           SHELXL-2012
_cell_angle_alpha                90
_cell_angle_beta                 93.547(3)
_cell_angle_gamma                90
_cell_formula_units_Z            4
_cell_length_a                   12.5589(9)
_cell_length_b                   8.3367(6)
_cell_length_c                   21.2041(16)
_cell_measurement_temperature    293(2)
_cell_volume                     2215.8(3)
_computing_cell_refinement       'CrystalClear (Rigaku/MSC Inc., 2006)'
_computing_data_collection       'CrystalClear (Rigaku/MSC Inc., 2006)'
_computing_molecular_graphics    'WinGX publication routines (Farrugia, 1999)'
_computing_publication_material  'WinGX publication routines (Farrugia, 1999)'
_computing_structure_refinement  'SHELXL-2012 (Sheldrick, 2012)'
_computing_structure_solution    'SHELXD (Sheldrick, 2008)'
_diffrn_ambient_temperature      293(2)
_diffrn_detector                 'Platinum 135 CCD'
_diffrn_measured_fraction_theta_full 0.804
_diffrn_measured_fraction_theta_max 0.966
_diffrn_measurement_device       'quarter \C-circle diffractometer'
_diffrn_measurement_device_type  'Bruker X8 Proteum'
_diffrn_measurement_method       'phi and omega oscillation scans'
_diffrn_radiation_type           CuK\a
_diffrn_radiation_wavelength     1.54178
_diffrn_reflns_av_R_equivalents  0.0514
_diffrn_reflns_av_unetI/netI     0.0410
_diffrn_reflns_Laue_measured_fraction_full 0.804
_diffrn_reflns_Laue_measured_fraction_max 0.966
_diffrn_reflns_limit_h_max       14
_diffrn_reflns_limit_h_min       -14
_diffrn_reflns_limit_k_max       9
_diffrn_reflns_limit_k_min       -8
_diffrn_reflns_limit_l_max       23
_diffrn_reflns_limit_l_min       -17
_diffrn_reflns_number            18404
_diffrn_reflns_point_group_measured_fraction_full 0.804
_diffrn_reflns_point_group_measured_fraction_max 0.966
_diffrn_reflns_theta_full        67.679
_diffrn_reflns_theta_max         60.435
_diffrn_reflns_theta_min         5.636
_diffrn_source                   'rotating anode'
_exptl_absorpt_coefficient_mu    1.524
_exptl_absorpt_correction_T_max  0.7519
_exptl_absorpt_correction_T_min  0.6087
_exptl_absorpt_correction_type   numerical
_exptl_crystal_colour            colorless
_exptl_crystal_density_diffrn    1.234
_exptl_crystal_description       prism
_exptl_crystal_F_000             872
_exptl_crystal_size_max          0.1
_exptl_crystal_size_mid          0.05
_exptl_crystal_size_min          0.05
_refine_diff_density_max         0.177
_refine_diff_density_min         -0.199
_refine_diff_density_rms         0.031
_refine_ls_extinction_coef       0.0013(2)
_refine_ls_extinction_expression Fc^*^=kFc[1+0.001xFc^2^\l^3^/sin(2\q)]^-1/4^
_refine_ls_extinction_method     SHELXL
_refine_ls_goodness_of_fit_ref   1.037
_refine_ls_hydrogen_treatment    constr
_refine_ls_matrix_type           full
_refine_ls_number_parameters     263
_refine_ls_number_reflns         3218
_refine_ls_number_restraints     0
_refine_ls_restrained_S_all      1.037
_refine_ls_R_factor_all          0.0443
_refine_ls_R_factor_gt           0.0411
_refine_ls_shift/su_max          0.000
_refine_ls_shift/su_mean         0.000
_refine_ls_structure_factor_coef Fsqd
_refine_ls_weighting_details
;
 w=1/[\s^2^(Fo^2^)+(0.0492P)^2^+0.6287P]
 where P=(Fo^2^+2Fc^2^)/3
;
_refine_ls_weighting_scheme      calc
_refine_ls_wR_factor_gt          0.1105
_refine_ls_wR_factor_ref         0.1130
_reflns_Friedel_coverage         0.000
_reflns_number_gt                2914
_reflns_number_total             3218
_reflns_threshold_expression     'I > 2\s(I)'
_cod_data_source_file            ol401147w_si_002.cif
_cod_data_source_block           cp136pp
_cod_database_code               1512104
#BEGIN Tags that were not found in dictionaries:
_shelx_space_group_comment
;
The symmetry employed for this shelxl refinement is uniquely defined
by the following loop, which should always be used as a source of
symmetry information in preference to the above space-group names.
They are only intended as comments.
;
_shelxl_version_number           2012-9
_shelx_res_file
;
TITL cp136pp
CELL  1.54178  12.5589   8.3367  21.2041   90.000   93.547   90.000
ZERR     4.00   0.0009   0.0006   0.0016    0.000    0.003    0.000
LATT   1
SYMM  - X, 1/2 + Y, 1/2 - Z
SFAC  C    H    N    O    S
UNIT  92   100  4    16   4
MERG   2
ACTA
BOND
CONF
L.S.  20
WGHT    0.049200    0.628700
EXTI    0.001285
FVAR       0.17287
S1    5    0.734792    0.327948    0.175898    11.00000    0.08112    0.06632 =
         0.06239    0.00346   -0.00647   -0.01578
O2    4    0.846378    0.319230    0.193290    11.00000    0.08346    0.11634 =
         0.09414    0.03198   -0.03152   -0.03565
N1    3    0.700923    0.548907   -0.023355    11.00000    0.05853    0.05846 =
         0.06554    0.00231   -0.00099    0.00329
O4    4    0.668218    0.427794    0.212246    11.00000    0.14509    0.06790 =
         0.08051   -0.01651    0.01983   -0.00702
O1    4    0.536419    0.606411   -0.064777    11.00000    0.06273    0.12325 =
         0.12990    0.02094   -0.00443    0.01807
O3    4    0.996907    0.348887   -0.081358    11.00000    0.07504    0.13960 =
         0.08464    0.01829   -0.00733   -0.00672
C2    1    0.716733    0.387879    0.097326    11.00000    0.06078    0.05960 =
         0.06486    0.01026   -0.00384   -0.00173
AFIX  43
H2    2    0.649080    0.417790    0.081213    11.00000   -1.20000
AFIX   0
C3    1    0.684670    0.130825    0.177822    11.00000    0.06840    0.06126 =
         0.05401    0.00235   -0.00214   -0.00386
C4    1    0.790012    0.439287   -0.007960    11.00000    0.05428    0.05600 =
         0.06704    0.00237    0.00128    0.00059
AFIX  13
H4    2    0.855845    0.497112   -0.015776    11.00000   -1.20000
AFIX   0
C5    1    0.796725    0.391647    0.060424    11.00000    0.05600    0.06025 =
         0.06780    0.00549   -0.00547   -0.00109
AFIX  43
H5    2    0.863439    0.362228    0.078181    11.00000   -1.20000
AFIX   0
C6    1    0.788567    0.792030   -0.059572    11.00000    0.08042    0.04922 =
         0.05411    0.00117    0.00049    0.01074
C7    1    0.723625    0.717602   -0.009938    11.00000    0.08742    0.05921 =
         0.06388   -0.00005    0.00983    0.00898
AFIX  23
H7A   2    0.762243    0.726692    0.030958    11.00000   -1.20000
H7B   2    0.656973    0.775660   -0.008000    11.00000   -1.20000
AFIX   0
C8    1    0.785672    0.291113   -0.050751    11.00000    0.06859    0.05791 =
         0.07663   -0.00268    0.00596    0.00172
AFIX  13
H8    2    0.838051    0.213335   -0.033270    11.00000   -1.20000
AFIX   0
C9    1    0.747491    0.809214   -0.121039    11.00000    0.10008    0.07639 =
         0.06603    0.01001   -0.01461    0.00020
AFIX  43
H9    2    0.678106    0.776248   -0.132140    11.00000   -1.20000
AFIX   0
C10   1    0.606476    0.506604   -0.052463    11.00000    0.05784    0.09107 =
         0.08278    0.00520    0.00344    0.00131
C11   1    0.809438    0.875625   -0.166445    11.00000    0.16214    0.08603 =
         0.05419    0.01369   -0.00051    0.00393
AFIX  43
H11   2    0.781376    0.886584   -0.207846    11.00000   -1.20000
AFIX   0
C12   1    0.931108    0.363265   -0.124384    11.00000    0.07599    0.07850 =
         0.06429   -0.00710   -0.00083   -0.01118
C13   1    0.814777    0.333698   -0.117431    11.00000    0.07445    0.07315 =
         0.06773   -0.01142   -0.00069    0.00033
AFIX  23
H13A  2    0.791702    0.247057   -0.145594    11.00000   -1.20000
H13B  2    0.775444    0.429080   -0.130945    11.00000   -1.20000
AFIX   0
C14   1    0.961444    0.415210   -0.187993    11.00000    0.11702    0.17116 =
         0.06522   -0.00194    0.00473   -0.05426
AFIX  33
H14A  2    1.037300    0.430162   -0.187301    11.00000   -1.50000
H14B  2    0.926249    0.514380   -0.199112    11.00000   -1.50000
H14C  2    0.940350    0.334590   -0.218591    11.00000   -1.50000
AFIX   0
C15   1    0.892136    0.842153   -0.045566    11.00000    0.08647    0.07425 =
         0.07002    0.00714   -0.00790    0.00306
AFIX  43
H15   2    0.921848    0.831431   -0.004510    11.00000   -1.20000
AFIX   0
C16   1    0.580025    0.105943    0.189725    11.00000    0.07910    0.07623 =
         0.11188   -0.00642    0.01300   -0.00796
AFIX  43
H16   2    0.534352    0.192126    0.194872    11.00000   -1.20000
AFIX   0
C17   1    0.675364    0.216371   -0.049086    11.00000    0.09108    0.06945 =
         0.10201   -0.01949    0.01446   -0.01988
AFIX  23
H17A  2    0.671389    0.121718   -0.075732    11.00000   -1.20000
H17B  2    0.663209    0.183486   -0.006243    11.00000   -1.20000
AFIX   0
C18   1    0.751181    0.003187    0.168935    11.00000    0.08363    0.07936 =
         0.08844    0.00217    0.00243    0.00528
AFIX  43
H18   2    0.821669    0.021020    0.159762    11.00000   -1.20000
AFIX   0
C19   1    0.589992    0.334592   -0.071885    11.00000    0.06713    0.10971 =
         0.11182   -0.01966   -0.00045   -0.02121
AFIX  23
H19A  2    0.583459    0.330379   -0.117677    11.00000   -1.20000
H19B  2    0.522581    0.298912   -0.056810    11.00000   -1.20000
AFIX   0
C20   1    0.713634   -0.150852    0.173589    11.00000    0.11839    0.06656 =
         0.10308   -0.00022   -0.00773    0.01224
AFIX  43
H20   2    0.758584   -0.237505    0.167694    11.00000   -1.20000
AFIX   0
C21   1    0.910503    0.924491   -0.150713    11.00000    0.13240    0.08497 =
         0.09104    0.00546    0.03755   -0.00092
AFIX  43
H21   2    0.951288    0.969915   -0.181210    11.00000   -1.20000
AFIX   0
C33   1    0.610469   -0.175966    0.186851    11.00000    0.13271    0.06723 =
         0.10705    0.00754   -0.01294   -0.01817
AFIX  43
H33   2    0.585717   -0.280313    0.191089    11.00000   -1.20000
AFIX   0
C1    1    0.952001    0.907405   -0.091001    11.00000    0.08885    0.09151 =
         0.10461    0.00951    0.01721   -0.00222
AFIX  43
H1    2    1.021668    0.940060   -0.080529    11.00000   -1.20000
AFIX   0
C22   1    0.543341   -0.051543    0.193970    11.00000    0.09830    0.09802 =
         0.13623   -0.00303    0.01628   -0.03369
AFIX  43
H22   2    0.472403   -0.070877    0.201731    11.00000   -1.20000
AFIX   0
HKLF    4

REM  cp136pp
REM R1 =  0.0411 for    2914 Fo > 4sig(Fo)  and  0.0443 for all    3218 data
REM    263 parameters refined using      0 restraints

END

WGHT      0.0491      0.6275

REM Highest difference peak  0.177,  deepest hole -0.199,  1-sigma level  0.031
Q1    1   0.7211  0.4581  0.1725  11.00000  0.05    0.18
Q2    1   0.8236  0.4274  0.1881  11.00000  0.05    0.17
Q3    1   0.7403  0.1632  0.1756  11.00000  0.05    0.14
Q4    1   0.9023  0.3956 -0.2223  11.00000  0.05    0.14
Q5    1   0.6805 -0.1383  0.2097  11.00000  0.05    0.13
Q6    1   0.6836  0.0457 -0.0413  11.00000  0.05    0.12
Q7    1   0.9265  0.8272 -0.1251  11.00000  0.05    0.12
Q8    1   0.7472  0.5026 -0.0193  11.00000  0.05    0.12
Q9    1   0.7526 -0.1128  0.1667  11.00000  0.05    0.12
Q10   1   0.6035  0.3994  0.1812  11.00000  0.05    0.11
Q11   1   0.7847  0.3715 -0.0377  11.00000  0.05    0.11
Q12   1   0.5873 -0.0429  0.2373  11.00000  0.05    0.11
Q13   1   0.7820  0.9524 -0.0632  11.00000  0.05    0.11
Q14   1   0.7149  0.0645  0.1977  11.00000  0.05    0.11
Q15   1   0.6075  0.7157 -0.0395  11.00000  0.05    0.10
Q16   1   0.6218  0.3179  0.1973  11.00000  0.05    0.10
Q17   1   0.9738  0.3273 -0.0550  11.00000  0.05    0.10
Q18   1   0.9960  0.3358 -0.0626  11.00000  0.05    0.10
Q19   1   0.8122  0.8374 -0.0510  11.00000  0.05    0.10
Q20   1   0.7938  0.4984 -0.0692  11.00000  0.05    0.09
;
_shelx_res_checksum              38575
_shelx_hkl_file
;
  -2   0   0  787.12   54.54
   2   0   0  725.36   55.64
   3   0   0   49.24    3.76
  -3   0   0   52.88    3.69
  -4   0   0  271.20   19.55
   4   0   0  271.25   19.95
  -5   0   0    1.99    0.15
   5   0   0    2.05    0.15
  -5   0   0    1.70    0.14
   6   0   0   23.17    1.56
  -6   0   0   18.19    1.56
  -6   0   0   23.10    1.53
  -6   0   0   19.92    1.42
   7   0   0   15.63    1.11
  -7   0   0   16.89    1.16
  -7   0   0   16.25    1.07
   7   0   0   17.30    1.18
   7   0   0   13.78    1.18
  -7   0   0   15.16    1.18
   8   0   0    7.53    0.53
   8   0   0    6.85    0.50
  -8   0   0    7.56    0.48
   8   0   0    5.98    0.52
  -8   0   0    6.79    0.52
  -8   0   0    6.74    0.52
   9   0   0    1.36    0.13
   9   0   0    1.59    0.15
  -9   0   0    1.71    0.15
  -9   0   0    1.55    0.12
  -9   0   0    1.54    0.14
   9   0   0    1.58    0.14
  10   0   0    3.70    0.31
 -10   0   0    4.07    0.31
  10   0   0    3.61    0.31
 -10   0   0    3.68    0.31
  10   0   0    3.88    0.29
 -10   0   0    4.27    0.28
 -11   0   0    1.17    0.14
  11   0   0    1.32    0.13
  11   0   0    1.11    0.13
 -11   0   0    1.21    0.12
  11   0   0    0.99    0.13
 -11   0   0    0.91    0.13
 -12   0   0    0.72    0.08
 -12   0   0    0.64    0.10
  12   0   0    0.65    0.08
  12   0   0    0.76    0.10
  13   0   0    0.05    0.06
 -13   0   0    0.10    0.05
 -14   0   0    0.00    0.05
  14   0   0    0.04    0.04
   0  -1   0   -0.06    0.01
   1  -1   0  161.22   11.66
  -1  -1   0  161.61   11.44
   1   1   0  152.42   11.66
  -2  -1   0    0.45    0.05
   2  -1   0    0.59    0.05
   2   1   0    0.44    0.04
   3  -1   0   16.45    1.25
  -3  -1   0   17.00    1.23
   3   1   0   17.38    1.25
  -4  -1   0    0.98    0.08
   4  -1   0    1.10    0.09
  -4  -1   0    1.11    0.09
  -4   1   0    0.87    0.07
  -4   1   0    0.95    0.08
   4   1   0    1.08    0.08
  -5  -1   0   10.44    0.74
   5  -1   0   11.22    0.81
  -5  -1   0   11.60    0.80
   5   1   0   11.44    0.81
  -5   1   0    9.85    0.79
  -5   1   0   11.50    0.80
  -5   1   0   10.51    0.74
  -6  -1   0    2.58    0.20
  -6  -1   0    3.08    0.23
   6  -1   0    3.03    0.23
   6   1   0    2.90    0.23
  -6   1   0    3.36    0.22
  -6   1   0    2.79    0.22
  -6   1   0    2.96    0.22
   6   1   0    2.44    0.22
  -6   1   0    2.90    0.20
  -7  -1   0    5.13    0.36
  -7  -1   0    4.64    0.39
   7  -1   0    5.74    0.39
   7  -1   0    4.92    0.37
  -7  -1   0    5.62    0.39
  -7   1   0    5.09    0.39
   7   1   0    4.91    0.37
  -7   1   0    4.96    0.35
  -7   1   0    5.35    0.39
   7   1   0    5.64    0.39
   7   1   0    4.52    0.39
  -8  -1   0   10.31    0.69
  -8  -1   0    9.25    0.75
  -8  -1   0   10.72    0.74
   8  -1   0   11.05    0.76
   8  -1   0    9.67    0.71
   8   1   0   10.93    0.76
  -8   1   0    9.72    0.74
  -8   1   0    9.63    0.68
   8   1   0    9.53    0.71
   8   1   0    9.07    0.75
  -8   1   0   10.34    0.75
  -9  -1   0    0.97    0.09
   9  -1   0    1.08    0.11
   9  -1   0    1.12    0.11
  -9  -1   0    0.88    0.12
  -9  -1   0    0.91    0.10
   9   1   0    0.95    0.10
   9   1   0    0.88    0.11
  -9   1   0    1.11    0.11
   9   1   0    0.99    0.11
  -9   1   0    1.06    0.10
  -9   1   0    0.89    0.10
  10  -1   0    0.31    0.06
  10  -1   0    0.41    0.07
 -10  -1   0    0.29    0.06
  10  -1   0    0.27    0.07
 -10  -1   0    0.39    0.07
 -10  -1   0    0.35    0.05
  10   1   0    0.36    0.07
 -10   1   0    0.32    0.07
  10   1   0    0.27    0.07
 -10   1   0    0.22    0.07
  10   1   0    0.36    0.07
 -10   1   0    0.42    0.05
  11  -1   0    1.82    0.17
 -11  -1   0    1.63    0.17
 -11  -1   0    1.93    0.15
  11  -1   0    1.58    0.16
 -11  -1   0    1.88    0.18
 -11   1   0    1.57    0.17
  11   1   0    1.83    0.16
 -11   1   0    2.20    0.18
 -11   1   0    1.96    0.16
  11   1   0    1.64    0.16
  11   1   0    1.89    0.18
 -12  -1   0    0.02    0.07
  12  -1   0    0.10    0.05
 -12   1   0    0.17    0.07
 -12   1   0    0.07    0.06
  12   1   0    0.17    0.05
  12   1   0    0.16    0.07
 -13  -1   0    0.22    0.07
  13  -1   0    0.10    0.05
  13   1   0    0.06    0.05
 -13   1   0    0.14    0.04
 -13   1   0    0.14    0.06
  13   1   0    0.11    0.05
  13   1   0    0.11    0.04
 -13   1   0    0.03    0.05
 -14  -1   0    0.68    0.10
   0  -2   0   62.90    4.64
  -1  -2   0    8.30    0.60
   1  -2   0    8.15    0.61
  -2  -2   0  152.64   10.74
   2  -2   0  146.66   10.96
   2   2   0  147.63   10.96
  -3  -2   0    4.08    0.31
   3  -2   0    4.30    0.31
  -3   2   0    4.18    0.30
   3   2   0    4.09    0.31
  -4  -2   0    6.91    0.46
   4  -2   0    6.41    0.47
  -4  -2   0    5.93    0.43
  -4   2   0    5.63    0.43
  -4   2   0    6.72    0.46
   4   2   0    5.83    0.46
   4   2   0    6.53    0.47
  -5  -2   0    2.82    0.20
   5  -2   0    2.59    0.20
  -5  -2   0    2.73    0.18
   5   2   0    2.14    0.19
  -5   2   0    2.58    0.19
   5   2   0    2.99    0.20
  -5   2   0    2.27    0.20
  -5   2   0    2.52    0.18
   5   2   0    2.39    0.20
   6  -2   0    0.59    0.07
  -6  -2   0    0.39    0.06
  -6  -2   0    0.58    0.06
  -6  -2   0    0.66    0.08
  -6   2   0    0.74    0.08
   6   2   0    0.50    0.06
   6   2   0    0.55    0.06
  -6   2   0    0.61    0.07
  -6   2   0    0.51    0.06
   6   2   0    0.58    0.07
  -6   2   0    0.65    0.05
  -6   2   0    0.52    0.07
   6   2   0    0.50    0.06
  -7  -2   0    3.56    0.26
   7  -2   0    4.06    0.29
  -7  -2   0    3.65    0.29
  -7  -2   0    3.08    0.28
  -7   2   0    3.64    0.26
   7   2   0    3.47    0.28
  -7   2   0    3.74    0.28
   7   2   0    3.16    0.25
   7   2   0    3.79    0.29
   7   2   0    3.57    0.27
  -7   2   0    4.06    0.28
  -8  -2   0    6.06    0.46
  -8  -2   0    5.15    0.46
  -8  -2   0    6.20    0.42
   8  -2   0    6.40    0.46
   8   2   0    5.61    0.46
  -8   2   0    6.26    0.45
   8   2   0    5.89    0.46
  -8   2   0    6.68    0.46
   8   2   0    5.91    0.44
  -8   2   0    6.02    0.42
   9  -2   0    0.05    0.05
  -9  -2   0    0.02    0.04
  -9  -2   0    0.04    0.06
  -9  -2   0    0.03    0.03
  -9   2   0    0.07    0.05
   9   2   0    0.10    0.04
  -9   2   0    0.03    0.05
  -9   2   0    0.09    0.04
   9   2   0    0.05    0.05
   9   2   0    0.06    0.05
 -10  -2   0    0.30    0.08
  10  -2   0    0.42    0.07
 -10  -2   0    0.32    0.08
  10   2   0    0.47    0.08
  10   2   0    0.40    0.07
 -10   2   0    0.37    0.07
 -10   2   0    0.39    0.07
  10   2   0    0.43    0.08
 -10   2   0    0.50    0.07
  11  -2   0    0.38    0.08
 -11  -2   0    0.50    0.09
 -11  -2   0    0.50    0.10
  11   2   0    0.74    0.10
 -11   2   0    0.59    0.08
  11   2   0    0.58    0.07
 -11   2   0    0.72    0.10
  11   2   0    0.49    0.09
 -11   2   0    0.59    0.08
 -11   2   0    0.58    0.08
  11   2   0    0.61    0.08
 -12  -2   0    1.03    0.12
 -12   2   0    0.94    0.10
 -12   2   0    1.02    0.10
  12   2   0    1.09    0.10
  12   2   0    1.09    0.13
 -12   2   0    1.18    0.11
  12   2   0    1.13    0.13
  13  -2   0    0.66    0.09
 -13  -2   0    0.79    0.11
  13   2   0    0.56    0.08
  13   2   0    0.67    0.08
 -13   2   0    0.71    0.08
 -13   2   0    0.75    0.09
   0  -3   0   -0.01    0.01
   0   3   0   -0.02    0.02
   1  -3   0   42.77    3.07
  -1   3   0   41.53    2.97
   1   3   0   40.68    2.97
   2  -3   0   16.31    1.16
   2   3   0   15.04    1.16
  -2   3   0   13.96    1.05
  -2   3   0   17.45    1.12
   2   3   0   16.35    1.12
   2   3   0   14.74    1.05
   3  -3   0   39.36    2.73
  -3  -3   0   38.05    2.68
   3   3   0   38.53    2.64
  -3   3   0   32.46    2.74
  -3   3   0   33.93    2.49
  -3   3   0   36.38    2.64
   3   3   0   40.46    2.73
   3   3   0   36.83    2.49
   4  -3   0    2.15    0.18
  -4  -3   0    2.45    0.18
  -4   3   0    2.01    0.17
   4   3   0    2.44    0.18
   4   3   0    2.32    0.18
   4   3   0    2.14    0.16
  -4   3   0    1.88    0.17
   4   3   0    2.54    0.17
  -5  -3   0    0.43    0.06
   5  -3   0    0.41    0.06
  -5   3   0    0.38    0.05
   5   3   0    0.32    0.04
   5   3   0    0.38    0.04
  -5   3   0    0.35    0.04
   5   3   0    0.45    0.06
   5   3   0    0.52    0.06
  -5   3   0    0.36    0.05
   5   3   0    0.38    0.05
  -5   3   0    0.47    0.06
  -5   3   0    0.41    0.05
   5   3   0    0.37    0.05
  -6  -3   0   16.40    1.21
   6  -3   0   18.79    1.23
   6   3   0   16.30    1.23
   6   3   0   16.04    1.12
  -6   3   0   17.16    1.12
  -6   3   0   16.76    1.19
  -6   3   0   15.35    1.15
  -6   3   0   16.32    1.16
   6   3   0   15.58    1.08
   6   3   0   14.98    1.16
   6   3   0   17.17    1.23
  -6   3   0   16.77    1.22
  -7  -3   0    1.14    0.12
   7  -3   0    1.39    0.13
   7   3   0    1.28    0.11
  -7   3   0    1.23    0.12
   7   3   0    1.35    0.12
  -7   3   0    1.39    0.11
   7   3   0    1.29    0.13
  -7   3   0    1.10    0.10
   7   3   0    1.12    0.12
  -7   3   0    1.29    0.12
   7   3   0    1.32    0.10
  -7   3   0    1.52    0.12
  -7   3   0    1.37    0.10
  -8  -3   0    0.78    0.10
   8  -3   0    0.86    0.11
   8   3   0    0.85    0.10
   8   3   0    0.93    0.09
  -8   3   0    0.80    0.11
  -8   3   0    0.66    0.10
  -8   3   0    0.72    0.08
  -8   3   0    1.01    0.09
   8   3   0    0.97    0.08
  -8   3   0    0.88    0.09
   8   3   0    1.08    0.11
   9  -3   0    4.19    0.34
  -9  -3   0    4.10    0.35
  -9   3   0    4.55    0.32
   9   3   0    4.05    0.32
  -9   3   0    4.40    0.34
  -9   3   0    4.39    0.31
   9   3   0    4.64    0.34
  -9   3   0    4.20    0.34
   9   3   0    3.98    0.34
   9   3   0    4.34    0.31
  10  -3   0    0.80    0.10
 -10  -3   0    0.77    0.10
 -10  -3   0    0.55    0.11
 -10   3   0    0.84    0.09
 -10   3   0    1.07    0.11
  10   3   0    0.69    0.10
  10   3   0    0.77    0.10
  10   3   0    1.09    0.12
 -10   3   0    1.00    0.09
  10   3   0    0.81    0.09
 -10   3   0    0.95    0.10
 -11  -3   0    0.08    0.05
 -11   3   0    0.08    0.06
  11   3   0    0.05    0.06
 -11   3   0    0.07    0.04
  11   3   0    0.09    0.07
 -11   3   0    0.11    0.04
  11   3   0    0.24    0.06
 -12  -3   0    0.49    0.09
  12   3   0    0.51    0.08
  12   3   0    0.65    0.07
 -12   3   0    0.69    0.09
  12   3   0    0.53    0.07
 -12   3   0    0.50    0.07
 -12   3   0    0.46    0.07
 -13  -3   0    0.31    0.07
  13   3   0    0.20    0.04
   0  -4   0  156.64   10.71
   0   4   0  145.38    9.78
   0   4   0  141.72   10.74
   0   4   0  149.53   10.38
   0   4   0  134.66   10.12
   1  -4   0    7.92    0.55
  -1   4   0    7.87    0.50
  -1   4   0    7.52    0.52
   1   4   0    6.64    0.52
   1   4   0    8.02    0.55
  -1   4   0    7.91    0.53
  -1   4   0    7.45    0.55
   1   4   0    6.63    0.55
   1   4   0    6.70    0.50
   1   4   0    7.22    0.53
   2  -4   0    7.14    0.49
   2   4   0    6.62    0.49
  -2   4   0    6.68    0.46
   2   4   0    6.32    0.47
   2   4   0    5.66    0.46
   2   4   0    6.05    0.49
  -2   4   0    6.45    0.49
  -2   4   0    6.33    0.46
  -2   4   0    6.85    0.47
   2   4   0    6.33    0.44
   2   4   0    6.63    0.46
  -2   4   0    6.71    0.44
   3  -4   0    1.58    0.13
   3   4   0    1.44    0.12
   3   4   0    1.75    0.13
   3   4   0    1.60    0.13
  -3   4   0    1.37    0.12
  -3   4   0    1.47    0.12
  -3   4   0    1.56    0.13
   3   4   0    1.58    0.12
  -3   4   0    1.62    0.12
   3   4   0    1.49    0.13
   3   4   0    1.76    0.13
   4  -4   0    1.87    0.15
  -4  -4   0    1.89    0.15
  -4   4   0    1.73    0.14
   4   4   0    1.74    0.15
   4   4   0    2.02    0.15
   4   4   0    1.98    0.14
   4   4   0    1.65    0.13
   4   4   0    1.99    0.15
  -4   4   0    1.81    0.13
  -4   4   0    1.59    0.14
  -4   4   0    1.70    0.15
  -4   4   0    1.70    0.13
   4   4   0    1.87    0.14
  -5  -4   0    1.06    0.11
   5  -4   0    1.21    0.11
   5   4   0    1.19    0.09
   5   4   0    1.10    0.11
  -5   4   0    1.17    0.11
   5   4   0    0.99    0.09
   5   4   0    1.24    0.10
  -5   4   0    0.99    0.09
   5   4   0    0.94    0.09
  -5   4   0    1.09    0.10
  -5   4   0    1.17    0.10
  -5   4   0    1.12    0.09
   5   4   0    1.11    0.10
   6  -4   0    0.06    0.05
  -6  -4   0    0.04    0.05
  -6   4   0   -0.03    0.04
   6   4   0    0.04    0.04
  -6   4   0    0.02    0.03
   6   4   0    0.10    0.03
  -6   4   0    0.08    0.03
  -6   4   0    0.06    0.03
  -6   4   0    0.08    0.04
   6   4   0    0.05    0.03
   6   4   0    0.08    0.04
   6   4   0    0.01    0.04
   6   4   0    0.06    0.04
  -7  -4   0    5.72    0.46
   7  -4   0    6.03    0.47
  -7   4   0    5.91    0.46
   7   4   0    6.39    0.47
   7   4   0    6.80    0.46
   7   4   0    5.88    0.41
  -7   4   0    6.31    0.44
   7   4   0    6.17    0.44
  -7   4   0    6.13    0.46
  -7   4   0    5.19    0.45
  -7   4   0    5.13    0.43
   7   4   0    6.55    0.42
  -7   4   0    6.01    0.42
   8  -4   0    7.09    0.58
  -8  -4   0    6.79    0.57
   8   4   0    6.94    0.58
  -8   4   0    7.70    0.57
  -8   4   0    8.31    0.55
  -8   4   0    7.89    0.57
   8   4   0    8.18    0.58
   8   4   0    7.72    0.52
   8   4   0    7.40    0.51
   8   4   0    7.71    0.55
  -8   4   0    6.93    0.54
  -8   4   0    7.82    0.53
  -9  -4   0    0.42    0.08
   9  -4   0    0.35    0.06
   9   4   0    0.49    0.06
  -9   4   0    0.39    0.08
  -9   4   0    0.33    0.07
   9   4   0    0.44    0.08
   9   4   0    0.50    0.07
  -9   4   0    0.34    0.07
   9   4   0    0.53    0.08
  -9   4   0    0.36    0.07
  -9   4   0    0.38    0.07
 -10  -4   0    0.56    0.10
 -10   4   0    0.85    0.10
  10   4   0    0.75    0.08
  10   4   0    0.84    0.11
 -10   4   0    0.57    0.08
  10   4   0    0.75    0.09
 -10   4   0    0.66    0.09
 -10   4   0    0.61    0.08
  11   4   0    1.91    0.17
 -11   4   0    1.82    0.15
  11   4   0    1.83    0.16
 -11   4   0    1.82    0.15
  11   4   0    1.75    0.15
 -11   4   0    1.95    0.15
 -12  -4   0   -0.04    0.06
 -12   4   0    0.05    0.05
  12   4   0    0.00    0.05
  12   4   0    0.03    0.04
   0   5   0   -0.02    0.02
   0   5   0    0.05    0.03
   0   5   0    0.10    0.03
   0   5   0    0.01    0.03
   0   5   0   -0.02    0.03
   1  -5   0   15.59    1.12
  -1   5   0   13.09    1.02
   1   5   0   16.12    1.06
  -1   5   0   14.20    1.12
  -1   5   0   15.27    1.06
   1   5   0   15.46    1.08
   1   5   0   14.99    1.12
   1   5   0   14.05    1.02
   1   5   0   14.80    1.12
  -1   5   0   16.64    1.06
  -1   5   0   15.63    1.08
   2  -5   0    0.68    0.08
  -2   5   0    0.71    0.07
  -2   5   0    0.77    0.07
   2   5   0    0.72    0.07
  -2   5   0    0.69    0.07
   2   5   0    0.67    0.07
   2   5   0    0.58    0.06
   2   5   0    0.63    0.06
   2   5   0    0.73    0.08
  -2   5   0    0.73    0.07
   2   5   0    0.68    0.07
  -2   5   0    0.65    0.06
   3  -5   0    2.91    0.22
   3   5   0    2.46    0.21
  -3   5   0    2.80    0.21
   3   5   0    2.59    0.20
  -3   5   0    2.71    0.20
   3   5   0    2.47    0.20
   3   5   0    2.48    0.21
   3   5   0    2.72    0.21
  -3   5   0    3.03    0.20
  -3   5   0    2.72    0.21
   3   5   0    2.66    0.22
  -3   5   0    2.92    0.20
   4  -5   0    3.25    0.25
   4   5   0    2.99    0.24
   4   5   0    3.24    0.22
  -4   5   0    3.10    0.23
  -4   5   0    3.22    0.22
   4   5   0    2.99    0.24
   4   5   0    2.82    0.24
  -4   5   0    3.19    0.23
  -4   5   0    3.14    0.24
   4   5   0    3.05    0.25
   4   5   0    2.78    0.23
  -4   5   0    3.38    0.24
   5  -5   0   10.07    0.74
   5   5   0    9.02    0.71
   5   5   0   10.48    0.70
  -5   5   0    9.41    0.69
   5   5   0    9.02    0.69
  -5   5   0    9.55    0.67
   5   5   0   10.57    0.74
   5   5   0    9.57    0.74
  -5   5   0   10.58    0.70
  -5   5   0    9.38    0.72
  -5   5   0   10.02    0.73
   5   5   0    9.93    0.67
   6  -5   0    6.91    0.55
   6   5   0    7.37    0.49
   6   5   0    7.07    0.55
  -6   5   0    7.10    0.51
   6   5   0    7.24    0.50
  -6   5   0    7.73    0.52
  -6   5   0    6.78    0.54
  -6   5   0    7.13    0.50
   6   5   0    7.99    0.55
   6   5   0    7.48    0.52
   6   5   0    6.59    0.52
   7  -5   0    0.00    0.05
   7   5   0    0.01    0.06
   7   5   0    0.06    0.06
  -7   5   0    0.02    0.04
   7   5   0    0.05    0.05
  -7   5   0   -0.01    0.06
  -7   5   0   -0.03    0.05
   7   5   0    0.01    0.04
  -7   5   0    0.03    0.04
   7   5   0   -0.01    0.06
   8   5   0    8.65    0.58
   8   5   0    7.46    0.54
  -8   5   0    8.06    0.56
  -8   5   0    7.28    0.60
   8   5   0    8.37    0.56
   8   5   0    8.95    0.61
  -8   5   0    7.26    0.57
  -8   5   0    9.20    0.58
   8   5   0    7.00    0.61
  -9   5   0    0.16    0.05
  -9   5   0    0.01    0.04
   9   5   0    0.11    0.06
   9   5   0    0.14    0.06
  -9   5   0    0.08    0.06
   9   5   0    0.19    0.08
 -10   5   0    2.39    0.20
 -10   5   0    2.61    0.20
 -10   5   0    2.83    0.21
  10   5   0    2.84    0.22
  10   5   0    2.48    0.20
  10   5   0    2.86    0.22
  11   5   0    0.18    0.07
  11   5   0    0.06    0.04
 -11   5   0    0.12    0.05
 -11   5   0    0.05    0.04
   0   6   0   11.74    0.88
   0   6   0   11.56    0.84
   0   6   0   13.42    0.84
   0   6   0   12.19    0.81
   0   6   0   10.35    0.89
   0   6   0   12.04    0.86
  -1   6   0    0.21    0.04
  -1   6   0    0.16    0.04
   1   6   0    0.12    0.04
  -1   6   0    0.14    0.03
   1   6   0    0.16    0.03
   1   6   0    0.22    0.04
   1   6   0    0.14    0.03
   1   6   0    0.18    0.05
   1   6   0    0.11    0.04
  -1   6   0    0.15    0.04
  -1   6   0    0.23    0.04
   2  -6   0    7.66    0.60
   2   6   0    7.33    0.60
  -2   6   0    7.98    0.58
  -2   6   0    7.49    0.56
  -2   6   0    7.38    0.54
   2   6   0    7.92    0.58
   2   6   0    8.16    0.57
  -2   6   0    8.06    0.59
  -2   6   0    8.52    0.56
   2   6   0    8.71    0.56
   2   6   0    7.59    0.54
   2   6   0    8.21    0.59
   3  -6   0    0.00    0.04
  -3   6   0   -0.02    0.03
   3   6   0    0.00    0.03
   3   6   0   -0.02    0.04
  -3   6   0    0.02    0.03
   3   6   0    0.03    0.03
  -3   6   0    0.05    0.04
   3   6   0    0.03    0.04
  -3   6   0   -0.03    0.04
   3   6   0    0.02    0.04
   3   6   0    0.02    0.03
  -3   6   0    0.00    0.03
  -4   6   0    1.14    0.10
  -4   6   0    1.01    0.11
   4   6   0    1.17    0.11
   4   6   0    1.08    0.12
   4   6   0    1.36    0.10
   4   6   0    1.23    0.12
   4   6   0    0.94    0.10
  -4   6   0    1.06    0.11
  -4   6   0    1.01    0.10
  -4   6   0    0.98    0.10
   4   6   0    0.97    0.11
   5   6   0    0.11    0.05
  -5   6   0    0.12    0.04
  -5   6   0    0.13    0.04
  -5   6   0    0.03    0.05
  -5   6   0    0.09    0.03
   5   6   0    0.03    0.05
   5   6   0    0.09    0.06
   5   6   0    0.05    0.03
  -5   6   0    0.10    0.05
   5   6   0    0.08    0.04
   6   6   0    3.86    0.28
   6   6   0    3.99    0.29
   6   6   0    3.71    0.28
   6   6   0    3.05    0.30
  -6   6   0    4.02    0.28
  -6   6   0    3.72    0.27
   6   6   0    3.81    0.26
  -6   6   0    3.52    0.26
   6   6   0    3.41    0.27
  -6   6   0    3.82    0.28
   7   6   0    4.52    0.35
  -7   6   0    3.93    0.37
   7   6   0    5.07    0.37
   7   6   0    5.04    0.34
   7   6   0    4.76    0.34
  -7   6   0    4.94    0.35
   7   6   0    5.51    0.37
   7   6   0    4.04    0.38
  -7   6   0    5.20    0.35
  -8   6   0    4.77    0.38
  -8   6   0    6.18    0.39
   8   6   0    5.77    0.40
   8   6   0    5.19    0.40
   8   6   0    5.02    0.39
   8   6   0    5.42    0.37
   8   6   0    5.04    0.38
  -9   6   0    2.82    0.23
   9   6   0    3.02    0.23
  -9   6   0    3.10    0.23
   9   6   0    3.25    0.24
  10   6   0    0.10    0.05
 -10   6   0    0.06    0.05
 -10   6   0   -0.01    0.03
   0   7   0    0.00    0.03
   0   7   0   -0.07    0.04
   0   7   0   -0.04    0.04
  -1   7   0    0.16    0.05
   1   7   0    0.15    0.05
   1   7   0    0.20    0.05
   1   7   0    0.23    0.05
  -1   7   0    0.29    0.05
  -2   7   0    3.04    0.22
  -2   7   0    2.81    0.23
   2   7   0    2.49    0.22
  -2   7   0    2.97    0.22
   2   7   0    2.90    0.22
   2   7   0    2.74    0.23
   3   7   0    2.50    0.19
  -3   7   0    2.63    0.20
  -3   7   0    2.43    0.20
   3   7   0    2.73    0.21
  -3   7   0    2.45    0.21
  -4   7   0    0.83    0.10
  -4   7   0    0.94    0.11
   4   7   0    0.87    0.10
   4   7   0    1.03    0.10
  -4   7   0    0.94    0.09
  -5   7   0    1.59    0.14
   5   7   0    1.49    0.15
   5   7   0    1.54    0.13
  -5   7   0    1.65    0.13
   6   7   0    0.04    0.06
   6   7   0    0.06    0.04
   6   7   0    0.09    0.07
  -6   7   0    0.06    0.05
  -6   7   0    0.02    0.04
   7   7   0    0.36    0.07
  -7   7   0    0.46    0.06
   7   7   0    0.42    0.07
  -7   7   0    0.35    0.05
   7   7   0    0.37    0.07
   8   7   0    0.10    0.07
  -8   7   0    0.18    0.05
   8   7   0    0.25    0.05
  -8   7   0    0.16    0.05
   9   7   0    1.58    0.14
  -9   7   0    1.43    0.12
   0   8   0    3.56    0.29
   0   8   0    4.06    0.28
   1   8   0    0.00    0.05
   1   8   0   -0.01    0.04
  -1   8   0    0.00    0.04
  -1   8   0    0.00    0.05
   2   8   0    2.62    0.19
  -2   8   0    2.46    0.18
   2   8   0    2.39    0.20
  -2   8   0    2.27    0.19
   3   8   0    0.02    0.05
   3   8   0    0.08    0.06
  -3   8   0    0.05    0.03
   4   8   0    0.49    0.06
   4   8   0    0.35    0.07
  -4   8   0    0.33    0.06
  -5   8   0    0.01    0.04
   5   8   0    0.03    0.05
  -5   8   0   -0.05    0.03
   5   8   0    0.05    0.04
   5   8   0    0.06    0.06
   6   8   0    0.22    0.05
  -6   8   0    0.08    0.04
   6   8   0    0.37    0.06
  -6   8   0    0.24    0.04
   6   8   0    0.19    0.05
   7   8   0    0.05    0.03
  -7   8   0    0.00    0.03
   0   9   0    0.00    0.03
   1   9   0    0.28    0.05
  -1   9   0    0.34    0.04
  -2   9   0    0.05    0.02
   2   9   0    0.05    0.03
   3   9   0    0.42    0.05
  -3   9   0    0.36    0.05
   4   9   0    0.13    0.03
 -14   0   1    0.00    0.03
  13   0  -1    0.05    0.05
 -13   0   1    0.03    0.06
 -12   0   1    0.02    0.04
 -12   0   1   -0.01    0.07
  12   0  -1   -0.03    0.07
  11   0  -1   -0.03    0.04
 -11   0   1    0.04    0.05
  11   0  -1    0.01    0.06
 -11   0   1   -0.04    0.06
 -11   0   1    0.00    0.05
  11   0  -1    0.07    0.06
 -10   0   1   -0.01    0.03
 -10   0   1   -0.08    0.06
 -10   0   1   -0.04    0.04
  10   0  -1   -0.08    0.06
  10   0  -1    0.06    0.04
  10   0  -1   -0.02    0.05
   9   0  -1    0.01    0.03
  -9   0   1    0.00    0.03
  -9   0   1   -0.01    0.05
   9   0  -1   -0.06    0.04
  -9   0   1   -0.01    0.03
   9   0  -1    0.01    0.03
  -8   0   1    0.01    0.03
   8   0  -1    0.02    0.03
   8   0  -1    0.04    0.03
  -8   0   1    0.03    0.03
  -8   0   1    0.05    0.02
   8   0  -1   -0.02    0.04
   7   0  -1   -0.04    0.03
   7   0  -1    0.02    0.03
  -7   0   1    0.02    0.03
  -7   0   1    0.02    0.03
   7   0  -1    0.04    0.04
  -7   0   1    0.02    0.03
  -6   0   1    0.05    0.04
   6   0  -1    0.05    0.03
  -6   0   1    0.04    0.03
  -6   0   1    0.01    0.03
  -5   0   1    0.37    0.05
  -5   0   1    0.25    0.04
   5   0  -1    0.33    0.04
   4   0  -1    0.03    0.02
  -4   0   1    0.05    0.03
  -3   0   1   -0.14    0.02
   3   0  -1   -0.17    0.02
   2   0  -1    0.02    0.01
  -2   0   1    0.09    0.01
   2   0   1   -0.02    0.01
  -2   0  -1   -0.01    0.01
  -3   0  -1   -0.08    0.01
   3   0   1   -0.10    0.02
  -4   0  -1   -0.04    0.02
   4   0   1    0.01    0.02
  -5   0  -1    0.03    0.02
  -5   0  -1    0.01    0.03
   5   0   1    0.02    0.03
   6   0   1    0.08    0.04
  -6   0  -1    0.09    0.03
  -6   0  -1    0.08    0.04
   7   0   1    0.09    0.04
  -7   0  -1    0.12    0.04
   7   0   1    0.13    0.03
   7   0   1    0.19    0.04
  -7   0  -1    0.09    0.03
  -7   0  -1    0.13    0.03
   8   0   1    0.04    0.04
  -8   0  -1    0.03    0.02
  -8   0  -1    0.03    0.03
  -8   0  -1    0.01    0.03
   8   0   1    0.01    0.04
   8   0   1    0.04    0.03
   9   0   1    0.00    0.03
  -9   0  -1    0.02    0.03
  -9   0  -1   -0.05    0.05
   9   0   1   -0.05    0.04
  -9   0  -1   -0.02    0.03
   9   0   1    0.03    0.05
 -10   0  -1    0.09    0.06
  10   0   1    0.00    0.06
 -10   0  -1   -0.01    0.05
  10   0   1    0.02    0.05
  10   0   1    0.03    0.04
 -10   0  -1    0.07    0.06
 -11   0  -1   -0.01    0.04
 -11   0  -1   -0.05    0.04
  11   0   1   -0.07    0.06
  11   0   1   -0.02    0.04
 -11   0  -1    0.03    0.05
  11   0   1    0.02    0.04
 -12   0  -1    0.01    0.05
 -12   0  -1    0.04    0.06
  12   0   1    0.00    0.05
  12   0   1    0.04    0.06
 -13   0  -1    0.03    0.04
  13   0   1   -0.03    0.04
 -13   0  -1    0.01    0.05
 -14   0  -1   -0.01    0.04
 -14  -1   1    0.66    0.07
 -13  -1   1    0.64    0.09
  13  -1  -1    0.49    0.08
  13   1  -1    0.51    0.07
  13   1  -1    0.62    0.09
 -13   1   1    0.70    0.09
 -13   1   1    0.50    0.07
 -13   1   1    0.62    0.07
 -12  -1   1    6.01    0.44
  12   1  -1    5.04    0.41
 -12   1   1    5.26    0.39
  12   1  -1    5.21    0.43
 -12   1   1    6.03    0.43
 -11  -1   1    1.43    0.15
 -11  -1   1    1.00    0.12
  11  -1  -1    1.15    0.14
 -11  -1   1    1.20    0.11
 -11   1   1    1.22    0.12
  11   1  -1    1.17    0.12
  11   1  -1    1.47    0.14
  11   1  -1    1.27    0.14
 -11   1   1    1.50    0.14
 -11   1   1    1.07    0.13
 -10  -1   1   10.68    0.72
 -10  -1   1    9.37    0.77
 -10  -1   1   11.11    0.79
  10  -1  -1   10.32    0.79
  10   1  -1   10.05    0.79
 -10   1   1    9.85    0.78
  10   1  -1    9.97    0.79
 -10   1   1   10.40    0.72
  10   1  -1   10.53    0.75
 -10   1   1   11.61    0.79
   9  -1  -1    2.54    0.21
  -9  -1   1    2.73    0.19
  -9  -1   1    2.27    0.21
  -9  -1   1    2.25    0.21
  -9   1   1    2.86    0.19
   9   1  -1    2.04    0.21
  -9   1   1    2.50    0.20
   9   1  -1    2.41    0.21
   9   1  -1    2.32    0.19
  -9   1   1    2.59    0.21
   8  -1  -1    0.32    0.05
  -8  -1   1    0.39    0.05
  -8  -1   1    0.41    0.06
  -8  -1   1    0.31    0.05
   8   1  -1    0.37    0.06
  -8   1   1    0.33    0.06
   8   1  -1    0.39    0.05
  -8   1   1    0.26    0.05
  -8   1   1    0.33    0.04
   8   1  -1    0.37    0.06
  -7  -1   1    6.51    0.48
   7  -1  -1    7.21    0.49
  -7  -1   1    5.45    0.48
  -7  -1   1    6.52    0.44
   7  -1  -1    5.92    0.46
  -7   1   1    7.16    0.48
  -7   1   1    6.60    0.44
   7   1  -1    6.64    0.49
  -7   1   1    6.14    0.47
   7   1  -1    6.10    0.46
  -7   1   1    6.02    0.48
  -6  -1   1    2.93    0.27
  -6  -1   1    3.64    0.27
   6  -1  -1    3.65    0.27
  -6  -1   1    3.32    0.24
  -6   1   1    3.52    0.26
  -6   1   1    3.82    0.27
   6   1  -1    3.76    0.27
  -6   1   1    3.38    0.27
  -6   1   1    3.38    0.24
  -5  -1   1   79.33    5.75
   5  -1  -1   87.84    6.30
  -5  -1   1   94.31    6.18
  -5   1   1   77.61    5.75
  -5   1   1   88.91    6.17
   5   1  -1   90.40    6.30
  -5   1   1   80.46    6.10
  -4  -1   1    0.21    0.03
   4  -1  -1    0.32    0.03
  -4  -1   1    0.22    0.04
   4   1  -1    0.23    0.04
  -4   1   1    0.27    0.04
   3  -1  -1   64.58    4.89
  -3  -1   1   69.13    4.80
   3   1  -1   65.82    4.90
  -2  -1   1  146.09    9.89
   2  -1  -1  133.16   10.08
   2   1  -1  132.06   10.08
   1  -1  -1   56.15    4.16
  -1  -1   1   58.74    4.08
   1   1  -1   54.74    4.16
   0  -1   1  245.65   18.07
   1  -1   1    4.96    0.38
   1   1   1    5.28    0.38
  -2  -1  -1    7.04    0.53
   2  -1   1    7.67    0.54
   2   1   1    6.85    0.53
  -3  -1  -1   52.05    3.71
   3  -1   1   51.74    3.79
   3   1   1   50.52    3.79
  -4  -1  -1   93.38    6.52
  -4  -1  -1  102.36    7.00
   4  -1   1  102.61    7.14
  -4   1  -1   85.87    6.52
   4   1   1  101.03    7.14
   5  -1   1    1.93    0.16
  -5  -1  -1    2.30    0.16
  -5   1  -1    1.72    0.14
   5   1   1    2.22    0.16
  -5   1  -1    1.88    0.16
  -6  -1  -1    1.67    0.15
  -6  -1  -1    1.68    0.13
   6  -1   1    2.05    0.15
   6   1   1    1.72    0.14
   6   1   1    1.44    0.14
  -6   1  -1    1.72    0.14
   6   1   1    1.41    0.13
  -6   1  -1    2.07    0.13
  -6   1  -1    2.07    0.14
  -7  -1  -1    0.65    0.07
  -7  -1  -1    0.89    0.09
  -7  -1  -1    0.78    0.07
   7  -1   1    0.67    0.08
   7  -1   1    0.84    0.09
   7  -1   1    0.70    0.08
  -7   1  -1    0.75    0.07
  -7   1  -1    0.73    0.08
  -7   1  -1    0.80    0.08
   7   1   1    0.68    0.08
   7   1   1    0.76    0.06
   7   1   1    0.88    0.09
   7   1   1    0.83    0.08
  -8  -1  -1    0.34    0.06
  -8  -1  -1    0.40    0.06
   8  -1   1    0.34    0.06
  -8  -1  -1    0.30    0.05
   8  -1   1    0.40    0.05
   8  -1   1    0.29    0.05
   8   1   1    0.32    0.06
  -8   1  -1    0.39    0.05
   8   1   1    0.36    0.05
  -8   1  -1    0.41    0.05
   8   1   1    0.42    0.05
  -8   1  -1    0.39    0.06
   9  -1   1    0.20    0.05
   9  -1   1    0.20    0.06
   9  -1   1    0.18    0.05
  -9  -1  -1    0.17    0.06
  -9  -1  -1    0.13    0.05
  -9  -1  -1    0.16    0.05
  -9   1  -1    0.27    0.06
   9   1   1    0.19    0.05
  -9   1  -1    0.23    0.05
   9   1   1    0.17    0.05
  -9   1  -1    0.20    0.06
   9   1   1    0.17    0.04
 -10  -1  -1    1.76    0.19
  10  -1   1    2.01    0.18
 -10  -1  -1    2.09    0.16
 -10  -1  -1    1.90    0.19
  10  -1   1    1.82    0.17
  10  -1   1    2.13    0.17
 -10   1  -1    2.31    0.16
 -10   1  -1    1.92    0.18
  10   1   1    2.14    0.19
  10   1   1    1.84    0.17
  10   1   1    1.95    0.19
 -10   1  -1    2.24    0.19
 -11  -1  -1    0.05    0.05
 -11  -1  -1    0.13    0.07
 -11  -1  -1    0.13    0.04
  11  -1   1    0.04    0.04
  11  -1   1    0.10    0.05
  11   1   1    0.09    0.07
  11   1   1    0.10    0.06
 -11   1  -1    0.09    0.04
 -11   1  -1    0.05    0.07
 -11   1  -1    0.01    0.06
  11   1   1    0.01    0.04
  12  -1   1    0.07    0.06
 -12  -1  -1    0.05    0.05
 -12   1  -1    0.07    0.05
  12   1   1    0.13    0.05
  12   1   1    0.04    0.06
 -12   1  -1    0.04    0.07
 -13  -1  -1   -0.01    0.06
  13  -1   1    0.02    0.04
 -13   1  -1    0.01    0.04
  13   1   1    0.03    0.04
 -13   1  -1   -0.03    0.03
  13   1   1   -0.07    0.06
 -13   1  -1    0.00    0.06
  13   1   1   -0.04    0.06
 -13  -2   1    0.87    0.11
  13   2  -1    0.81    0.11
  13   2  -1    0.60    0.08
 -13   2   1    0.72    0.08
  13   2  -1    0.70    0.08
 -13   2   1    0.76    0.08
 -12  -2   1    0.33    0.08
  12   2  -1    0.29    0.06
  12   2  -1    0.25    0.07
 -12   2   1    0.23    0.06
 -12   2   1    0.33    0.06
  12   2  -1    0.26    0.06
 -12   2   1    0.30    0.07
  11  -2  -1    4.86    0.43
 -11  -2   1    5.64    0.43
  11   2  -1    6.21    0.40
  11   2  -1    4.55    0.43
 -11   2   1    4.78    0.43
 -11   2   1    6.22    0.43
  11   2  -1    5.74    0.42
  11   2  -1    5.74    0.44
 -11   2   1    5.95    0.41
 -11   2   1    5.67    0.40
  10  -2  -1    3.88    0.33
 -10  -2   1    4.05    0.33
 -10  -2   1    3.47    0.33
  10   2  -1    3.79    0.32
 -10   2   1    3.98    0.32
 -10   2   1    4.20    0.29
  10   2  -1    4.01    0.33
 -10   2   1    4.48    0.32
  10   2  -1    4.24    0.31
   9  -2  -1   12.02    0.90
  -9  -2   1   11.27    0.90
  -9  -2   1   11.49    0.89
   9   2  -1   11.89    0.91
   9   2  -1   11.25    0.90
  -9   2   1   12.21    0.89
  -9   2   1   12.74    0.82
   9   2  -1   12.38    0.86
  -9   2   1   12.89    0.90
   8  -2  -1   12.26    0.87
  -8  -2   1   12.08    0.86
  -8  -2   1   10.48    0.87
  -8  -2   1   11.85    0.79
   8   2  -1   10.65    0.87
  -8   2   1   12.01    0.87
  -8   2   1   10.22    0.82
   8   2  -1   11.64    0.82
   8   2  -1   11.60    0.87
  -8   2   1   12.22    0.79
  -8   2   1   12.42    0.85
   7  -2  -1    0.58    0.07
  -7  -2   1    0.81    0.07
  -7  -2   1    0.82    0.09
  -7  -2   1    0.62    0.08
  -7   2   1    0.67    0.06
  -7   2   1    0.63    0.07
  -7   2   1    0.63    0.08
   7   2  -1    0.80    0.08
   7   2  -1    0.66    0.08
  -7   2   1    0.59    0.08
   7   2  -1    0.76    0.08
  -6  -2   1   57.03    3.69
  -6  -2   1   44.91    3.77
  -6  -2   1   53.59    3.43
   6  -2  -1   53.92    3.76
   6   2  -1   44.39    3.33
   6   2  -1   54.61    3.76
  -6   2   1   51.84    3.64
   6   2  -1   49.18    3.56
   6   2  -1   45.82    3.77
  -6   2   1   47.14    3.55
  -6   2   1   59.19    3.69
  -6   2   1   50.25    3.77
  -6   2   1   51.17    3.43
  -5  -2   1    6.35    0.44
   5  -2  -1    6.18    0.44
  -5  -2   1    5.67    0.40
  -5   2   1    5.71    0.43
  -5   2   1    5.41    0.44
   5   2  -1    6.52    0.45
  -5   2   1    5.38    0.40
  -4  -2   1    0.08    0.03
   4  -2  -1    0.06    0.02
   4   2  -1    0.07    0.03
  -4   2   1    0.08    0.02
   3  -2  -1    2.16    0.17
  -3  -2   1    2.22    0.17
   3   2  -1    2.12    0.17
   3   2  -1    2.13    0.15
  -3   2   1    2.10    0.16
  -2  -2   1    2.16    0.16
   2  -2  -1    2.14    0.16
   2   2  -1    1.82    0.16
   1  -2  -1   34.12    2.60
  -1  -2   1   36.19    2.61
   0  -2   1    0.91    0.09
   0  -2  -1    1.12    0.08
  -1  -2  -1  966.84   70.82
   1  -2   1 1000.00   72.25
   1   2   1  980.35   72.24
  -2  -2  -1  647.19   45.37
   2  -2   1  619.17   46.29
   2   2   1  621.53   46.29
   3  -2   1    7.08    0.50
  -3  -2  -1    6.84    0.49
  -3   2  -1    6.05    0.45
   3   2   1    6.61    0.48
   3   2   1    6.87    0.50
  -4  -2  -1   14.71    1.02
  -4  -2  -1   12.72    0.95
   4  -2   1   15.39    1.04
  -4   2  -1   13.27    0.95
   4   2   1   13.86    1.01
  -4   2  -1   13.71    1.01
   4   2   1   14.36    1.04
  -5  -2  -1  117.23    7.80
   5  -2   1  124.50    7.95
  -5  -2  -1  107.37    7.26
  -5   2  -1  107.07    7.70
   5   2   1  103.84    7.70
   5   2   1  103.33    7.06
  -5   2  -1  106.26    7.97
   5   2   1   97.60    7.97
  -5   2  -1  103.39    7.26
   5   2   1  109.58    7.95
  -6  -2  -1   37.08    2.48
  -6  -2  -1   39.94    2.67
   6  -2   1   41.26    2.72
  -6   2  -1   32.53    2.64
  -6   2  -1   37.58    2.48
   6   2   1   33.40    2.64
   6   2   1   33.80    2.73
  -6   2  -1   35.93    2.73
  -6   2  -1   41.85    2.67
   6   2   1   35.94    2.41
   6   2   1   33.93    2.58
   6   2   1   39.20    2.72
  -7  -2  -1   46.56    3.09
  -7  -2  -1   46.08    3.32
   7  -2   1   49.61    3.39
   7   2   1   41.84    3.00
  -7   2  -1   48.91    3.32
   7   2   1   42.19    3.39
  -7   2  -1   44.08    3.39
  -7   2  -1   47.09    3.09
   7   2   1   43.80    3.20
   7   2   1   48.37    3.39
   8  -2   1    3.51    0.29
  -8  -2  -1    4.04    0.26
  -8  -2  -1    3.56    0.29
  -8   2  -1    3.74    0.29
   8   2   1    3.54    0.29
   8   2   1    3.48    0.28
   8   2   1    3.33    0.29
  -8   2  -1    3.86    0.26
  -8   2  -1    3.69    0.28
   9  -2   1    0.67    0.09
  -9  -2  -1    0.82    0.12
  -9  -2  -1    0.76    0.08
  -9  -2  -1    0.83    0.11
   9   2   1    0.91    0.11
  -9   2  -1    0.77    0.11
   9   2   1    1.03    0.11
  -9   2  -1    0.71    0.09
   9   2   1    1.06    0.11
  -9   2  -1    0.76    0.09
 -10  -2  -1    1.88    0.18
  10  -2   1    2.19    0.19
 -10  -2  -1    1.76    0.19
 -10   2  -1    2.42    0.19
  10   2   1    1.88    0.17
  10   2   1    1.95    0.18
 -10   2  -1    2.16    0.17
  10   2   1    2.21    0.18
 -10   2  -1    1.85    0.18
  11  -2   1    1.91    0.18
 -11  -2  -1    1.64    0.17
  11  -2   1    1.66    0.17
 -11  -2  -1    1.83    0.17
 -11   2  -1    2.07    0.16
  11   2   1    2.10    0.17
 -11   2  -1    2.12    0.16
 -11   2  -1    2.03    0.18
  11   2   1    1.94    0.16
 -11   2  -1    1.57    0.17
  11   2   1    1.80    0.17
 -12  -2  -1    3.50    0.30
  12  -2   1    3.42    0.30
  12   2   1    3.47    0.28
  12   2   1    3.68    0.27
 -12   2  -1    3.40    0.27
 -12   2  -1    3.68    0.27
 -12   2  -1    3.95    0.30
  12   2   1    4.20    0.30
 -13  -2  -1    0.11    0.05
  13  -2   1    0.13    0.05
 -13   2  -1   -0.02    0.05
  13   2   1    0.10    0.04
  13   2   1    0.10    0.06
 -13   2  -1    0.10    0.05
 -13  -3   1    0.41    0.08
  13   3  -1    0.44    0.06
 -12  -3   1    0.05    0.07
  12   3  -1   -0.02    0.04
 -12   3   1   -0.03    0.05
 -12   3   1    0.02    0.04
 -12   3   1    0.01    0.04
  12   3  -1    0.00    0.05
  12   3  -1    0.03    0.05
 -11  -3   1    6.64    0.55
 -11   3   1    7.70    0.54
  11   3  -1    7.03    0.53
 -11   3   1    7.21    0.52
  11   3  -1    7.45    0.50
 -11   3   1    6.49    0.50
  11   3  -1    7.46    0.55
 -10  -3   1    0.25    0.07
 -10  -3   1    0.21    0.06
  10  -3  -1    0.20    0.07
 -10   3   1    0.25    0.06
  10   3  -1    0.34    0.08
  10   3  -1    0.41    0.07
 -10   3   1    0.24    0.06
  10   3  -1    0.28    0.06
  10   3  -1    0.26    0.06
 -10   3   1    0.17    0.05
 -10   3   1    0.28    0.06
  -9  -3   1   13.96    1.11
  -9  -3   1   14.37    1.13
   9  -3  -1   14.34    1.13
   9   3  -1   15.11    1.07
  -9   3   1   14.04    1.11
   9   3  -1   13.94    1.13
  -9   3   1   17.05    1.13
  -9   3   1   12.62    1.06
  -9   3   1   15.88    1.03
  -9   3   1   16.43    1.07
   9   3  -1   16.82    1.03
   9   3  -1   16.17    1.13
  -8  -3   1    0.54    0.07
  -8  -3   1    0.50    0.09
   8  -3  -1    0.47    0.07
   8   3  -1    0.52    0.07
   8   3  -1    0.48    0.06
  -8   3   1    0.40    0.06
  -8   3   1    0.37    0.07
   8   3  -1    0.42    0.08
  -8   3   1    0.48    0.06
  -8   3   1    0.58    0.06
   8   3  -1    0.46    0.06
  -8   3   1    0.49    0.06
   7  -3  -1   29.56    2.05
  -7  -3   1   26.37    2.02
   7   3  -1   27.21    2.05
   7   3  -1   26.05    1.94
  -7   3   1   27.28    1.99
   7   3  -1   25.52    1.82
  -7   3   1   28.71    2.01
   7   3  -1   29.57    1.87
  -7   3   1   27.91    1.87
   7   3  -1   29.38    2.05
  -7   3   1   27.90    2.05
  -7   3   1   25.02    1.93
  -7   3   1   29.13    1.94
   6  -3  -1    3.21    0.24
  -6  -3   1    3.29    0.25
  -6   3   1    2.92    0.24
  -6   3   1    3.40    0.24
   6   3  -1    3.29    0.22
  -6   3   1    2.88    0.22
   6   3  -1    3.28    0.24
   6   3  -1    3.10    0.24
  -6   3   1    3.09    0.23
  -6   3   1    3.02    0.24
  -6   3   1    2.85    0.22
   6   3  -1    2.87    0.23
   6   3  -1    2.97    0.21
  -5  -3   1    0.19    0.04
   5  -3  -1    0.11    0.04
  -5   3   1    0.14    0.04
   5   3  -1    0.21    0.04
   5   3  -1    0.19    0.04
  -5   3   1    0.15    0.03
  -5   3   1    0.14    0.03
  -5   3   1    0.15    0.03
   5   3  -1    0.22    0.04
   5   3  -1    0.18    0.03
  -5   3   1    0.13    0.03
   4  -3  -1   67.76    4.60
  -4  -3   1   68.14    4.51
  -4   3   1   64.78    4.45
  -4   3   1   60.91    4.34
   4   3  -1   68.51    4.60
   4   3  -1   57.71    4.45
  -4   3   1   56.91    4.19
   4   3  -1   56.82    4.61
   4   3  -1   62.81    4.19
  -4   3   1   59.57    4.61
  -3  -3   1   44.17    3.03
   3  -3  -1   43.55    3.09
   3   3  -1   44.94    3.09
   3   3  -1   40.34    2.99
  -3   3   1   35.65    2.82
   3   3  -1   40.88    2.82
  -3   3   1   43.96    2.99
   2  -3  -1    7.99    0.58
   2   3  -1    7.04    0.53
   2   3  -1    7.61    0.56
   2   3  -1    8.25    0.58
  -2   3   1    7.76    0.56
  -1  -3   1   25.30    1.74
   1  -3  -1   23.92    1.73
   1   3  -1   21.00    1.58
   1   3  -1   23.88    1.68
  -1   3   1   23.34    1.68
   0  -3  -1    9.36    0.68
   0  -3   1    9.33    0.68
   0   3   1    9.72    0.66
   0   3  -1    8.76    0.66
   0   3  -1    8.44    0.62
   1  -3   1  116.17    8.29
  -1   3  -1  117.10    8.03
  -1   3  -1  102.50    7.57
   1   3   1  117.64    8.03
   1   3   1  110.02    8.29
  -2  -3  -1   60.29    4.54
   2  -3   1   69.21    4.63
  -2   3  -1   61.21    4.22
   2   3   1   64.75    4.63
   2   3   1   64.62    4.49
   2   3   1   60.30    4.22
  -2   3  -1   59.76    4.49
   3  -3   1  133.77    9.36
  -3  -3  -1  134.52    9.18
  -3   3  -1  117.66    9.39
   3   3   1  136.25    9.36
   3   3   1  115.95    9.39
   3   3   1  120.89    8.54
  -3   3  -1  124.04    8.54
   3   3   1  133.28    9.07
  -3   3  -1  128.43    9.07
  -4  -3  -1   33.18    2.23
   4  -3   1   33.92    2.27
  -4   3  -1   28.45    2.07
  -4   3  -1   32.00    2.20
  -4   3  -1   28.89    2.15
   4   3   1   28.07    2.28
   4   3   1   31.99    2.20
  -4   3  -1   29.55    2.28
   4   3   1   33.40    2.27
   4   3   1   28.54    2.07
   5  -3   1   38.95    2.55
  -5  -3  -1   37.46    2.50
   5   3   1   33.47    2.41
  -5   3  -1   33.67    2.33
   5   3   1   35.23    2.47
  -5   3  -1   32.18    2.41
  -5   3  -1   34.35    2.55
  -5   3  -1   35.96    2.47
   5   3   1   34.77    2.26
   5   3   1   30.41    2.41
  -5   3  -1   32.68    2.41
   5   3   1   36.76    2.55
   5   3   1   34.21    2.33
   5   3   1   33.34    2.55
   6  -3   1   13.64    0.92
  -6  -3  -1   13.33    0.90
   6   3   1   13.05    0.83
   6   3   1   10.32    0.86
   6   3   1   12.19    0.91
  -6   3  -1   11.61    0.89
  -6   3  -1   12.64    0.91
   6   3   1   12.51    0.81
  -6   3  -1   12.51    0.83
  -6   3  -1   11.13    0.86
   6   3   1   11.60    0.87
  -6   3  -1   12.31    0.86
   6   3   1   11.57    0.88
   6   3   1   13.18    0.92
  -7  -3  -1    0.92    0.11
   7  -3   1    0.85    0.10
  -7   3  -1    0.80    0.09
  -7   3  -1    0.87    0.08
   7   3   1    0.81    0.10
  -7   3  -1    0.93    0.10
  -7   3  -1    0.87    0.09
   7   3   1    0.90    0.10
   7   3   1    0.81    0.08
   7   3   1    0.85    0.08
   7   3   1    0.79    0.09
  -8  -3  -1    6.95    0.54
   8  -3   1    6.93    0.54
   8   3   1    6.37    0.48
   8   3   1    6.98    0.54
   8   3   1    7.25    0.51
  -8   3  -1    7.13    0.54
   8   3   1    7.65    0.49
  -8   3  -1    7.19    0.53
  -8   3  -1    6.98    0.51
   8   3   1    6.98    0.54
  -8   3  -1    6.92    0.49
   9  -3   1    4.55    0.36
  -9  -3  -1    3.86    0.36
   9   3   1    4.64    0.36
  -9   3  -1    4.25    0.35
  -9   3  -1    4.56    0.33
   9   3   1    4.68    0.33
   9   3   1    4.63    0.34
   9   3   1    4.47    0.36
  -9   3  -1    4.71    0.36
  -9   3  -1    4.78    0.33
  10  -3   1    6.77    0.56
 -10  -3  -1    6.30    0.55
  10   3   1    6.96    0.56
 -10   3  -1    6.24    0.55
 -10   3  -1    7.37    0.52
 -10   3  -1    7.97    0.55
  10   3   1    7.89    0.55
 -10   3  -1    7.13    0.50
  10   3   1    7.47    0.51
  10   3   1    7.55    0.53
 -11  -3  -1    0.58    0.09
  11   3   1    0.75    0.11
  11   3   1    0.54    0.07
  11   3   1    0.53    0.09
 -11   3  -1    0.68    0.09
 -11   3  -1    0.58    0.07
 -11   3  -1    0.71    0.10
 -12  -3  -1    1.40    0.17
  12   3   1    1.81    0.16
 -12   3  -1    1.76    0.15
 -12   3  -1    1.78    0.15
 -12   3  -1    1.74    0.14
  12   3   1    1.84    0.16
  12   3   1    1.61    0.14
 -13  -3  -1    0.05    0.05
 -13   3  -1    0.05    0.03
  13   3   1    0.08    0.03
 -12  -4   1    0.27    0.06
 -12   4   1    0.12    0.04
  12   4  -1    0.23    0.06
  12   4  -1    0.28    0.06
 -12   4   1    0.14    0.04
 -11  -4   1    0.17    0.07
  11   4  -1    0.21    0.08
 -11   4   1    0.24    0.05
  11   4  -1    0.19    0.06
  11   4  -1    0.32    0.06
 -11   4   1    0.11    0.06
 -11   4   1    0.13    0.04
 -10  -4   1    2.98    0.28
 -10   4   1    3.48    0.26
 -10   4   1    3.30    0.25
  10   4  -1    3.42    0.26
  10   4  -1    3.30    0.27
 -10   4   1    3.82    0.26
 -10   4   1    3.12    0.26
  10   4  -1    3.68    0.28
   9  -4  -1    5.24    0.45
  -9  -4   1    4.94    0.45
   9   4  -1    5.37    0.45
   9   4  -1    5.88    0.43
   9   4  -1    6.19    0.44
  -9   4   1    6.40    0.44
  -9   4   1    5.26    0.40
  -9   4   1    6.49    0.42
  -9   4   1    5.50    0.41
   9   4  -1    6.03    0.41
  -9   4   1    5.69    0.44
   8  -4  -1    8.64    0.71
  -8  -4   1    8.54    0.71
   8   4  -1    8.76    0.72
   8   4  -1    9.00    0.68
  -8   4   1   10.20    0.71
  -8   4   1    9.18    0.67
   8   4  -1   10.25    0.71
  -8   4   1   10.42    0.67
   8   4  -1    9.72    0.65
  -8   4   1    8.97    0.70
  -8   4   1    9.58    0.65
  -7  -4   1   -0.02    0.06
   7  -4  -1    0.01    0.05
   7   4  -1    0.03    0.04
  -7   4   1    0.01    0.03
   7   4  -1    0.02    0.03
   7   4  -1   -0.01    0.03
   7   4  -1    0.04    0.05
   7   4  -1   -0.03    0.05
  -7   4   1    0.03    0.03
  -7   4   1    0.03    0.05
  -7   4   1   -0.01    0.04
  -7   4   1    0.00    0.04
  -7   4   1    0.05    0.05
  -6  -4   1   19.13    1.46
   6  -4  -1   19.89    1.48
   6   4  -1   21.51    1.35
  -6   4   1   18.85    1.39
   6   4  -1   19.85    1.48
  -6   4   1   18.86    1.43
   6   4  -1   20.19    1.48
   6   4  -1   19.20    1.40
  -6   4   1   20.78    1.40
   6   4  -1   19.33    1.31
  -6   4   1   20.27    1.35
  -6   4   1   20.77    1.48
   5  -4  -1    0.07    0.03
  -5  -4   1    0.06    0.05
  -5   4   1    0.05    0.03
  -5   4   1    0.08    0.03
   5   4  -1    0.11    0.03
  -5   4   1    0.06    0.03
  -5   4   1    0.11    0.03
   5   4  -1    0.09    0.04
   5   4  -1    0.06    0.04
  -5   4   1    0.03    0.03
  -4  -4   1    4.30    0.33
   4  -4  -1    4.65    0.33
  -4   4   1    4.46    0.30
   4   4  -1    3.84    0.31
  -4   4   1    4.25    0.31
   4   4  -1    3.56    0.30
  -4   4   1    4.01    0.29
  -4   4   1    4.60    0.32
   4   4  -1    4.15    0.33
   4   4  -1    4.47    0.33
   4   4  -1    3.98    0.32
  -4   4   1    4.55    0.31
   4   4  -1    4.51    0.30
   3  -4  -1    0.93    0.08
  -3   4   1    0.78    0.07
   3   4  -1    0.91    0.08
   3   4  -1    0.93    0.09
  -3   4   1    0.72    0.06
  -3   4   1    0.84    0.07
  -3   4   1    0.80    0.08
   3   4  -1    0.83    0.08
   3   4  -1    0.87    0.08
  -3   4   1    0.78    0.07
   3   4  -1    0.80    0.07
   3   4  -1    0.89    0.07
   2  -4  -1    5.98    0.45
   2   4  -1    5.88    0.41
   2   4  -1    6.60    0.45
  -2   4   1    5.34    0.45
   2   4  -1    6.83    0.43
   2   4  -1    6.40    0.45
  -2   4   1    6.24    0.43
   2   4  -1    5.94    0.42
  -2   4   1    5.02    0.41
  -2   4   1    5.17    0.42
   2   4  -1    6.48    0.44
  -2   4   1    5.93    0.42
   1  -4  -1   78.60    5.45
   1   4  -1   71.26    5.16
   1   4  -1   70.50    5.47
  -1   4   1   77.60    5.28
  -1   4   1   77.01    5.15
  -1   4   1   71.79    5.47
   1   4  -1   72.32    4.97
   1   4  -1   80.18    5.28
  -1   4   1   66.96    4.97
   0  -4   1    4.29    0.31
   0  -4  -1    3.77    0.30
   0   4  -1    4.62    0.29
   0   4   1    3.40    0.27
   0   4   1    4.40    0.29
   0   4  -1    3.91    0.30
   0   4  -1    3.79    0.28
   0   4   1    3.74    0.30
   1  -4   1    3.29    0.24
   1   4   1    3.06    0.22
   1   4   1    2.94    0.23
  -1   4  -1    2.77    0.21
   1   4   1    2.81    0.21
   1   4   1    3.37    0.23
   1   4   1    3.11    0.23
  -1   4  -1    2.95    0.22
  -1   4  -1    3.00    0.22
  -1   4  -1    3.12    0.22
  -1   4  -1    3.01    0.23
   2  -4   1    5.23    0.36
   2   4   1    5.27    0.35
  -2   4  -1    4.61    0.33
   2   4   1    4.72    0.36
  -2   4  -1    4.95    0.34
   2   4   1    4.80    0.34
  -2   4  -1    4.80    0.35
  -2   4  -1    4.62    0.34
   2   4   1    4.65    0.36
   2   4   1    3.95    0.34
  -2   4  -1    4.94    0.36
   2   4   1    4.57    0.33
   3  -4   1    4.33    0.30
  -3   4  -1    4.18    0.29
  -3   4  -1    3.87    0.28
  -3   4  -1    3.57    0.27
   3   4   1    3.85    0.28
  -3   4  -1    3.94    0.30
   3   4   1    3.61    0.27
  -3   4  -1    4.06    0.28
   3   4   1    3.95    0.30
   3   4   1    4.00    0.30
   3   4   1    3.63    0.29
   3   4   1    4.09    0.29
   4  -4   1    6.03    0.43
  -4  -4  -1    5.56    0.43
  -4   4  -1    5.81    0.43
  -4   4  -1    5.53    0.39
  -4   4  -1    5.50    0.40
   4   4   1    6.11    0.43
   4   4   1    5.78    0.42
   4   4   1    5.21    0.39
  -4   4  -1    5.79    0.42
   4   4   1    5.47    0.41
   4   4   1    5.57    0.43
   4   4   1    5.51    0.40
  -4   4  -1    5.80    0.40
  -5  -4  -1    6.49    0.53
   5  -4   1    7.70    0.53
  -5   4  -1    7.03    0.48
   5   4   1    6.57    0.50
  -5   4  -1    6.66    0.52
   5   4   1    6.99    0.52
   5   4   1    6.94    0.53
   5   4   1    7.36    0.48
   5   4   1    7.00    0.53
   5   4   1    7.23    0.51
  -5   4  -1    7.54    0.50
  -5   4  -1    7.32    0.53
  -5   4  -1    6.70    0.50
   6  -4   1    3.75    0.28
  -6  -4  -1    3.16    0.28
  -6   4  -1    3.83    0.26
   6   4   1    3.28    0.24
   6   4   1    3.59    0.26
   6   4   1    3.64    0.27
   6   4   1    3.26    0.26
  -6   4  -1    3.65    0.27
   6   4   1    3.73    0.25
   6   4   1    2.97    0.25
  -6   4  -1    3.37    0.25
   6   4   1    3.70    0.28
  -6   4  -1    3.29    0.27
  -6   4  -1    3.43    0.25
  -7  -4  -1   14.98    1.23
   7  -4   1   17.80    1.25
  -7   4  -1   17.15    1.17
   7   4   1   16.02    1.10
  -7   4  -1   18.21    1.14
  -7   4  -1   17.92    1.24
   7   4   1   16.43    1.25
   7   4   1   16.70    1.18
   7   4   1   14.46    1.17
   7   4   1   16.94    1.13
  -7   4  -1   15.60    1.17
   7   4   1   17.34    1.24
  -7   4  -1   17.13    1.23
  -8  -4  -1    0.56    0.10
   8  -4   1    0.63    0.09
   8   4   1    0.57    0.09
  -8   4  -1    0.60    0.09
   8   4   1    0.54    0.08
  -8   4  -1    0.58    0.07
   8   4   1    0.46    0.09
  -8   4  -1    0.67    0.09
   8   4   1    0.59    0.08
   8   4   1    0.72    0.10
  -8   4  -1    0.68    0.08
   9  -4   1    7.58    0.62
  -9   4  -1    8.62    0.59
   9   4   1    9.02    0.62
  -9   4  -1    7.72    0.57
  -9   4  -1    9.21    0.62
   9   4   1    7.25    0.62
  -9   4  -1    7.21    0.61
   9   4   1    7.98    0.56
   9   4   1    8.46    0.59
  10   4   1    0.56    0.08
 -10   4  -1    0.51    0.07
 -10   4  -1    0.50    0.07
 -10   4  -1    0.53    0.07
  10   4   1    0.35    0.07
  10   4   1    0.46    0.07
  11   4   1    0.00    0.04
 -11   4  -1    0.05    0.04
  11   4   1   -0.03    0.05
 -11   4  -1    0.01    0.04
  11   4   1    0.03    0.07
 -11   4  -1    0.01    0.06
  12   4   1    0.31    0.06
  12   4   1    0.22    0.05
 -12   4  -1    0.33    0.05
  11   5  -1    0.55    0.09
 -11   5   1    0.45    0.07
 -11   5   1    0.42    0.06
  11   5  -1    0.48    0.07
 -10   5   1    0.45    0.06
  10   5  -1    0.43    0.07
  10   5  -1    0.39    0.06
 -10   5   1    0.35    0.07
  10   5  -1    0.48    0.07
  -9   5   1    6.94    0.47
   9   5  -1    7.10    0.50
   9   5  -1    6.33    0.48
   9   5  -1    6.34    0.45
  -9   5   1    5.68    0.46
  -8   5   1    0.07    0.06
  -8   5   1    0.01    0.04
   8   5  -1    0.04    0.06
   8   5  -1    0.04    0.06
   8   5  -1    0.05    0.04
  -8   5   1    0.03    0.04
  -8   5   1    0.07    0.04
   8   5  -1   -0.01    0.05
  -8   5   1    0.03    0.05
  -7   5   1    4.33    0.31
  -7   5   1    4.33    0.33
   7   5  -1    3.70    0.29
  -7   5   1    3.73    0.32
   7   5  -1    3.81    0.33
   7   5  -1    4.54    0.33
   7   5  -1    4.32    0.32
  -7   5   1    4.16    0.30
   7   5  -1    4.19    0.29
  -7   5   1    3.68    0.29
  -7   5   1    4.44    0.31
   6  -5  -1    0.20    0.05
  -6   5   1    0.29    0.05
   6   5  -1    0.21    0.05
  -6   5   1    0.33    0.05
   6   5  -1    0.30    0.05
  -6   5   1    0.32    0.05
  -6   5   1    0.25    0.05
   6   5  -1    0.30    0.06
  -6   5   1    0.34    0.05
   6   5  -1    0.24    0.06
   6   5  -1    0.21    0.07
   5  -5  -1    0.93    0.09
  -5   5   1    0.98    0.09
  -5   5   1    0.80    0.09
  -5   5   1    1.12    0.09
   5   5  -1    1.00    0.09
  -5   5   1    1.11    0.10
   5   5  -1    1.01    0.10
   5   5  -1    1.07    0.11
   5   5  -1    0.96    0.10
   5   5  -1    1.01    0.11
  -5   5   1    0.94    0.09
   4  -5  -1    0.87    0.09
   4   5  -1    0.71    0.08
   4   5  -1    0.92    0.09
  -4   5   1    1.02    0.08
  -4   5   1    1.02    0.08
  -4   5   1    0.99    0.08
   4   5  -1    0.86    0.10
  -4   5   1    0.87    0.08
   4   5  -1    0.89    0.08
  -4   5   1    0.92    0.08
   4   5  -1    0.70    0.09
   4   5  -1    0.89    0.10
   3  -5  -1    1.87    0.16
   3   5  -1    1.72    0.15
   3   5  -1    1.76    0.16
  -3   5   1    2.02    0.15
   3   5  -1    2.00    0.17
  -3   5   1    2.06    0.15
  -3   5   1    2.18    0.15
   3   5  -1    1.97    0.15
   3   5  -1    1.98    0.16
  -3   5   1    2.08    0.16
   3   5  -1    1.80    0.16
  -3   5   1    1.71    0.14
   2  -5  -1    0.81    0.08
   2   5  -1    0.70    0.07
  -2   5   1    0.83    0.06
  -2   5   1    0.72    0.07
   2   5  -1    0.61    0.07
   2   5  -1    0.74    0.08
  -2   5   1    0.61    0.07
   2   5  -1    0.86    0.07
  -2   5   1    0.81    0.07
   2   5  -1    0.72    0.08
   1  -5  -1    0.17    0.03
   1   5  -1    0.30    0.04
   1   5  -1    0.31    0.04
  -1   5   1    0.35    0.05
  -1   5   1    0.20    0.03
  -1   5   1    0.20    0.03
   1   5  -1    0.26    0.04
  -1   5   1    0.17    0.03
   1   5  -1    0.28    0.04
   1   5  -1    0.20    0.04
  -1   5   1    0.14    0.03
   0   5  -1    0.33    0.04
   0   5  -1    0.30    0.04
   0   5   1    0.39    0.04
   0   5  -1    0.40    0.05
   0   5   1    0.38    0.05
   0   5   1    0.39    0.05
   0   5  -1    0.33    0.04
   0   5   1    0.34    0.05
   0   5   1    0.40    0.04
   0   5  -1    0.42    0.05
   1  -5   1    1.66    0.14
   1   5   1    1.81    0.13
   1   5   1    1.56    0.13
   1   5   1    1.76    0.13
  -1   5  -1    1.65    0.13
   1   5   1    1.63    0.12
  -1   5  -1    1.51    0.13
  -1   5  -1    1.63    0.13
   1   5   1    1.55    0.13
  -1   5  -1    1.61    0.12
  -1   5  -1    1.73    0.14
   2  -5   1    1.41    0.11
  -2   5  -1    1.17    0.10
   2   5   1    1.16    0.10
  -2   5  -1    1.23    0.11
   2   5   1    1.17    0.11
  -2   5  -1    1.13    0.10
   2   5   1    1.23    0.09
   2   5   1    1.20    0.11
  -2   5  -1    1.51    0.11
   2   5   1    1.14    0.10
   2   5   1    1.17    0.10
  -2   5  -1    1.33    0.10
   3  -5   1    0.07    0.03
  -3   5  -1    0.10    0.03
   3   5   1    0.05    0.03
   3   5   1    0.15    0.04
  -3   5  -1    0.10    0.03
   3   5   1    0.12    0.03
  -3   5  -1    0.10    0.03
   3   5   1    0.09    0.04
  -3   5  -1    0.11    0.03
   3   5   1    0.08    0.02
   3   5   1    0.06    0.03
  -3   5  -1    0.10    0.03
   4  -5   1    2.41    0.20
  -4   5  -1    2.57    0.18
   4   5   1    2.56    0.20
   4   5   1    2.37    0.18
   4   5   1    2.54    0.19
  -4   5  -1    2.48    0.19
   4   5   1    2.28    0.19
  -4   5  -1    2.61    0.18
   4   5   1    2.49    0.20
  -4   5  -1    2.11    0.18
  -4   5  -1    2.36    0.19
   4   5   1    2.40    0.18
   5  -5   1    7.04    0.56
  -5   5  -1    7.75    0.52
  -5   5  -1    7.56    0.50
   5   5   1    7.24    0.54
   5   5   1    7.39    0.53
   5   5   1    7.03    0.50
  -5   5  -1    7.21    0.52
   5   5   1    7.56    0.55
  -5   5  -1    7.13    0.54
   5   5   1    6.89    0.56
   5   5   1    7.45    0.52
   6  -5   1   10.66    0.82
  -6   5  -1   11.01    0.77
   6   5   1   11.17    0.82
   6   5   1   10.34    0.82
  -6   5  -1   10.93    0.75
   6   5   1   10.01    0.75
   6   5   1   11.51    0.78
   6   5   1    9.93    0.77
   6   5   1   11.37    0.73
  -6   5  -1   12.09    0.78
   7  -5   1    0.28    0.05
  -7   5  -1    0.37    0.06
   7   5   1    0.24    0.06
   7   5   1    0.26    0.06
  -7   5  -1    0.24    0.06
  -7   5  -1    0.37    0.06
   7   5   1    0.30    0.06
  -7   5  -1    0.38    0.05
   7   5   1    0.20    0.06
   7   5   1    0.26    0.06
   7   5   1    0.26    0.06
   8  -5   1    2.60    0.24
  -8   5  -1    3.15    0.23
   8   5   1    2.64    0.25
   8   5   1    3.07    0.22
  -8   5  -1    2.72    0.23
  -8   5  -1    2.80    0.22
  -8   5  -1    2.87    0.24
   8   5   1    3.12    0.22
   8   5   1    3.21    0.23
   8   5   1    3.26    0.24
   9   5   1    0.15    0.07
   9   5   1    0.12    0.06
   9   5   1    0.12    0.05
   9   5   1    0.18    0.07
  -9   5  -1    0.12    0.04
  -9   5  -1    0.12    0.04
  -9   5  -1    0.15    0.06
 -10   5  -1    0.02    0.03
 -10   5  -1   -0.06    0.04
  10   5   1   -0.03    0.04
 -10   5  -1   -0.02    0.05
  10   5   1    0.07    0.05
  10   5   1   -0.05    0.05
 -10   5  -1   -0.01    0.06
  11   5   1    1.93    0.16
  11   5   1    1.51    0.13
 -11   5  -1    1.71    0.14
  10   6  -1    0.00    0.03
 -10   6   1    0.01    0.03
 -10   6   1    0.07    0.03
  10   6  -1    0.12    0.05
   9   6  -1    1.26    0.12
  -9   6   1    1.09    0.11
   9   6  -1    1.27    0.10
  -9   6   1    1.08    0.10
   9   6  -1    1.22    0.11
  -8   6   1    3.52    0.27
   8   6  -1    4.07    0.29
   8   6  -1    3.91    0.28
   8   6  -1    3.59    0.27
  -8   6   1    3.12    0.27
   7   6  -1    0.13    0.07
   7   6  -1   -0.02    0.04
  -7   6   1   -0.10    0.05
   7   6  -1    0.05    0.04
   7   6  -1    0.08    0.07
   7   6  -1    0.05    0.05
  -7   6   1    0.00    0.04
  -7   6   1    0.04    0.05
   6   6  -1    4.35    0.40
   6   6  -1    4.90    0.36
  -6   6   1    5.57    0.37
   6   6  -1    5.39    0.39
  -6   6   1    5.59    0.37
  -6   6   1    4.70    0.39
   6   6  -1    5.13    0.36
   6   6  -1    5.45    0.38
   6   6  -1    4.95    0.38
   5   6  -1    0.16    0.06
  -5   6   1    0.09    0.05
   5   6  -1    0.11    0.04
   5   6  -1    0.14    0.07
   5   6  -1    0.17    0.04
  -5   6   1    0.13    0.04
  -5   6   1    0.20    0.05
   5   6  -1    0.18    0.06
   4   6  -1   21.99    1.57
   4   6  -1   22.42    1.49
   4   6  -1   19.16    1.57
  -4   6   1   20.34    1.48
  -4   6   1   23.20    1.48
   4   6  -1   19.65    1.48
  -4   6   1   20.11    1.52
   4   6  -1   22.05    1.43
  -3   6   1    0.89    0.08
   3   6  -1    0.89    0.11
   3   6  -1    1.07    0.08
   3   6  -1    0.82    0.10
  -3   6   1    0.86    0.08
  -3   6   1    0.85    0.10
   3   6  -1    0.88    0.10
   3   6  -1    0.94    0.10
  -3   6   1    1.10    0.10
   3   6  -1    0.95    0.10
  -2   6   1    2.80    0.22
  -2   6   1    2.74    0.21
  -2   6   1    2.92    0.22
   2   6  -1    2.63    0.22
   2   6  -1    2.93    0.22
   2   6  -1    2.68    0.24
   2   6  -1    2.94    0.23
  -2   6   1    2.72    0.22
   2   6  -1    2.98    0.21
   2   6  -1    3.41    0.23
  -1   6   1    1.48    0.12
   1   6  -1    1.83    0.14
   1   6  -1    1.39    0.13
   1   6  -1    1.35    0.14
   1   6  -1    1.38    0.12
  -1   6   1    1.65    0.13
   1   6  -1    1.49    0.12
  -1   6   1    1.54    0.13
  -1   6   1    1.48    0.13
  -1   6   1    1.48    0.12
   1   6  -1    1.45    0.13
  -1   6   1    1.37    0.12
   0   6   1    4.89    0.37
   0   6  -1    5.22    0.36
   0   6  -1    4.89    0.37
   0   6   1    4.18    0.34
   0   6   1    5.42    0.37
   0   6   1    5.43    0.36
   0   6  -1    5.22    0.38
   0   6  -1    4.76    0.35
   0   6  -1    5.32    0.36
   0   6  -1    4.31    0.38
  -1   6  -1    0.04    0.03
   1   6   1    0.05    0.04
   1   6   1    0.13    0.04
  -1   6  -1    0.02    0.04
   1   6   1    0.03    0.04
   1   6   1    0.08    0.02
   1   6   1    0.07    0.03
  -1   6  -1    0.08    0.04
   1   6   1    0.06    0.03
  -1   6  -1    0.00    0.04
  -1   6  -1    0.05    0.03
   2  -6   1    0.12    0.05
   2   6   1    0.27    0.04
   2   6   1    0.09    0.04
   2   6   1    0.13    0.05
   2   6   1    0.23    0.03
  -2   6  -1    0.09    0.04
  -2   6  -1    0.16    0.05
  -2   6  -1    0.09    0.04
   3  -6   1    0.49    0.07
  -3   6  -1    0.67    0.08
  -3   6  -1    0.64    0.08
   3   6   1    0.59    0.07
   3   6   1    0.57    0.06
  -3   6  -1    0.60    0.07
   3   6   1    0.66    0.07
  -3   6  -1    0.65    0.08
   3   6   1    0.51    0.08
   3   6   1    0.51    0.08
   3   6   1    0.64    0.08
  -3   6  -1    0.54    0.08
   4  -6   1    5.09    0.41
  -4   6  -1    4.53    0.39
  -4   6  -1    5.76    0.40
   4   6   1    5.66    0.38
   4   6   1    5.29    0.38
  -4   6  -1    5.34    0.37
   4   6   1    4.47    0.40
   4   6   1    4.94    0.39
  -4   6  -1    5.73    0.38
  -4   6  -1    5.79    0.38
   4   6   1    4.83    0.36
   4   6   1    5.08    0.39
   5  -6   1    0.50    0.08
  -5   6  -1    0.60    0.07
  -5   6  -1    0.65    0.09
   5   6   1    0.55    0.08
   5   6   1    0.58    0.07
   5   6   1    0.45    0.08
   5   6   1    0.49    0.07
  -5   6  -1    0.72    0.09
  -5   6  -1    0.70    0.07
   5   6   1    0.67    0.07
   5   6   1    0.52    0.06
   6   6   1    1.59    0.13
   6   6   1    1.37    0.13
  -6   6  -1    1.66    0.14
  -6   6  -1    1.67    0.13
   6   6   1    1.74    0.14
   6   6   1    1.68    0.14
   6   6   1    1.74    0.14
  -6   6  -1    1.67    0.14
   6   6   1    1.21    0.15
  -6   6  -1    1.46    0.13
  -7   6  -1    0.52    0.08
   7   6   1    0.72    0.07
  -7   6  -1    0.63    0.07
   7   6   1    0.69    0.10
   7   6   1    0.86    0.08
  -7   6  -1    0.80    0.10
  -7   6  -1    0.60    0.08
   7   6   1    0.53    0.07
   7   6   1    0.57    0.08
  -7   6  -1    0.63    0.08
   8   6   1    2.70    0.22
  -8   6  -1    2.75    0.22
   8   6   1    2.82    0.22
   8   6   1    3.18    0.23
   8   6   1    3.16    0.23
   8   6   1    3.12    0.22
  -8   6  -1    2.74    0.22
  -8   6  -1    3.19    0.23
  -9   6  -1    0.30    0.05
   9   6   1    0.35    0.06
   9   6   1    0.23    0.04
   9   6   1    0.30    0.08
  -9   6  -1    0.23    0.07
 -10   6  -1    1.24    0.11
  10   6   1    1.41    0.12
 -10   6  -1    1.55    0.12
  -9   7   1    0.07    0.03
  -8   7   1    0.45    0.06
  -8   7   1    0.44    0.05
   8   7  -1    0.49    0.07
   8   7  -1    0.59    0.09
   7   7  -1    0.05    0.05
  -7   7   1    0.03    0.04
   7   7  -1    0.02    0.03
  -7   7   1    0.01    0.03
   7   7  -1    0.10    0.06
  -6   7   1    0.10    0.04
   6   7  -1    0.06    0.03
   6   7  -1    0.10    0.07
   6   7  -1    0.11    0.05
   6   7  -1    0.10    0.03
   6   7  -1    0.08    0.06
  -6   7   1    0.13    0.05
   5   7  -1    0.12    0.04
   5   7  -1    0.13    0.07
  -5   7   1    0.13    0.04
   5   7  -1    0.12    0.04
  -5   7   1    0.13    0.05
  -5   7   1    0.16    0.04
   5   7  -1    0.06    0.03
   4   7  -1    0.22    0.06
   4   7  -1    0.27    0.06
  -4   7   1    0.19    0.05
   4   7  -1    0.21    0.04
  -4   7   1    0.12    0.05
   4   7  -1    0.20    0.05
  -4   7   1    0.20    0.06
  -3   7   1    0.65    0.08
   3   7  -1    0.66    0.08
   3   7  -1    0.61    0.08
   3   7  -1    0.85    0.11
  -3   7   1    0.66    0.07
   3   7  -1    0.74    0.08
  -3   7   1    0.66    0.09
   2   7  -1    1.39    0.12
   2   7  -1    1.78    0.14
   2   7  -1    1.61    0.15
  -2   7   1    1.60    0.14
   2   7  -1    1.59    0.13
  -2   7   1    1.76    0.13
  -2   7   1    1.44    0.13
   1   7  -1    3.20    0.25
   1   7  -1    3.42    0.26
   1   7  -1    3.74    0.25
   1   7  -1    2.92    0.24
  -1   7   1    3.47    0.25
  -1   7   1    3.21    0.26
   0   7   1    0.07    0.05
   0   7   1   -0.04    0.04
   0   7  -1   -0.01    0.04
   0   7   1   -0.01    0.03
   0   7  -1    0.01    0.05
   0   7  -1   -0.03    0.03
   0   7  -1    0.01    0.04
   0   7  -1    0.02    0.03
   1   7   1    2.10    0.17
   1   7   1    2.30    0.16
  -1   7  -1    1.85    0.16
  -1   7  -1    2.12    0.16
   1   7   1    2.11    0.17
  -1   7  -1    1.73    0.17
  -1   7  -1    2.18    0.17
   2   7   1    4.35    0.36
  -2   7  -1    4.78    0.35
  -2   7  -1    4.92    0.37
   2   7   1    4.87    0.35
  -2   7  -1    5.41    0.36
  -2   7  -1    4.95    0.34
  -2   7  -1    4.60    0.37
   2   7   1    5.12    0.36
  -3   7  -1    0.09    0.05
  -3   7  -1    0.10    0.05
   3   7   1    0.08    0.05
   3   7   1    0.11    0.05
   3   7   1    0.04    0.04
  -4   7  -1    3.28    0.24
   4   7   1    2.81    0.25
   4   7   1    3.35    0.24
   4   7   1    3.15    0.25
  -4   7  -1    3.01    0.24
   5   7   1    0.99    0.11
  -5   7  -1    0.88    0.10
   5   7   1    0.74    0.08
  -5   7  -1    0.68    0.08
   6   7   1    0.09    0.05
  -6   7  -1    0.04    0.04
  -6   7  -1    0.04    0.05
   6   7   1    0.05    0.04
   6   7   1    0.11    0.06
   7   7   1    0.05    0.04
   7   7   1   -0.01    0.06
   7   7   1    0.01    0.04
  -7   7  -1   -0.02    0.05
  -7   7  -1    0.02    0.04
  -8   7  -1    0.08    0.04
   8   7   1    0.09    0.05
   8   7   1    0.14    0.04
   8   7   1    0.04    0.04
  -8   7  -1    0.07    0.05
   9   7   1    0.09    0.04
  -9   7  -1    0.04    0.03
   7   8  -1    0.15    0.05
  -7   8   1    0.07    0.03
  -6   8   1    3.91    0.28
   6   8  -1    3.81    0.28
   6   8  -1    3.88    0.27
   5   8  -1   -0.04    0.05
   5   8  -1    0.06    0.06
   5   8  -1    0.05    0.04
  -5   8   1    0.02    0.03
   4   8  -1    1.95    0.16
   4   8  -1    2.06    0.17
  -4   8   1    1.69    0.15
  -3   8   1    0.40    0.05
   3   8  -1    0.41    0.08
  -3   8   1    0.40    0.07
  -3   8   1    0.43    0.05
   3   8  -1    0.39    0.06
   2   8  -1    1.65    0.14
  -2   8   1    1.38    0.12
  -2   8   1    1.12    0.11
   2   8  -1    1.57    0.12
  -2   8   1    1.32    0.13
  -1   8   1    0.06    0.04
  -1   8   1    0.09    0.05
  -1   8   1    0.04    0.04
   1   8  -1   -0.02    0.05
   1   8  -1    0.05    0.06
   0   8   1    1.32    0.12
   0   8   1    1.58    0.12
   0   8  -1    1.36    0.13
   0   8  -1    1.52    0.12
   0   8   1    1.31    0.13
   1   8   1    0.43    0.05
   1   8   1    0.44    0.06
  -1   8  -1    0.27    0.05
   1   8   1    0.30    0.05
  -1   8  -1    0.41    0.06
  -2   8  -1    0.03    0.05
   2   8   1    0.01    0.03
  -2   8  -1    0.06    0.04
   2   8   1    0.03    0.03
   3   8   1    0.11    0.04
  -3   8  -1    0.12    0.04
   3   8   1    0.02    0.03
   4   8   1    0.13    0.04
  -4   8  -1    0.08    0.05
  -4   8  -1    0.04    0.03
   4   8   1    0.11    0.04
  -5   8  -1    0.12    0.05
   5   8   1    0.05    0.05
  -5   8  -1    0.07    0.05
   5   8   1    0.07    0.05
   5   8   1    0.14    0.04
   6   8   1    0.11    0.05
  -6   8  -1    0.09    0.05
   6   8   1    0.10    0.05
   6   8   1    0.17    0.05
  -6   8  -1    0.11    0.03
  -7   8  -1    0.55    0.06
   7   8   1    0.76    0.06
  -3   9   1    0.78    0.07
   3   9  -1    0.80    0.08
  -2   9   1    0.21    0.04
   2   9  -1    0.22    0.04
   1   9  -1    0.60    0.06
  -1   9   1    0.56    0.06
   1   9  -1    0.50    0.06
   0   9   1    0.27    0.04
   0   9  -1    0.31    0.04
   1   9   1    0.41    0.04
   2   9   1    0.64    0.06
  -2   9  -1    0.64    0.06
  -3   9  -1    0.06    0.04
   3   9   1    0.07    0.02
   4   9   1    0.77    0.07
 -14   0   2    0.72    0.08
 -13   0   2    0.96    0.11
  13   0  -2    0.83    0.10
 -12   0   2   14.86    0.98
  12   0  -2   12.16    0.97
 -12   0   2   11.83    0.89
  11   0  -2    0.61    0.09
 -11   0   2    0.46    0.09
 -11   0   2    0.56    0.08
  11   0  -2    0.60    0.08
 -11   0   2    0.53    0.08
 -10   0   2   29.88    2.30
 -10   0   2   31.97    2.14
  10   0  -2   30.08    2.34
 -10   0   2   34.36    2.35
  -9   0   2    0.22    0.05
  -9   0   2    0.12    0.05
   9   0  -2    0.20    0.05
  -9   0   2    0.24    0.06
   9   0  -2    0.20    0.05
  -8   0   2   37.47    2.84
   8   0  -2   40.58    2.83
  -8   0   2   38.57    2.78
   8   0  -2   34.56    2.68
  -8   0   2   40.42    2.58
   7   0  -2    0.41    0.05
  -7   0   2    0.38    0.04
   7   0  -2    0.45    0.06
  -7   0   2    0.47    0.06
  -7   0   2    0.39    0.06
  -6   0   2  117.26    8.86
   6   0  -2  132.38    9.15
  -6   0   2  115.34    9.18
  -6   0   2  135.66    8.97
  -6   0   2  120.77    8.35
   5   0  -2   52.95    3.92
  -5   0   2   51.62    3.58
  -5   0   2   50.82    3.80
  -5   0   2   57.59    3.85
   4   0  -2    0.59    0.05
  -4   0   2    0.60    0.06
  -3   0   2  195.44   13.60
   3   0  -2  181.78   13.87
  -2   0   2  173.52   12.18
   2   0  -2  164.22   12.43
   1   0   2   14.69    1.12
   2   0   2  370.28   27.24
   3   0   2  336.66   25.01
  -3   0  -2  343.04   24.51
   4   0   2   39.08    2.72
  -4   0  -2   38.76    2.67
  -4   0  -2   32.94    2.48
   5   0   2    0.67    0.07
  -5   0  -2    0.70    0.06
  -5   0  -2    0.66    0.07
  -6   0  -2   66.72    4.58
   6   0   2   58.80    5.04
   6   0   2   75.54    5.02
  -6   0  -2   71.71    4.93
  -7   0  -2   46.52    3.82
   7   0   2   57.64    3.82
   7   0   2   48.96    3.61
  -7   0  -2   57.23    3.74
   7   0   2   48.61    3.82
  -7   0  -2   51.26    3.48
  -8   0  -2    9.06    0.76
  -8   0  -2   10.99    0.70
   8   0   2   10.78    0.77
  -8   0  -2   10.00    0.75
   8   0   2    9.86    0.76
   8   0   2   10.47    0.73
   9   0   2   27.33    2.08
   9   0   2   28.03    2.08
  -9   0  -2   28.92    1.89
  -9   0  -2   26.94    2.08
   9   0   2   29.23    1.97
  -9   0  -2   27.43    2.04
  10   0   2   12.57    0.94
 -10   0  -2   11.23    0.92
 -10   0  -2   11.95    0.94
  10   0   2   12.98    0.89
  10   0   2   11.98    0.94
 -10   0  -2   13.93    0.86
 -11   0  -2    3.41    0.31
  11   0   2    4.44    0.32
 -11   0  -2    4.28    0.32
 -11   0  -2    3.65    0.28
  11   0   2    3.96    0.29
  11   0   2    3.44    0.31
  12   0   2    0.99    0.12
 -12   0  -2    0.88    0.12
 -12   0  -2    0.83    0.09
  12   0   2    0.88    0.11
 -13   0  -2    0.11    0.06
  13   0   2    0.04    0.06
 -13   0  -2    0.01    0.04
 -13   0  -2    0.03    0.04
  14   0   2    0.19    0.05
 -13  -1   2    1.04    0.12
  13   1  -2    0.80    0.09
  13   1  -2    1.03    0.12
 -13   1   2    1.01    0.11
 -13   1   2    0.83    0.10
 -13   1   2    0.83    0.10
 -12  -1   2    1.07    0.14
 -12   1   2    1.28    0.11
  12   1  -2    1.06    0.10
  12   1  -2    0.97    0.12
 -11  -1   2    2.12    0.22
 -11  -1   2    2.72    0.22
  11  -1  -2    2.33    0.21
  11   1  -2    2.43    0.20
 -11   1   2    2.84    0.20
  11   1  -2    2.21    0.21
 -11   1   2    2.20    0.21
 -11   1   2    2.78    0.20
  11   1  -2    2.34    0.22
 -10  -1   2    0.58    0.08
 -10  -1   2    0.60    0.09
 -10  -1   2    0.51    0.07
  10  -1  -2    0.49    0.07
  10   1  -2    0.57    0.08
 -10   1   2    0.49    0.09
 -10   1   2    0.49    0.07
  10   1  -2    0.48    0.07
 -10   1   2    0.48    0.08
  10   1  -2    0.52    0.07
  -9  -1   2   12.62    0.96
  -9  -1   2   12.03    0.94
  -9  -1   2   13.70    0.88
   9  -1  -2   13.01    0.96
   9   1  -2   12.84    0.96
   9   1  -2   12.62    0.91
  -9   1   2   13.31    0.87
  -9   1   2   12.68    0.94
   9   1  -2   11.14    0.96
  -9   1   2   13.83    0.96
   8  -1  -2    0.51    0.07
  -8  -1   2    0.55    0.08
  -8  -1   2    0.47    0.06
  -8  -1   2    0.55    0.07
  -8   1   2    0.59    0.07
  -8   1   2    0.48    0.06
   8   1  -2    0.47    0.07
   8   1  -2    0.53    0.08
   8   1  -2    0.56    0.08
  -8   1   2    0.53    0.07
  -7  -1   2    8.02    0.57
  -7  -1   2    7.22    0.58
   7  -1  -2    8.77    0.58
  -7  -1   2    8.15    0.53
   7   1  -2    8.49    0.59
  -7   1   2    7.41    0.58
   7   1  -2    6.72    0.58
  -7   1   2    7.45    0.56
  -7   1   2    8.27    0.57
  -7   1   2    8.10    0.53
   7   1  -2    7.43    0.55
  -7   1   2    6.84    0.54
  -6  -1   2    7.16    0.50
  -6  -1   2    6.25    0.55
   6  -1  -2    7.92    0.55
  -6  -1   2    7.50    0.54
  -6   1   2    6.91    0.50
  -6   1   2    7.24    0.53
  -6   1   2    8.26    0.54
   6   1  -2    7.64    0.55
  -6   1   2    6.98    0.55
   5  -1  -2  137.40    9.70
  -5  -1   2  142.58    9.51
  -5  -1   2  126.24    8.85
  -5   1   2  115.46    8.85
   5   1  -2  137.78    9.70
  -5   1   2  128.60    9.40
  -5   1   2  134.73    9.51
   4  -1  -2    2.17    0.15
  -4  -1   2    1.70    0.14
  -4  -1   2    1.71    0.15
  -4   1   2    2.06    0.15
   4   1  -2    1.81    0.15
  -4   1   2    2.23    0.15
  -3  -1   2   15.71    1.09
   3  -1  -2   14.99    1.11
  -3   1   2   14.48    1.09
   3   1  -2   15.00    1.11
   2  -1  -2  277.76   20.86
  -2  -1   2  295.60   20.45
   2   1  -2  277.78   20.86
  -1  -1   2   46.85    3.37
  -1  -1   2   44.43    3.30
   0  -1   2  101.41    7.46
   1  -1   2   22.64    1.63
   1   1   2   21.63    1.63
   2  -1   2  123.20    8.92
  -2  -1  -2  121.98    8.74
   2   1   2  118.65    8.92
   3  -1   2   39.68    3.15
  -3  -1  -2   45.58    3.09
   3   1   2   43.02    3.15
   4  -1   2   80.21    5.88
  -4  -1  -2   77.09    5.37
  -4  -1  -2   88.56    5.77
   4   1   2   82.60    5.88
   4   1   2   79.55    5.70
  -4   1  -2   71.29    5.36
  -5  -1  -2   21.69    1.54
   5  -1   2   22.77    1.57
  -5  -1  -2   19.17    1.43
  -5   1  -2   20.33    1.43
   5   1   2   22.68    1.57
  -5   1  -2   21.72    1.54
   5   1   2   20.50    1.52
   6  -1   2  107.07    6.87
   6  -1   2   80.96    6.89
  -6  -1  -2   95.78    6.27
  -6   1  -2  102.71    6.74
   6   1   2   85.50    6.10
   6   1   2   91.06    6.50
  -6   1  -2   87.72    6.89
   6   1   2  106.23    6.88
   6   1   2   89.66    6.89
   6   1   2   84.56    6.66
  -6   1  -2   95.56    6.27
  -7  -1  -2    2.14    0.16
   7  -1   2    1.85    0.15
  -7  -1  -2    1.81    0.15
   7  -1   2    1.82    0.16
   7  -1   2    2.21    0.16
   7   1   2    2.22    0.16
   7   1   2    1.81    0.15
  -7   1  -2    1.95    0.16
  -7   1  -2    2.08    0.16
   7   1   2    1.86    0.16
  -7   1  -2    1.89    0.14
   7   1   2    1.80    0.14
   8  -1   2   10.94    0.91
   8  -1   2   12.34    0.91
  -8  -1  -2   10.25    0.91
  -8  -1  -2   12.95    0.83
  -8  -1  -2   12.85    0.90
   8  -1   2   12.54    0.86
  -8   1  -2   11.97    0.91
   8   1   2   12.14    0.91
  -8   1  -2   12.83    0.83
  -8   1  -2   11.90    0.89
   8   1   2   12.40    0.86
   8   1   2   12.26    0.91
   9  -1   2    1.02    0.12
  -9  -1  -2    1.04    0.12
   9  -1   2    1.16    0.12
  -9  -1  -2    1.43    0.11
   9  -1   2    1.28    0.11
  -9  -1  -2    1.23    0.12
  -9   1  -2    1.32    0.11
  -9   1  -2    1.02    0.12
   9   1   2    1.33    0.12
  -9   1  -2    1.09    0.11
   9   1   2    1.13    0.13
   9   1   2    1.11    0.11
  10  -1   2   11.79    0.91
 -10  -1  -2   12.65    0.83
  10  -1   2   11.31    0.91
 -10  -1  -2   10.93    0.89
  10  -1   2   12.80    0.86
 -10  -1  -2   10.93    0.91
 -10   1  -2   11.08    0.90
  10   1   2   11.17    0.91
 -10   1  -2   12.61    0.91
  10   1   2   13.45    0.91
  10   1   2   12.46    0.86
 -10   1  -2   13.36    0.83
  11  -1   2    0.00    0.06
 -11  -1  -2    0.08    0.05
  11  -1   2    0.01    0.06
 -11  -1  -2   -0.01    0.04
 -11  -1  -2   -0.04    0.06
  11   1   2   -0.04    0.04
 -11   1  -2    0.00    0.04
  11   1   2    0.08    0.06
 -11   1  -2    0.05    0.05
 -11   1  -2   -0.06    0.04
  11   1   2    0.00    0.06
  12  -1   2    0.08    0.06
 -12  -1  -2    0.03    0.04
 -12  -1  -2    0.05    0.07
 -12   1  -2   -0.03    0.07
  12   1   2   -0.08    0.06
 -12   1  -2    0.00    0.04
 -12   1  -2    0.04    0.05
  12   1   2    0.06    0.07
 -13  -1  -2    0.15    0.05
  13  -1   2    0.20    0.07
  13   1   2    0.21    0.04
 -13   1  -2    0.17    0.07
 -13   1  -2    0.14    0.04
  13   1   2    0.18    0.05
  13   1   2    0.26    0.07
 -13   1  -2    0.14    0.04
 -13  -2   2    0.23    0.07
  13   2  -2    0.20    0.07
 -13   2   2    0.14    0.06
  13   2  -2    0.05    0.06
  13   2  -2    0.11    0.05
 -13   2   2    0.12    0.03
 -12  -2   2    0.49    0.09
  12   2  -2    0.64    0.09
  12   2  -2    0.64    0.08
 -12   2   2    0.60    0.08
  12   2  -2    0.55    0.08
 -12   2   2    0.53    0.08
 -12   2   2    0.67    0.08
  11  -2  -2   -0.01    0.06
 -11  -2   2   -0.05    0.07
 -11  -2   2   -0.05    0.05
  11   2  -2   -0.04    0.05
  11   2  -2   -0.02    0.05
 -11   2   2    0.02    0.06
  11   2  -2   -0.05    0.04
 -11   2   2    0.04    0.05
  11   2  -2    0.05    0.07
 -11   2   2   -0.02    0.04
 -10  -2   2    0.73    0.11
  10  -2  -2    0.88    0.10
 -10  -2   2    0.83    0.11
  10   2  -2    0.82    0.11
  10   2  -2    0.80    0.09
 -10   2   2    0.92    0.10
  10   2  -2    0.84    0.10
 -10   2   2    0.92    0.09
  10   2  -2    0.90    0.11
 -10   2   2    1.04    0.11
  -9  -2   2    1.55    0.16
  -9  -2   2    1.67    0.16
   9  -2  -2    1.80    0.16
   9   2  -2    1.79    0.16
  -9   2   2    1.79    0.15
  -9   2   2    1.42    0.13
   9   2  -2    1.53    0.15
   9   2  -2    1.70    0.15
  -9   2   2    1.81    0.16
  -9   2   2    1.94    0.14
  -8  -2   2   12.94    0.97
   8  -2  -2   14.48    0.98
  -8  -2   2   11.82    0.98
  -8   2   2   12.51    0.95
   8   2  -2   12.80    0.93
  -8   2   2   14.16    0.98
  -8   2   2   12.26    0.92
  -8   2   2   14.06    0.90
  -8   2   2   14.55    0.97
   8   2  -2   11.37    0.98
   8   2  -2   13.50    0.98
   7  -2  -2    0.31    0.05
  -7  -2   2    0.35    0.05
  -7  -2   2    0.30    0.06
  -7  -2   2    0.36    0.05
  -7   2   2    0.40    0.05
  -7   2   2    0.30    0.04
   7   2  -2    0.30    0.05
  -7   2   2    0.37    0.04
  -7   2   2    0.38    0.05
   7   2  -2    0.27    0.05
  -7   2   2    0.39    0.06
   7   2  -2    0.38    0.06
   6  -2  -2    5.45    0.38
  -6  -2   2    5.15    0.38
  -6  -2   2    4.36    0.37
  -6  -2   2    5.02    0.34
  -6   2   2    5.10    0.36
  -6   2   2    5.49    0.37
  -6   2   2    4.38    0.35
  -6   2   2    4.91    0.34
   6   2  -2    4.40    0.37
   6   2  -2    5.08    0.38
  -6   2   2    4.94    0.37
   6   2  -2    4.86    0.36
   5  -2  -2    0.40    0.05
  -5  -2   2    0.52    0.07
  -5   2   2    0.42    0.05
  -5   2   2    0.49    0.05
  -5   2   2    0.41    0.05
  -5   2   2    0.35    0.05
  -4  -2   2    5.14    0.35
   4  -2  -2    4.84    0.36
   4   2  -2    4.05    0.32
  -4   2   2    5.20    0.34
   4   2  -2    5.09    0.36
  -4   2   2    4.04    0.32
   3  -2  -2   15.11    1.13
  -3  -2   2   16.32    1.12
   3   2  -2   15.44    1.14
  -3   2   2   15.85    1.10
   3   2  -2   13.98    1.03
   2  -2  -2    0.16    0.03
  -2  -2   2    0.20    0.03
  -2   2   2    0.19    0.02
   2   2  -2    0.27    0.03
  -1  -2   2   23.53    1.74
   1  -2  -2   23.59    1.74
   0  -2  -2   24.09    1.83
   0  -2   2   25.56    1.84
  -1  -2  -2    9.96    0.76
   1  -2   2   11.16    0.77
   1   2   2   10.17    0.77
   2  -2   2    1.82    0.16
  -2  -2  -2    2.08    0.16
   2   2   2    2.11    0.16
   2   2   2    2.41    0.16
   3  -2   2   39.99    2.89
  -3  -2  -2   40.22    2.84
   3   2   2   40.98    2.89
   3   2   2   39.87    2.80
  -3   2  -2   35.03    2.64
   4  -2   2   29.46    2.05
  -4  -2  -2   28.37    2.01
  -4  -2  -2   26.25    1.86
  -4   2  -2   27.74    1.86
   4   2   2   27.70    2.04
   4   2   2   26.66    1.98
  -5  -2  -2    0.32    0.04
   5  -2   2    0.21    0.04
  -5  -2  -2    0.26    0.04
   5   2   2    0.24    0.04
   5   2   2    0.26    0.03
  -5   2  -2    0.19    0.04
   5   2   2    0.35    0.05
  -5   2  -2    0.21    0.04
   5   2   2    0.39    0.05
  -5   2  -2    0.28    0.03
  -6  -2  -2    3.52    0.24
   6  -2   2    3.33    0.25
  -6  -2  -2    3.09    0.22
   6  -2   2    2.76    0.24
   6   2   2    3.02    0.24
  -6   2  -2    3.07    0.24
   6   2   2    2.85    0.22
   6   2   2    3.35    0.25
  -6   2  -2    3.50    0.24
   6   2   2    2.84    0.23
   6   2   2    3.13    0.24
  -6   2  -2    3.06    0.22
   6   2   2    2.88    0.21
  -7  -2  -2   13.17    0.87
  -7  -2  -2   12.81    0.94
   7  -2   2   12.91    0.95
   7   2   2   12.83    0.95
   7   2   2   11.83    0.90
   7   2   2   12.36    0.84
  -7   2  -2   12.92    0.93
  -7   2  -2   13.44    0.87
  -7   2  -2   12.05    0.95
   7   2   2   12.99    0.95
  -8  -2  -2    3.75    0.30
  -8  -2  -2    4.11    0.28
   8  -2   2    4.08    0.31
   8  -2   2    3.41    0.30
   8   2   2    3.60    0.30
   8   2   2    3.62    0.27
  -8   2  -2    4.07    0.30
  -8   2  -2    4.07    0.31
   8   2   2    3.64    0.29
   8   2   2    3.87    0.30
  -8   2  -2    4.26    0.28
  -9  -2  -2   11.29    0.94
  -9  -2  -2   12.74    0.87
   9  -2   2   12.22    0.96
   9  -2   2   12.51    0.96
   9   2   2   12.19    0.96
  -9   2  -2   13.97    0.87
  -9   2  -2   14.14    0.96
   9   2   2   12.93    0.95
   9   2   2   12.79    0.91
  -9   2  -2   12.27    0.94
  10  -2   2    3.15    0.27
 -10  -2  -2    2.96    0.28
  10  -2   2    3.28    0.28
 -10  -2  -2    3.44    0.25
 -10   2  -2    3.40    0.26
 -10   2  -2    3.75    0.25
  10   2   2    3.64    0.27
  10   2   2    3.61    0.27
 -10   2  -2    3.17    0.28
 -10   2  -2    3.91    0.28
  10   2   2    2.96    0.28
  11  -2   2   -0.01    0.06
 -11  -2  -2    0.02    0.07
 -11  -2  -2   -0.05    0.07
  11  -2   2    0.04    0.04
  11   2   2    0.02    0.04
 -11   2  -2    0.00    0.06
 -11   2  -2    0.06    0.04
 -11   2  -2   -0.01    0.04
  11   2   2    0.06    0.06
 -11   2  -2   -0.03    0.06
  11   2   2    0.04    0.05
  12  -2   2    0.07    0.07
 -12  -2  -2    0.05    0.05
  12   2   2    0.06    0.04
 -12   2  -2    0.09    0.04
 -12   2  -2    0.17    0.07
 -12   2  -2    0.09    0.04
  12   2   2    0.11    0.05
  12   2   2    0.10    0.05
  13  -2   2    0.06    0.06
 -13  -2  -2    0.16    0.06
  13   2   2    0.03    0.04
 -13   2  -2    0.01    0.04
 -13   2  -2    0.17    0.04
  13   2   2    0.06    0.04
 -13  -3   2    0.56    0.08
  13   3  -2    0.70    0.09
 -13   3   2    0.38    0.06
 -12  -3   2   -0.02    0.05
  12   3  -2   -0.02    0.05
 -12   3   2    0.01    0.03
  12   3  -2   -0.07    0.06
  12   3  -2   -0.12    0.06
 -12   3   2   -0.02    0.04
 -11  -3   2   -0.01    0.07
 -11   3   2   -0.03    0.05
  11   3  -2    0.08    0.08
 -11   3   2   -0.01    0.04
 -11   3   2    0.04    0.04
  11   3  -2    0.01    0.05
 -11   3   2    0.11    0.06
  11   3  -2    0.07    0.06
 -10  -3   2    0.35    0.09
 -10  -3   2    0.66    0.08
  10  -3  -2    0.42    0.08
  10   3  -2    0.45    0.09
 -10   3   2    0.39    0.07
  10   3  -2    0.63    0.09
  10   3  -2    0.46    0.08
 -10   3   2    0.59    0.08
 -10   3   2    0.55    0.07
 -10   3   2    0.46    0.07
  10   3  -2    0.59    0.08
 -10   3   2    0.68    0.08
  -9  -3   2    0.07    0.06
  -9  -3   2    0.01    0.05
   9  -3  -2   -0.04    0.05
  -9   3   2    0.05    0.04
  -9   3   2    0.04    0.04
  -9   3   2    0.08    0.05
   9   3  -2    0.03    0.05
  -9   3   2    0.08    0.05
   9   3  -2    0.09    0.05
   9   3  -2    0.04    0.06
   9   3  -2    0.03    0.05
  -9   3   2    0.04    0.05
   8  -3  -2    7.01    0.54
  -8  -3   2    7.20    0.54
  -8  -3   2    6.27    0.54
   8   3  -2    7.14    0.54
  -8   3   2    7.63    0.50
  -8   3   2    6.89    0.53
   8   3  -2    6.94    0.51
   8   3  -2    6.78    0.54
   8   3  -2    7.30    0.49
  -8   3   2    6.62    0.50
  -8   3   2    6.97    0.49
  -8   3   2    7.60    0.53
  -8   3   2    6.64    0.52
  -7  -3   2   11.14    0.80
  -7  -3   2    9.68    0.81
   7  -3  -2   11.60    0.81
  -7   3   2   11.79    0.81
   7   3  -2   10.72    0.74
  -7   3   2   10.86    0.76
   7   3  -2    9.91    0.81
   7   3  -2   10.61    0.81
  -7   3   2   11.16    0.80
  -7   3   2   11.25    0.79
   7   3  -2    9.94    0.77
  -7   3   2   10.75    0.74
  -7   3   2   10.95    0.76
  -6  -3   2    7.88    0.70
   6  -3  -2    9.47    0.70
  -6  -3   2    9.83    0.69
  -6   3   2    9.11    0.66
   6   3  -2    8.75    0.66
  -6   3   2    9.36    0.67
   6   3  -2    9.11    0.70
   6   3  -2    8.49    0.62
   6   3  -2    9.97    0.64
  -6   3   2    9.12    0.65
  -6   3   2    8.98    0.63
  -6   3   2    9.47    0.69
  -6   3   2   10.16    0.69
   6   3  -2   10.30    0.70
  -5  -3   2    0.29    0.05
  -5  -3   2    0.21    0.04
   5  -3  -2    0.28    0.04
   5   3  -2    0.26    0.04
   5   3  -2    0.21    0.04
  -5   3   2    0.29    0.04
  -5   3   2    0.28    0.03
   5   3  -2    0.27    0.05
  -5   3   2    0.32    0.04
   5   3  -2    0.22    0.05
  -5   3   2    0.30    0.04
  -5   3   2    0.31    0.04
   4  -3  -2   47.58    3.35
  -4  -3   2   47.68    3.29
  -4   3   2   45.83    3.36
   4   3  -2   41.64    3.36
  -4   3   2   42.00    3.05
   4   3  -2   51.52    3.35
   4   3  -2   44.25    3.06
   4   3  -2   39.30    3.24
  -4   3   2   47.28    3.24
  -4   3   2   47.22    3.16
  -3  -3   2   14.04    1.05
   3  -3  -2   15.30    1.07
  -3   3   2   14.02    0.97
  -3   3   2   15.25    1.03
   3   3  -2   13.54    0.97
   3   3  -2   12.91    1.03
   3   3  -2   15.85    1.07
   2  -3  -2   26.21    1.86
   2   3  -2   22.82    1.80
   2   3  -2   27.18    1.86
   2   3  -2   22.54    1.69
  -2   3   2   27.11    1.80
   1  -3  -2    8.33    0.64
  -1  -3   2   10.03    0.65
  -1   3   2    7.92    0.62
   1   3  -2    8.67    0.59
   1   3  -2    8.36    0.62
   0  -3  -2  109.14    7.63
   0  -3   2  105.77    7.63
   0   3  -2   96.13    7.39
   0   3  -2  101.12    6.96
   0   3   2  106.28    7.39
   1  -3   2    6.21    0.44
  -1   3  -2    6.26    0.43
  -1   3  -2    5.19    0.40
   1   3   2    5.77    0.44
   2  -3   2   96.85    6.78
  -2  -3  -2   87.64    6.65
  -2   3  -2   91.05    6.57
  -2   3  -2   85.70    6.19
   2   3   2   95.34    6.78
   2   3   2   96.37    6.57
   3  -3   2   38.01    2.70
  -3  -3  -2   39.05    2.65
   3   3   2   39.76    2.61
   3   3   2   38.35    2.70
  -3   3  -2   34.90    2.71
   3   3   2   33.16    2.70
  -3   3  -2   33.66    2.46
   3   3   2   35.57    2.46
  -3   3  -2   36.92    2.62
   4  -3   2   16.42    1.11
  -4  -3  -2   15.57    1.09
  -4   3  -2   15.09    1.08
   4   3   2   16.22    1.08
   4   3   2   13.66    1.05
   4   3   2   16.17    1.11
  -4   3  -2   14.49    1.05
  -4   3  -2   14.75    1.11
   4   3   2   14.66    1.01
   4   3   2   13.24    1.05
   4   3   2   14.01    1.11
  -4   3  -2   15.67    1.01
   5  -3   2    9.22    0.68
  -5  -3  -2    9.48    0.67
   5   3   2    9.08    0.60
   5   3   2    9.62    0.65
  -5   3  -2    8.86    0.66
   5   3   2    8.64    0.63
   5   3   2    9.00    0.64
  -5   3  -2    8.66    0.61
   5   3   2    9.93    0.68
   5   3   2    8.90    0.67
   5   3   2    9.04    0.61
  -5   3  -2    8.60    0.68
  -5   3  -2    8.21    0.64
   6  -3   2    0.35    0.05
  -6  -3  -2    0.45    0.06
   6   3   2    0.34    0.05
   6   3   2    0.25    0.04
   6   3   2    0.42    0.05
   6   3   2    0.43    0.05
   6   3   2    0.34    0.04
   6   3   2    0.25    0.05
  -6   3  -2    0.30    0.05
  -6   3  -2    0.40    0.05
   6   3   2    0.33    0.05
  -6   3  -2    0.42    0.05
  -7  -3  -2    4.18    0.32
   7  -3   2    4.05    0.33
   7   3   2    3.92    0.29
   7   3   2    4.30    0.32
  -7   3  -2    3.88    0.30
   7   3   2    4.30    0.29
  -7   3  -2    4.06    0.32
   7   3   2    4.35    0.31
   7   3   2    4.40    0.33
  -7   3  -2    4.23    0.32
  -7   3  -2    4.34    0.29
   7   3   2    3.82    0.30
   8  -3   2    3.59    0.29
  -8  -3  -2    3.31    0.29
  -8   3  -2    3.70    0.28
   8   3   2    3.46    0.25
   8   3   2    3.34    0.25
  -8   3  -2    3.97    0.29
   8   3   2    3.84    0.28
   8   3   2    3.35    0.28
  -8   3  -2    3.62    0.26
  -8   3  -2    3.38    0.27
   8   3   2    3.47    0.27
   9  -3   2    0.05    0.04
  -9  -3  -2    0.01    0.05
  -9   3  -2    0.02    0.06
   9   3   2    0.09    0.05
  -9   3  -2    0.04    0.06
  -9   3  -2    0.02    0.04
   9   3   2    0.06    0.04
   9   3   2    0.13    0.06
   9   3   2    0.05    0.04
  -9   3  -2    0.09    0.04
   9   3   2    0.10    0.06
 -10  -3  -2    2.07    0.22
  10  -3   2    2.33    0.22
 -10   3  -2    2.81    0.21
  10   3   2    2.66    0.20
  10   3   2    2.67    0.22
  10   3   2    2.14    0.23
  10   3   2    2.96    0.23
 -10   3  -2    3.17    0.23
 -10   3  -2    2.82    0.20
 -10   3  -2    2.62    0.23
  11   3   2    0.01    0.07
  11   3   2   -0.03    0.04
 -11   3  -2    0.05    0.04
  11   3   2   -0.04    0.05
 -11   3  -2    0.07    0.06
 -11   3  -2    0.10    0.06
 -12  -3  -2    1.83    0.18
  12  -3   2    2.06    0.20
 -12   3  -2    2.04    0.17
  12   3   2    2.06    0.19
 -12   3  -2    2.42    0.19
  12   3   2    2.24    0.17
 -12   3  -2    2.10    0.17
  12   3   2    2.35    0.18
  13   3   2    0.20    0.04
 -13   3  -2    0.23    0.04
 -12  -4   2    0.21    0.05
 -12   4   2    0.21    0.04
  12   4  -2    0.20    0.07
  12   4  -2    0.19    0.06
 -12   4   2    0.20    0.05
 -11  -4   2    0.11    0.05
 -11   4   2    0.08    0.05
  11   4  -2    0.02    0.04
  11   4  -2    0.09    0.07
  11   4  -2    0.05    0.05
 -11   4   2    0.09    0.04
 -10  -4   2    0.28    0.08
 -10   4   2    0.27    0.06
  10   4  -2    0.29    0.05
  10   4  -2    0.29    0.08
 -10   4   2    0.39    0.06
  10   4  -2    0.37    0.08
 -10   4   2    0.23    0.05
  -9  -4   2    5.79    0.51
  -9  -4   2    6.17    0.51
   9   4  -2    7.11    0.47
  -9   4   2    5.82    0.50
   9   4  -2    6.24    0.51
  -9   4   2    6.12    0.46
  -9   4   2    6.73    0.50
   9   4  -2    6.69    0.48
   9   4  -2    7.75    0.51
  -9   4   2    6.85    0.48
  -9   4   2    7.05    0.48
  -8  -4   2    1.02    0.12
   8  -4  -2    0.82    0.11
  -8  -4   2    0.76    0.11
   8   4  -2    1.22    0.13
  -8   4   2    0.88    0.12
  -8   4   2    0.95    0.10
  -8   4   2    1.18    0.09
   8   4  -2    1.16    0.13
  -8   4   2    1.06    0.10
  -8   4   2    0.77    0.11
   8   4  -2    1.25    0.12
  -8   4   2    0.75    0.09
  -7  -4   2    0.09    0.05
   7  -4  -2    0.01    0.04
  -7   4   2    0.01    0.04
   7   4  -2    0.06    0.04
  -7   4   2    0.05    0.04
   7   4  -2    0.06    0.04
   7   4  -2    0.09    0.05
  -7   4   2    0.01    0.03
  -7   4   2    0.10    0.04
  -7   4   2    0.06    0.04
  -7   4   2    0.05    0.04
   7   4  -2    0.07    0.04
  -6  -4   2    2.67    0.23
   6  -4  -2    2.52    0.22
  -6   4   2    2.66    0.20
   6   4  -2    2.98    0.20
  -6   4   2    2.58    0.21
  -6   4   2    2.42    0.20
   6   4  -2    2.84    0.20
   6   4  -2    2.85    0.23
  -6   4   2    2.61    0.19
   6   4  -2    2.89    0.22
  -6   4   2    2.65    0.21
   6   4  -2    3.05    0.22
   5  -4  -2    3.95    0.32
  -5  -4   2    4.21    0.32
   5   4  -2    4.09    0.31
   5   4  -2    4.58    0.33
  -5   4   2    4.22    0.32
  -5   4   2    4.33    0.30
   5   4  -2    4.19    0.29
  -5   4   2    3.91    0.30
  -5   4   2    4.28    0.31
  -5   4   2    3.78    0.29
   5   4  -2    4.38    0.32
   4  -4  -2    1.00    0.09
   4   4  -2    0.96    0.08
   4   4  -2    1.07    0.09
  -4   4   2    0.98    0.09
   4   4  -2    1.17    0.10
  -4   4   2    0.81    0.08
  -4   4   2    0.81    0.08
   4   4  -2    0.91    0.09
  -4   4   2    1.02    0.08
   3  -4  -2    3.07    0.22
   3   4  -2    2.69    0.20
  -3   4   2    2.78    0.21
  -3   4   2    2.55    0.20
  -3   4   2    2.89    0.21
  -3   4   2    3.16    0.20
   3   4  -2    2.99    0.22
   3   4  -2    2.43    0.21
   3   4  -2    2.76    0.22
  -3   4   2    2.74    0.19
   3   4  -2    2.37    0.21
  -2   4   2  130.01   10.81
   2   4  -2  149.67   10.21
   2   4  -2  150.16    9.84
   2   4  -2  141.37   10.45
  -2   4   2  126.00    9.84
  -2   4   2  164.37   10.45
   2   4  -2  141.75   10.82
  -2   4   2  156.28   10.19
   2   4  -2  159.20   10.78
   1  -4  -2    2.70    0.21
  -1   4   2    2.37    0.21
   1   4  -2    3.06    0.21
  -1   4   2    2.53    0.20
  -1   4   2    2.64    0.19
   1   4  -2    2.67    0.21
   1   4  -2    3.19    0.20
  -1   4   2    2.74    0.20
   1   4  -2    2.90    0.22
   0  -4   2   30.57    2.08
   0   4   2   25.41    2.08
   0   4   2   25.51    1.89
   0   4  -2   27.16    2.01
   0   4  -2   28.54    1.89
   0   4  -2   26.80    2.08
   0   4   2   30.00    1.96
   0   4  -2   28.45    1.97
   0   4   2   30.54    2.01
   1  -4   2   53.32    3.44
  -1   4  -2   47.42    3.25
   1   4   2   44.60    3.44
  -1   4  -2   46.49    3.14
   1   4   2   41.10    3.44
   1   4   2   49.79    3.33
   1   4   2   42.91    3.14
  -1   4  -2   47.07    3.45
  -1   4  -2   47.17    3.33
   2  -4   2    0.05    0.03
  -2   4  -2    0.06    0.02
  -2   4  -2    0.11    0.03
   2   4   2    0.17    0.03
   2   4   2    0.17    0.03
  -2   4  -2    0.10    0.03
   2   4   2    0.12    0.03
   2   4   2    0.09    0.03
   2   4   2    0.09    0.03
   2   4   2    0.10    0.02
  -2   4  -2    0.10    0.03
   3  -4   2   80.21    5.39
   3   4   2   73.34    5.09
  -3   4  -2   68.22    5.09
  -3   4  -2   73.95    5.10
   3   4   2   75.61    5.38
  -3   4  -2   75.93    5.40
  -3   4  -2   74.75    4.91
   3   4   2   68.37    5.10
   3   4   2   74.03    5.22
   3   4   2   71.03    4.91
  -3   4  -2   71.90    5.22
   3   4   2   69.97    5.40
   4  -4   2    6.54    0.45
  -4  -4  -2    5.54    0.44
  -4   4  -2    5.38    0.42
   4   4   2    6.38    0.43
   4   4   2    5.74    0.42
   4   4   2    5.43    0.41
   4   4   2    5.99    0.45
  -4   4  -2    6.30    0.45
  -4   4  -2    6.15    0.42
  -4   4  -2    6.39    0.44
  -4   4  -2    5.71    0.41
   4   4   2    5.97    0.45
   4   4   2    5.53    0.42
   5  -4   2    2.25    0.18
  -5  -4  -2    1.79    0.18
   5   4   2    2.44    0.17
   5   4   2    2.02    0.17
  -5   4  -2    2.14    0.16
  -5   4  -2    2.04    0.17
  -5   4  -2    2.07    0.17
   5   4   2    2.20    0.15
   5   4   2    1.99    0.15
  -5   4  -2    2.07    0.15
   5   4   2    2.20    0.17
   5   4   2    2.11    0.17
  -5   4  -2    1.75    0.16
   6  -4   2    2.40    0.19
  -6  -4  -2    2.14    0.20
   6   4   2    2.29    0.17
   6   4   2    2.35    0.18
   6   4   2    2.38    0.19
   6   4   2    2.32    0.20
   6   4   2    2.49    0.18
  -6   4  -2    2.19    0.17
  -6   4  -2    2.48    0.19
   6   4   2    2.40    0.19
   6   4   2    2.39    0.17
  -6   4  -2    2.06    0.18
  -7  -4  -2    2.76    0.26
   7  -4   2    3.03    0.26
  -7   4  -2    3.45    0.25
   7   4   2    3.12    0.23
  -7   4  -2    3.20    0.26
   7   4   2    2.94    0.26
  -7   4  -2    3.51    0.24
   7   4   2    3.28    0.25
   7   4   2    3.42    0.25
   7   4   2    3.36    0.23
   7   4   2    3.09    0.24
   8  -4   2    5.21    0.44
   8   4   2    6.18    0.42
  -8   4  -2    5.47    0.44
   8   4   2    5.16    0.38
   8   4   2    5.20    0.41
  -8   4  -2    5.91    0.44
   8   4   2    6.22    0.43
  -8   4  -2    5.88    0.40
   8   4   2    5.07    0.44
   8   4   2    5.74    0.39
  -8   4  -2    5.80    0.41
   9  -4   2   -0.02    0.06
   9   4   2    0.06    0.05
   9   4   2    0.08    0.06
  -9   4  -2   -0.02    0.04
  -9   4  -2   -0.01    0.04
  -9   4  -2    0.00    0.04
  -9   4  -2    0.06    0.04
   9   4   2    0.04    0.04
   9   4   2    0.01    0.05
   9   4   2    0.00    0.04
 -10   4  -2    0.17    0.06
 -10   4  -2    0.17    0.06
  10   4   2    0.25    0.08
  10   4   2    0.24    0.06
 -10   4  -2    0.20    0.06
  10   4   2    0.33    0.06
  11   4   2    1.93    0.16
 -11   4  -2    1.71    0.15
  11   4   2    1.65    0.14
 -11   4  -2    1.64    0.13
 -11   4  -2    1.63    0.14
  11   4   2    1.43    0.13
 -12   4  -2   -0.01    0.05
  12   4   2    0.02    0.04
  12   4   2    0.09    0.04
 -12   4  -2   -0.05    0.03
 -11  -5   2    0.81    0.11
  11   5  -2    0.79    0.08
 -11   5   2    0.56    0.08
  11   5  -2    0.62    0.08
 -11   5   2    0.48    0.06
 -10  -5   2    0.68    0.10
 -10   5   2    0.84    0.10
  10   5  -2    0.86    0.11
  10   5  -2    0.88    0.10
  10   5  -2    0.90    0.08
 -10   5   2    0.81    0.08
   9   5  -2    0.79    0.11
  -9   5   2    0.66    0.09
  -9   5   2    0.50    0.08
   9   5  -2    0.95    0.11
   9   5  -2    0.78    0.10
  -8   5   2    2.49    0.23
   8   5  -2    2.55    0.24
   8   5  -2    3.00    0.24
  -8   5   2    2.43    0.23
  -8   5   2    3.24    0.22
   8   5  -2    2.75    0.21
   8   5  -2    2.86    0.23
  -8   5   2    2.68    0.22
  -7   5   2    1.44    0.15
   7   5  -2    1.54    0.14
  -7   5   2    1.57    0.15
   7   5  -2    1.77    0.16
   7   5  -2    1.65    0.16
  -7   5   2    1.52    0.13
   7   5  -2    1.54    0.15
  -7   5   2    1.67    0.14
  -6   5   2    0.15    0.05
   6   5  -2    0.08    0.04
  -6   5   2    0.17    0.03
   6   5  -2    0.16    0.06
   6   5  -2    0.15    0.05
  -6   5   2    0.08    0.04
   6   5  -2    0.10    0.06
   6   5  -2    0.03    0.04
  -6   5   2    0.16    0.05
   5   5  -2    6.94    0.55
  -5   5   2    6.93    0.53
  -5   5   2    7.06    0.53
  -5   5   2    7.34    0.51
   5   5  -2    7.59    0.50
   5   5  -2    7.32    0.54
   5   5  -2    6.98    0.52
  -5   5   2    6.99    0.51
   4   5  -2   13.37    0.88
   4   5  -2   13.15    0.91
   4   5  -2   13.43    0.96
  -4   5   2   11.10    0.87
  -4   5   2   12.81    0.95
  -4   5   2   12.78    0.90
  -4   5   2   13.66    0.93
  -4   5   2   12.32    0.91
   4   5  -2   13.17    0.96
  -3   5   2    4.48    0.30
  -3   5   2    4.25    0.29
   3   5  -2    4.00    0.31
   3   5  -2    3.97    0.33
   3   5  -2    4.49    0.30
  -3   5   2    3.93    0.30
  -3   5   2    4.12    0.31
   3   5  -2    4.22    0.32
  -3   5   2    4.27    0.31
  -2   5   2   40.49    3.17
  -2   5   2   46.39    2.99
  -2   5   2   37.03    2.88
   2   5  -2   45.27    2.89
   2   5  -2   41.95    3.17
   2   5  -2   40.56    3.07
   2   5  -2   46.90    3.00
  -2   5   2   47.26    2.99
  -2   5   2   44.15    3.06
   2   5  -2   44.18    3.17
   2   5  -2   37.49    2.99
  -1   5   2    2.62    0.18
  -1   5   2    2.34    0.19
  -1   5   2    2.84    0.19
  -1   5   2    2.30    0.19
  -1   5   2    2.16    0.18
   1   5  -2    2.59    0.20
   1   5  -2    2.73    0.20
   1   5  -2    2.58    0.18
   1   5  -2    2.64    0.19
   1   5  -2    2.51    0.19
   0  -5   2    0.03    0.03
   0   5  -2    0.06    0.03
   0   5   2    0.08    0.02
   0   5   2    0.03    0.02
   0   5  -2    0.04    0.03
   0   5  -2    0.04    0.03
   0   5   2    0.09    0.03
   0   5  -2    0.05    0.02
   0   5  -2    0.03    0.03
   1  -5   2    2.79    0.21
  -1   5  -2    2.51    0.21
  -1   5  -2    2.46    0.20
  -1   5  -2    2.51    0.19
   1   5   2    2.73    0.19
  -1   5  -2    2.89    0.20
   1   5   2    2.75    0.20
   1   5   2    2.84    0.20
   1   5   2    2.44    0.20
   1   5   2    2.53    0.20
   1   5   2    2.26    0.18
  -1   5  -2    2.54    0.19
   2  -5   2    0.83    0.09
   2   5   2    0.75    0.07
  -2   5  -2    0.86    0.07
   2   5   2    0.80    0.08
   2   5   2    0.80    0.07
  -2   5  -2    0.72    0.08
   2   5   2    0.88    0.08
  -2   5  -2    0.87    0.08
   2   5   2    0.71    0.07
  -2   5  -2    0.73    0.08
   2   5   2    0.86    0.07
  -2   5  -2    0.79    0.08
   3  -5   2    2.66    0.21
  -3   5  -2    2.54    0.20
   3   5   2    2.74    0.20
   3   5   2    2.50    0.19
  -3   5  -2    2.25    0.20
  -3   5  -2    2.90    0.20
  -3   5  -2    2.72    0.19
   3   5   2    2.43    0.20
  -3   5  -2    2.28    0.19
   3   5   2    2.45    0.20
   3   5   2    2.52    0.18
   3   5   2    2.67    0.20
   4  -5   2    0.06    0.03
   4   5   2    0.03    0.04
  -4   5  -2    0.01    0.03
   4   5   2    0.06    0.04
  -4   5  -2    0.02    0.03
   4   5   2    0.06    0.03
  -4   5  -2    0.08    0.03
   4   5   2    0.06    0.04
   4   5   2    0.10    0.03
   4   5   2    0.06    0.03
  -4   5  -2    0.02    0.02
   5  -5   2    0.55    0.07
   5   5   2    0.50    0.07
   5   5   2    0.66    0.07
   5   5   2    0.55    0.07
   5   5   2    0.63    0.07
  -5   5  -2    0.55    0.06
   5   5   2    0.42    0.06
   5   5   2    0.55    0.07
  -5   5  -2    0.49    0.06
  -5   5  -2    0.53    0.07
   6  -5   2    1.76    0.15
  -6   5  -2    1.90    0.14
   6   5   2    1.93    0.16
  -6   5  -2    1.86    0.16
   6   5   2    1.61    0.14
   6   5   2    1.58    0.14
  -6   5  -2    1.45    0.14
  -6   5  -2    1.92    0.14
   6   5   2    1.86    0.15
   6   5   2    1.59    0.14
   6   5   2    1.89    0.16
   6   5   2    1.50    0.15
   7  -5   2    0.24    0.07
  -7   5  -2    0.31    0.06
  -7   5  -2    0.38    0.05
   7   5   2    0.30    0.07
   7   5   2    0.28    0.06
   7   5   2    0.38    0.06
  -7   5  -2    0.32    0.06
   7   5   2    0.38    0.07
  -7   5  -2    0.39    0.06
   7   5   2    0.39    0.05
   7   5   2    0.30    0.06
   8  -5   2    0.25    0.06
   8   5   2    0.27    0.06
  -8   5  -2    0.27    0.07
   8   5   2    0.32    0.05
   8   5   2    0.33    0.05
   8   5   2    0.30    0.05
  -8   5  -2    0.32    0.05
   8   5   2    0.39    0.08
  -8   5  -2    0.31    0.06
  -8   5  -2    0.29    0.06
   8   5   2    0.45    0.06
  -9   5  -2    0.50    0.06
   9   5   2    0.37    0.07
   9   5   2    0.32    0.05
  -9   5  -2    0.37    0.07
   9   5   2    0.26    0.07
  -9   5  -2    0.43    0.07
   9   5   2    0.36    0.06
   9   5   2    0.41    0.06
 -10   5  -2    1.03    0.11
 -10   5  -2    1.21    0.11
  10   5   2    1.30    0.12
  10   5   2    1.05    0.09
  10   5   2    1.07    0.11
  11   5   2    0.02    0.07
 -11   5  -2    0.06    0.04
 -10   6   2    1.50    0.12
 -10   6   2    1.22    0.11
  10   6  -2    1.56    0.13
  10   6  -2    1.48    0.12
   9   6  -2    0.37    0.06
  -9   6   2    0.31    0.06
  -9   6   2    0.40    0.06
   9   6  -2    0.41    0.06
   9   6  -2    0.38    0.09
   8   6  -2    0.98    0.12
   8   6  -2    1.02    0.10
   8   6  -2    1.14    0.12
  -8   6   2    1.07    0.11
  -8   6   2    1.21    0.10
   7   6  -2    0.38    0.08
  -7   6   2    0.30    0.06
   7   6  -2    0.28    0.07
  -7   6   2    0.20    0.06
   7   6  -2    0.19    0.06
  -7   6   2    0.31    0.07
   7   6  -2    0.29    0.05
   6   6  -2    3.27    0.23
   6   6  -2    3.34    0.24
  -6   6   2    3.28    0.24
  -6   6   2    3.30    0.24
   6   6  -2    2.92    0.27
   6   6  -2    3.49    0.26
  -6   6   2    3.01    0.26
  -6   6   2    2.89    0.25
   6   6  -2    3.27    0.25
   5   6  -2    2.32    0.19
   5   6  -2    2.20    0.18
   5   6  -2    2.66    0.20
  -5   6   2    2.07    0.19
  -5   6   2    2.21    0.17
   5   6  -2    2.13    0.20
  -5   6   2    2.19    0.18
   4   6  -2   25.09    2.08
   4   6  -2   29.10    1.90
   4   6  -2   27.80    1.97
  -4   6   2   27.66    2.01
   4   6  -2   26.55    1.96
  -4   6   2   29.37    1.96
  -4   6   2   30.08    1.96
   4   6  -2   28.53    2.08
   3   6  -2    6.68    0.49
   3   6  -2    6.85    0.46
   3   6  -2    6.02    0.48
   3   6  -2    6.35    0.51
  -3   6   2    6.78    0.47
   3   6  -2    6.73    0.51
  -3   6   2    6.49    0.49
  -3   6   2    7.29    0.48
   2   6  -2   14.26    0.98
  -2   6   2   14.12    1.00
   2   6  -2   14.91    0.94
  -2   6   2   13.48    0.97
   2   6  -2   15.07    1.03
   2   6  -2   12.41    1.03
  -2   6   2   13.76    0.96
   2   6  -2   12.10    0.97
   1   6  -2    3.20    0.27
  -1   6   2    3.42    0.25
   1   6  -2    3.29    0.25
   1   6  -2    3.44    0.27
  -1   6   2    3.71    0.26
  -1   6   2    3.71    0.25
   1   6  -2    2.91    0.26
   1   6  -2    3.54    0.26
   1   6  -2    3.34    0.24
   0   6  -2    4.42    0.37
   0   6  -2    5.47    0.37
   0   6   2    5.11    0.36
   0   6  -2    4.61    0.39
   0   6   2    5.00    0.37
   0   6  -2    5.26    0.35
   0   6  -2    5.08    0.39
  -1   6  -2    3.66    0.29
  -1   6  -2    3.38    0.30
  -1   6  -2    4.13    0.31
   1   6   2    3.74    0.29
   1   6   2    4.30    0.29
   1   6   2    4.24    0.30
  -1   6  -2    4.05    0.28
  -1   6  -2    4.28    0.30
   2  -6   2   15.34    1.13
  -2   6  -2   14.65    1.06
  -2   6  -2   16.72    1.13
  -2   6  -2   13.22    1.09
   2   6   2   14.12    1.07
   2   6   2   15.40    1.09
  -2   6  -2   15.29    1.03
   2   6   2   16.20    1.06
   3  -6   2    2.55    0.21
   3   6   2    2.45    0.19
  -3   6  -2    2.59    0.19
   3   6   2    2.63    0.19
  -3   6  -2    2.76    0.20
  -3   6  -2    2.08    0.20
   3   6   2    2.26    0.19
   3   6   2    2.46    0.19
  -3   6  -2    2.41    0.19
  -3   6  -2    2.69    0.20
   4  -6   2    1.21    0.12
   4   6   2    1.09    0.12
  -4   6  -2    1.27    0.11
   4   6   2    1.21    0.10
   4   6   2    1.34    0.12
   4   6   2    1.24    0.10
  -4   6  -2    1.12    0.11
  -4   6  -2    1.34    0.12
  -4   6  -2    1.27    0.12
   5  -6   2    5.69    0.48
   5   6   2    5.81    0.47
  -5   6  -2    6.04    0.45
   5   6   2    5.46    0.46
  -5   6  -2    7.29    0.46
   5   6   2    6.44    0.45
  -5   6  -2    6.56    0.44
  -5   6  -2    6.76    0.48
   5   6   2    6.29    0.46
   6  -6   2    0.43    0.07
   6   6   2    0.57    0.08
   6   6   2    0.42    0.06
   6   6   2    0.53    0.07
   6   6   2    0.50    0.07
  -6   6  -2    0.46    0.07
  -6   6  -2    0.44    0.07
  -6   6  -2    0.50    0.07
   6   6   2    0.53    0.05
  -6   6  -2    0.46    0.06
  -7   6  -2    0.94    0.10
   7   6   2    0.99    0.09
  -7   6  -2    1.04    0.10
   7   6   2    0.74    0.09
  -7   6  -2    0.63    0.09
   7   6   2    0.94    0.10
  -7   6  -2    1.10    0.09
   7   6   2    0.89    0.11
   8   6   2    0.04    0.04
  -8   6  -2   -0.01    0.06
  -8   6  -2    0.00    0.05
  -8   6  -2    0.09    0.04
   8   6   2    0.04    0.07
   8   6   2    0.00    0.06
  -8   6  -2    0.03    0.06
   9   6   2    6.18    0.42
   9   6   2    4.91    0.40
  -9   6  -2    5.24    0.41
  -9   6  -2    6.48    0.41
   9   6   2    5.25    0.38
 -10   6  -2    0.00    0.05
  10   6   2    0.07    0.06
  10   6   2    0.09    0.05
 -10   6  -2   -0.02    0.03
  -9   7   2    0.10    0.03
  -8   7   2    0.85    0.08
   8   7  -2    1.23    0.12
  -8   7   2    1.00    0.09
  -7   7   2    0.78    0.08
   7   7  -2    0.65    0.08
   7   7  -2    0.79    0.09
   7   7  -2    0.78    0.07
  -7   7   2    0.78    0.07
  -6   7   2    0.30    0.05
   6   7  -2    0.28    0.05
  -6   7   2    0.25    0.05
  -6   7   2    0.24    0.05
   6   7  -2    0.32    0.06
   6   7  -2    0.28    0.05
   6   7  -2    0.30    0.07
   5   7  -2    1.68    0.14
   5   7  -2    1.49    0.12
   5   7  -2    1.59    0.13
  -5   7   2    1.68    0.12
   5   7  -2    1.66    0.15
  -5   7   2    1.28    0.13
  -5   7   2    1.48    0.15
  -4   7   2    0.03    0.04
   4   7  -2    0.08    0.05
   4   7  -2    0.08    0.05
  -4   7   2    0.12    0.05
   4   7  -2    0.10    0.05
   4   7  -2    0.08    0.04
   4   7  -2    0.10    0.06
  -4   7   2    0.01    0.04
   3   7  -2    5.54    0.40
   3   7  -2    6.19    0.42
   3   7  -2    4.86    0.44
  -3   7   2    5.80    0.40
  -3   7   2    5.52    0.41
   3   7  -2    5.71    0.43
   3   7  -2    5.86    0.41
  -3   7   2    5.71    0.42
   2   7  -2    7.00    0.50
   2   7  -2    6.09    0.54
  -2   7   2    7.22    0.51
   2   7  -2    7.30    0.53
   2   7  -2    7.73    0.52
  -2   7   2    7.00    0.52
   2   7  -2    6.98    0.49
   1   7  -2    0.83    0.10
  -1   7   2    0.88    0.09
   1   7  -2    0.99    0.10
   1   7  -2    0.97    0.09
   1   7  -2    0.91    0.11
   1   7  -2    0.99    0.09
  -1   7   2    0.85    0.09
  -1   7   2    0.94    0.09
   0   7  -2    0.36    0.06
   0   7  -2    0.25    0.05
   0   7  -2    0.36    0.05
   0   7  -2    0.27    0.05
   0   7   2    0.15    0.05
   0   7  -2    0.40    0.07
   0   7   2    0.23    0.06
   0   7   2    0.28    0.05
  -1   7  -2    6.27    0.47
   1   7   2    6.00    0.47
  -1   7  -2    7.19    0.46
  -1   7  -2    6.49    0.45
  -1   7  -2    6.22    0.44
   1   7   2    6.24    0.45
   1   7   2    5.61    0.45
  -2   7  -2    0.25    0.06
  -2   7  -2    0.37    0.05
   2   7   2    0.24    0.05
   2   7   2    0.37    0.06
  -2   7  -2    0.24    0.06
  -2   7  -2    0.32    0.05
  -2   7  -2    0.50    0.06
   2   7   2    0.33    0.05
   3   7   2    2.98    0.21
  -3   7  -2    2.66    0.21
   3   7   2    2.72    0.21
  -3   7  -2    2.76    0.21
   3   7   2    2.41    0.21
  -3   7  -2    2.73    0.20
  -3   7  -2    2.75    0.21
   4   7   2    3.16    0.25
  -4   7  -2    3.32    0.25
  -4   7  -2    3.18    0.24
   4   7   2    3.66    0.24
  -4   7  -2    3.38    0.25
   4   7   2    2.76    0.25
  -4   7  -2    3.22    0.25
  -5   7  -2    1.46    0.13
  -5   7  -2    1.20    0.11
  -5   7  -2    1.28    0.12
   5   7   2    1.52    0.12
   5   7   2    1.36    0.13
  -5   7  -2    1.17    0.11
   6   7   2    3.07    0.24
  -6   7  -2    3.45    0.25
  -6   7  -2    3.15    0.24
   6   7   2    3.38    0.24
   7   7   2    0.06    0.06
  -7   7  -2    0.09    0.04
  -7   7  -2   -0.01    0.05
   7   7   2    0.11    0.05
   7   7   2    0.07    0.04
  -8   7  -2    3.36    0.27
   8   7   2    3.34    0.27
  -8   7  -2    4.09    0.27
   8   7   2    3.48    0.27
   8   7   2    3.68    0.26
   9   7   2   -0.01    0.03
  -9   7  -2    0.08    0.03
   6   8  -2    0.11    0.04
   6   8  -2    0.16    0.05
   5   8  -2    0.07    0.04
   5   8  -2    0.03    0.06
   5   8  -2    0.00    0.05
   4   8  -2    0.32    0.07
   4   8  -2    0.30    0.05
  -4   8   2    0.14    0.06
  -3   8   2    0.74    0.08
   3   8  -2    0.77    0.08
   3   8  -2    0.80    0.11
  -3   8   2    0.82    0.08
  -2   8   2    0.05    0.04
   2   8  -2    0.01    0.06
  -2   8   2    0.10    0.04
   2   8  -2    0.07    0.04
  -2   8   2    0.04    0.05
  -1   8   2    0.45    0.07
  -1   8   2    0.51    0.05
  -1   8   2    0.38    0.06
   1   8  -2    0.56    0.06
   1   8  -2    0.56    0.08
   0   8   2    0.08    0.05
   0   8   2    0.13    0.05
   0   8   2    0.14    0.04
   0   8  -2    0.11    0.05
   0   8  -2    0.15    0.05
   1   8   2    0.01    0.04
  -1   8  -2   -0.05    0.04
  -1   8  -2   -0.03    0.06
   1   8   2    0.07    0.04
   1   8   2    0.00    0.03
   2   8   2    0.52    0.07
   2   8   2    0.73    0.07
  -2   8  -2    0.76    0.08
  -2   8  -2    0.72    0.09
   3   8   2    0.10    0.04
   3   8   2    0.11    0.05
  -3   8  -2    0.16    0.06
   4   8   2    0.06    0.03
  -4   8  -2    0.04    0.05
  -4   8  -2    0.12    0.04
   4   8   2    0.06    0.03
  -5   8  -2    0.07    0.05
   5   8   2    0.07    0.05
   5   8   2    0.10    0.03
  -5   8  -2    0.05    0.04
   5   8   2    0.07    0.03
   6   8   2    0.22    0.04
  -6   8  -2    0.13    0.04
   6   8   2    0.14    0.04
  -6   8  -2    0.07    0.04
   7   8   2    0.42    0.05
  -3   9   2    0.03    0.02
   3   9  -2    0.05    0.04
  -2   9   2    0.06    0.02
   2   9  -2    0.04    0.03
   1   9  -2    0.14    0.04
  -1   9   2    0.11    0.02
   1   9  -2    0.10    0.03
   0   9   2    0.62    0.06
   0   9  -2    0.65    0.06
   1   9   2    0.32    0.04
  -1   9  -2    0.25    0.04
  -2   9  -2   -0.02    0.03
   2   9   2    0.02    0.03
   3   9   2    0.16    0.03
  -3   9  -2    0.13    0.04
  13   0  -3    0.00    0.05
 -13   0   3    0.05    0.06
  13   0  -3   -0.01    0.05
 -12   0   3   -0.05    0.07
 -11   0   3    0.03    0.06
  11   0  -3    0.04    0.06
 -11   0   3   -0.03    0.05
 -11   0   3   -0.02    0.04
 -10   0   3    0.03    0.05
 -10   0   3    0.05    0.05
  10   0  -3   -0.01    0.04
 -10   0   3    0.04    0.04
  -9   0   3    0.04    0.04
  -9   0   3   -0.03    0.05
   9   0  -3    0.03    0.05
  -9   0   3    0.00    0.04
   8   0  -3    0.03    0.03
  -8   0   3    0.01    0.02
  -8   0   3    0.01    0.04
  -8   0   3   -0.01    0.04
   7   0  -3   -0.01    0.03
  -7   0   3   -0.02    0.03
  -7   0   3    0.02    0.03
  -7   0   3    0.00    0.03
  -7   0   3    0.01    0.03
  -6   0   3    0.15    0.03
  -6   0   3    0.12    0.04
  -6   0   3    0.13    0.03
  -6   0   3    0.14    0.04
   6   0  -3    0.09    0.03
   5   0  -3    0.08    0.03
  -5   0   3    0.12    0.02
  -5   0   3    0.11    0.03
  -5   0   3    0.05    0.03
  -4   0   3    0.16    0.03
  -4   0   3    0.12    0.03
   4   0  -3    0.13    0.03
   3   0  -3   -0.02    0.02
  -3   0   3    0.00    0.02
   2   0  -3    0.06    0.02
  -2   0   3    0.07    0.02
   1   0  -3   -0.46    0.02
   1   0   3   -0.47    0.01
   2   0   3    0.42    0.04
   3   0   3   -0.02    0.01
  -3   0  -3   -0.02    0.02
   4   0   3   -0.01    0.02
  -4   0  -3    0.02    0.01
  -4   0  -3   -0.01    0.02
   5   0   3    0.09    0.02
  -5   0  -3    0.07    0.02
  -5   0  -3    0.03    0.03
   5   0   3    0.09    0.03
  -6   0  -3    0.02    0.03
   6   0   3   -0.01    0.03
  -6   0  -3    0.00    0.03
   6   0   3    0.00    0.03
   6   0   3    0.02    0.02
   6   0   3    0.03    0.03
   7   0   3    0.08    0.04
  -7   0  -3    0.07    0.02
   7   0   3    0.05    0.04
   7   0   3    0.01    0.03
  -7   0  -3    0.04    0.04
   7   0   3    0.05    0.03
  -7   0  -3    0.07    0.04
  -8   0  -3    0.05    0.04
  -8   0  -3   -0.01    0.04
   8   0   3    0.10    0.04
   8   0   3    0.04    0.03
   8   0   3    0.04    0.04
  -8   0  -3    0.01    0.03
   9   0   3    0.07    0.05
  -9   0  -3    0.01    0.04
  -9   0  -3    0.00    0.04
   9   0   3    0.03    0.05
   9   0   3    0.06    0.05
  -9   0  -3    0.02    0.05
 -10   0  -3    0.04    0.03
 -10   0  -3    0.00    0.06
 -10   0  -3    0.02    0.06
  10   0   3    0.01    0.06
  10   0   3   -0.01    0.04
  10   0   3    0.02    0.06
 -11   0  -3    0.00    0.05
  11   0   3   -0.05    0.05
  11   0   3   -0.01    0.06
  11   0   3    0.00    0.04
 -11   0  -3   -0.01    0.04
 -11   0  -3   -0.01    0.04
  12   0   3    0.06    0.05
 -12   0  -3   -0.01    0.05
 -12   0  -3   -0.05    0.07
  13   0   3    0.03    0.04
 -13   0  -3    0.00    0.04
 -13   0  -3   -0.03    0.05
 -13   0  -3    0.02    0.05
 -14  -1   3   -0.01    0.03
 -13  -1   3    2.83    0.21
  13   1  -3    2.48    0.22
 -13   1   3    2.51    0.20
  13   1  -3    2.30    0.19
 -12  -1   3    2.94    0.24
 -12   1   3    2.81    0.22
  12   1  -3    2.47    0.23
  12   1  -3    2.83    0.21
 -12   1   3    2.84    0.23
  11  -1  -3    0.48    0.09
 -11  -1   3    0.62    0.10
 -11  -1   3    0.63    0.10
  11   1  -3    0.66    0.09
  11   1  -3    0.70    0.09
 -11   1   3    0.76    0.09
 -11   1   3    0.63    0.09
 -11   1   3    0.62    0.08
  10  -1  -3    1.88    0.18
 -10  -1   3    2.04    0.18
 -10  -1   3    1.78    0.17
 -10  -1   3    2.22    0.16
  10   1  -3    1.90    0.17
  10   1  -3    1.83    0.17
 -10   1   3    1.72    0.17
  10   1  -3    1.82    0.18
 -10   1   3    2.02    0.17
 -10   1   3    2.10    0.16
  -9  -1   3    3.49    0.27
  -9  -1   3    3.63    0.28
   9  -1  -3    3.29    0.28
  -9  -1   3    3.59    0.25
   9   1  -3    2.96    0.27
   9   1  -3    3.48    0.28
  -9   1   3    3.36    0.25
  -9   1   3    3.22    0.27
   9   1  -3    3.40    0.26
  -9   1   3    3.66    0.27
  -8  -1   3    2.69    0.22
   8  -1  -3    2.93    0.22
  -8  -1   3    3.06    0.20
  -8  -1   3    2.43    0.21
   8   1  -3    2.62    0.21
  -8   1   3    2.80    0.22
  -8   1   3    2.85    0.22
  -8   1   3    2.29    0.20
   8   1  -3    2.91    0.23
  -8   1   3    2.56    0.21
  -8   1   3    2.80    0.20
   7  -1  -3    1.05    0.10
  -7  -1   3    1.09    0.10
  -7  -1   3    0.92    0.09
  -7  -1   3    0.99    0.10
  -7   1   3    0.97    0.08
  -7   1   3    1.02    0.09
  -7   1   3    1.01    0.09
   7   1  -3    1.00    0.10
  -7   1   3    1.06    0.10
   7   1  -3    1.08    0.10
  -7   1   3    0.96    0.09
   6  -1  -3    8.58    0.61
  -6  -1   3    8.83    0.60
  -6  -1   3    8.43    0.56
  -6  -1   3    7.83    0.61
  -6   1   3    7.59    0.56
  -6   1   3    7.44    0.57
  -6   1   3    8.02    0.61
   6   1  -3    8.15    0.61
  -6   1   3    8.55    0.60
  -6   1   3    8.30    0.59
  -5  -1   3    0.42    0.05
   5  -1  -3    0.34    0.04
  -5  -1   3    0.49    0.05
  -5  -1   3    0.47    0.05
  -5   1   3    0.33    0.04
  -5   1   3    0.38    0.04
  -5   1   3    0.34    0.04
   5   1  -3    0.53    0.06
  -5   1   3    0.36    0.05
   4  -1  -3    0.91    0.08
  -4  -1   3    0.87    0.08
  -4   1   3    0.97    0.07
  -4   1   3    0.90    0.07
   4   1  -3    0.82    0.08
  -3  -1   3    6.73    0.51
   3  -1  -3    6.95    0.51
   3   1  -3    6.45    0.51
  -3   1   3    7.83    0.50
  -3   1   3    6.56    0.50
   2  -1  -3  109.91    8.36
  -2  -1   3  119.93    8.20
  -2   1   3  118.15    8.20
   2   1  -3  106.93    8.37
  -1  -1   3   87.50    6.26
  -1  -1   3   82.58    6.13
   0  -1   3  242.35   17.82
   1  -1   3  113.60    8.24
   1   1   3  110.39    8.23
   2  -1   3    3.01    0.24
  -2  -1  -3    3.06    0.24
   2   1   3    3.62    0.24
   3  -1   3   43.65    3.12
  -3  -1  -3   42.67    3.06
   3   1   3   42.72    3.12
   3   1   3   40.31    3.02
  -4  -1  -3   39.31    2.71
  -4  -1  -3   36.16    2.52
   4  -1   3   39.04    2.76
   4   1   3   38.35    2.67
  -4   1  -3   32.98    2.52
   4   1   3   38.58    2.76
  -5  -1  -3   19.64    1.36
  -5  -1  -3   18.05    1.26
   5  -1   3   19.85    1.38
   5   1   3   17.82    1.34
  -5   1  -3   20.53    1.36
   5   1   3   15.96    1.38
  -5   1  -3   17.41    1.26
   5   1   3   20.20    1.38
  -6  -1  -3    1.42    0.10
   6  -1   3    1.01    0.09
  -6  -1  -3    1.12    0.09
   6  -1   3    1.03    0.10
   6  -1   3    0.90    0.10
   6   1   3    1.24    0.10
   6   1   3    1.27    0.09
   6   1   3    1.38    0.11
  -6   1  -3    1.12    0.11
  -6   1  -3    0.94    0.09
  -6   1  -3    0.86    0.10
   6   1   3    1.21    0.10
   7  -1   3    0.86    0.09
   7  -1   3    0.89    0.09
  -7  -1  -3    0.92    0.10
  -7  -1  -3    0.85    0.08
   7  -1   3    0.88    0.09
  -7   1  -3    0.77    0.07
   7   1   3    0.91    0.09
   7   1   3    0.95    0.07
  -7   1  -3    0.84    0.09
  -7   1  -3    0.93    0.09
   7   1   3    0.90    0.10
   7   1   3    0.96    0.09
  -8  -1  -3    3.51    0.24
   8  -1   3    3.26    0.26
   8  -1   3    3.47    0.26
   8  -1   3    3.57    0.25
  -8  -1  -3    3.27    0.26
  -8   1  -3    3.51    0.27
   8   1   3    3.24    0.27
  -8   1  -3    3.08    0.26
   8   1   3    3.09    0.23
   8   1   3    3.27    0.25
  -8   1  -3    3.48    0.24
   8   1   3    3.08    0.26
   9  -1   3    1.93    0.17
   9  -1   3    1.85    0.15
  -9  -1  -3    1.82    0.17
   9  -1   3    1.61    0.17
  -9  -1  -3    2.02    0.15
   9   1   3    1.99    0.16
   9   1   3    1.84    0.15
   9   1   3    1.97    0.16
  -9   1  -3    1.84    0.16
  -9   1  -3    1.80    0.17
  -9   1  -3    1.76    0.14
 -10  -1  -3    8.28    0.55
 -10  -1  -3    7.28    0.60
  10  -1   3    7.79    0.60
 -10  -1  -3    7.44    0.60
  10  -1   3    7.84    0.60
 -10   1  -3    7.62    0.59
  10   1   3    7.83    0.57
  10   1   3    8.55    0.60
 -10   1  -3    8.23    0.55
 -10   1  -3    8.42    0.60
  10   1   3    7.21    0.60
 -11  -1  -3    1.13    0.14
  11  -1   3    0.96    0.13
  11  -1   3    1.16    0.12
 -11  -1  -3    0.96    0.12
 -11  -1  -3    1.09    0.11
 -11   1  -3    1.00    0.12
  11   1   3    1.21    0.13
  11   1   3    1.22    0.13
 -11   1  -3    1.07    0.11
 -11   1  -3    1.20    0.14
  11   1   3    1.10    0.13
  12  -1   3    0.08    0.07
 -12  -1  -3    0.07    0.07
 -12  -1  -3    0.04    0.04
 -12   1  -3    0.05    0.05
  12   1   3   -0.06    0.06
  12   1   3    0.02    0.07
 -12   1  -3    0.02    0.05
 -12   1  -3    0.00    0.05
  13  -1   3    0.13    0.05
 -13  -1  -3    0.09    0.06
  13   1   3    0.04    0.05
 -13   1  -3    0.07    0.04
 -13   1  -3    0.05    0.04
 -13   1  -3    0.11    0.05
  13   1   3    0.10    0.04
 -13  -2   3   -0.06    0.06
  13   2  -3   -0.03    0.04
 -13   2   3   -0.04    0.04
 -12  -2   3    5.64    0.41
  12   2  -3    5.48    0.40
 -12   2   3    5.43    0.38
  12   2  -3    4.80    0.38
 -12   2   3    4.67    0.36
  12   2  -3    4.90    0.36
 -12   2   3    4.79    0.39
 -11  -2   3    1.71    0.16
  11  -2  -3    1.45    0.15
 -11  -2   3    1.19    0.16
 -11   2   3    1.25    0.14
  11   2  -3    1.52    0.15
  11   2  -3    1.46    0.14
  11   2  -3    1.40    0.14
 -11   2   3    1.24    0.12
 -11   2   3    1.61    0.13
 -11   2   3    1.60    0.12
  11   2  -3    1.33    0.15
 -10  -2   3   11.90    0.99
 -10  -2   3   14.84    1.01
  10   2  -3   12.97    1.01
 -10   2   3   12.36    0.99
  10   2  -3   14.39    0.91
  10   2  -3   13.10    0.95
 -10   2   3   12.48    0.94
 -10   2   3   13.15    0.91
 -10   2   3   15.20    1.00
  10   2  -3   12.61    1.00
  -9  -2   3    5.42    0.44
  -9  -2   3    5.48    0.44
   9  -2  -3    5.55    0.44
  -9   2   3    6.43    0.40
  -9   2   3    6.54    0.44
  -9   2   3    5.24    0.41
   9   2  -3    5.63    0.42
   9   2  -3    5.51    0.45
   9   2  -3    6.04    0.40
  -9   2   3    5.74    0.44
   9   2  -3    5.40    0.45
   8  -2  -3   28.23    2.02
  -8  -2   3   27.12    1.99
  -8  -2   3   27.41    2.03
  -8   2   3   26.83    1.91
  -8   2   3   29.24    1.99
  -8   2   3   25.76    1.96
   8   2  -3   23.63    2.03
   8   2  -3   27.27    1.92
  -8   2   3   27.37    1.84
   8   2  -3   27.95    2.03
  -8   2   3   29.53    2.02
   7  -2  -3    0.38    0.05
  -7  -2   3    0.35    0.06
  -7  -2   3    0.34    0.05
  -7   2   3    0.31    0.05
  -7   2   3    0.31    0.05
  -7   2   3    0.29    0.04
   7   2  -3    0.28    0.04
   7   2  -3    0.34    0.06
   7   2  -3    0.35    0.05
  -7   2   3    0.30    0.04
  -7   2   3    0.37    0.04
   6  -2  -3   24.90    1.71
  -6  -2   3   24.93    1.68
  -6  -2   3   20.98    1.71
   6   2  -3   20.73    1.62
  -6   2   3   22.60    1.56
   6   2  -3   19.45    1.71
  -6   2   3   23.38    1.71
   6   2  -3   25.70    1.71
  -6   2   3   23.33    1.66
  -6   2   3   25.13    1.68
  -6   2   3   23.07    1.61
  -5  -2   3   74.21    6.42
  -5  -2   3   94.36    6.28
   5  -2  -3   94.97    6.40
  -5   2   3   96.10    6.28
  -5   2   3   77.99    6.42
   5   2  -3   83.85    5.84
  -5   2   3   79.79    5.84
   5   2  -3   95.06    6.40
  -5   2   3   82.08    6.05
  -5   2   3   91.17    6.20
   4  -2  -3   33.46    2.49
  -4  -2   3   36.09    2.45
  -4   2   3   34.11    2.45
   4   2  -3   35.82    2.50
   4   2  -3   31.03    2.28
  -4   2   3   32.52    2.42
  -3  -2   3    6.23    0.45
   3  -2  -3    6.10    0.45
   3   2  -3    5.75    0.46
  -3   2   3    6.32    0.44
   2  -2  -3    9.34    0.70
  -2  -2   3    9.29    0.69
  -2   2   3    9.68    0.68
   2   2  -3    9.57    0.70
  -1  -2   3  787.46   55.78
   1  -2  -3  729.41   55.77
   0  -2   3  140.80    9.63
   0   2   3  121.10    9.63
  -1  -2  -3   43.57    3.31
   1  -2   3   47.25    3.37
   1   2   3   46.63    3.37
   2  -2   3    9.08    0.66
  -2  -2  -3    8.68    0.65
   2   2   3    8.39    0.66
   2   2   3    9.30    0.64
  -3  -2  -3   47.26    3.23
   3  -2   3   44.09    3.29
   3   2   3   47.68    3.19
   3   2   3   44.33    3.29
  -3   2  -3   40.02    3.00
  -4  -2  -3   47.34    3.44
   4  -2   3   52.95    3.77
  -4  -2  -3   53.22    3.70
   4   2   3   52.69    3.65
   4   2   3   50.99    3.77
  -4   2  -3   49.91    3.44
  -5  -2  -3    0.07    0.03
   5  -2   3    0.07    0.03
  -5  -2  -3    0.06    0.02
   5   2   3    0.10    0.03
   5   2   3    0.06    0.02
   5   2   3    0.13    0.02
   5   2   3    0.08    0.02
  -5   2  -3    0.07    0.03
   5   2   3    0.04    0.03
   5   2   3    0.04    0.03
  -5   2  -3    0.07    0.02
  -6  -2  -3   11.26    0.77
   6  -2   3   11.33    0.78
   6  -2   3    9.51    0.78
  -6  -2  -3   10.84    0.71
   6   2   3    9.12    0.73
   6   2   3   10.95    0.78
  -6   2  -3   11.10    0.71
   6   2   3   10.52    0.74
   6   2   3   10.64    0.69
   6   2   3   10.26    0.75
   6   2   3    9.78    0.78
  -6   2  -3    9.84    0.78
   7  -2   3    0.36    0.06
   7  -2   3    0.41    0.06
  -7  -2  -3    0.46    0.06
  -7  -2  -3    0.43    0.05
  -7   2  -3    0.27    0.05
   7   2   3    0.39    0.05
   7   2   3    0.37    0.06
   7   2   3    0.51    0.07
  -7   2  -3    0.48    0.06
  -7   2  -3    0.43    0.06
   7   2   3    0.47    0.05
   7   2   3    0.46    0.07
   7   2   3    0.50    0.07
  -8  -2  -3    8.58    0.55
  -8  -2  -3    7.89    0.60
   8  -2   3    7.78    0.60
   8  -2   3    7.40    0.60
  -8   2  -3    8.06    0.59
   8   2   3    8.27    0.61
   8   2   3    8.11    0.60
  -8   2  -3    7.92    0.57
   8   2   3    8.05    0.53
  -8   2  -3    7.41    0.60
   8   2   3    8.00    0.57
  -8   2  -3    7.98    0.55
   9  -2   3    5.31    0.42
  -9  -2  -3    5.05    0.42
  -9  -2  -3    5.58    0.38
   9  -2   3    5.58    0.42
   9   2   3    5.23    0.37
  -9   2  -3    5.35    0.42
  -9   2  -3    5.40    0.42
  -9   2  -3    5.71    0.38
  -9   2  -3    5.37    0.40
   9   2   3    5.78    0.42
   9   2   3    5.02    0.42
   9   2   3    5.34    0.40
  10  -2   3   17.08    1.29
 -10  -2  -3   16.92    1.18
  10  -2   3   16.19    1.29
  10   2   3   16.00    1.29
  10   2   3   18.07    1.23
 -10   2  -3   15.33    1.27
  10   2   3   19.10    1.29
 -10   2  -3   18.78    1.29
 -10   2  -3   17.86    1.18
 -10   2  -3   17.28    1.22
  11  -2   3    0.70    0.09
  11   2   3    0.70    0.09
 -11   2  -3    0.78    0.11
 -11   2  -3    0.75    0.10
  11   2   3    0.66    0.09
 -11   2  -3    0.73    0.08
  12  -2   3    0.47    0.08
 -12  -2  -3    0.36    0.08
 -12   2  -3    0.47    0.07
 -12   2  -3    0.55    0.09
  12   2   3    0.53    0.08
  12   2   3    0.39    0.06
  12   2   3    0.54    0.07
 -12   2  -3    0.48    0.07
 -13  -2  -3    0.14    0.05
  13  -2   3    0.17    0.05
  13   2   3    0.03    0.04
 -13   2  -3    0.21    0.05
 -13   2  -3    0.09    0.04
  13   2   3    0.10    0.05
 -13  -3   3    0.16    0.06
 -13   3   3    0.13    0.05
  13   3  -3    0.16    0.05
 -12  -3   3    0.01    0.05
  12   3  -3    0.06    0.05
 -12   3   3    0.06    0.04
 -12   3   3    0.08    0.06
  12   3  -3    0.05    0.04
  12   3  -3    0.14    0.05
 -11  -3   3    4.90    0.37
  11   3  -3    4.39    0.35
 -11   3   3    5.11    0.35
  11   3  -3    4.85    0.37
 -11   3   3    4.17    0.34
  11   3  -3    4.86    0.34
 -11   3   3    4.35    0.33
 -11   3   3    4.43    0.35
 -10  -3   3    0.20    0.07
 -10  -3   3    0.09    0.08
  10   3  -3    0.23    0.06
  10   3  -3    0.18    0.06
  10   3  -3    0.21    0.05
 -10   3   3    0.24    0.05
 -10   3   3   -0.02    0.05
 -10   3   3    0.22    0.04
 -10   3   3    0.05    0.06
 -10   3   3    0.10    0.05
  10   3  -3    0.08    0.07
   9  -3  -3    4.24    0.37
  -9  -3   3    4.37    0.37
  -9  -3   3    4.46    0.36
  -9   3   3    4.48    0.34
   9   3  -3    4.51    0.37
  -9   3   3    4.45    0.36
   9   3  -3    4.53    0.35
   9   3  -3    4.63    0.34
  -9   3   3    5.07    0.36
  -9   3   3    4.72    0.33
   9   3  -3    4.86    0.37
  -9   3   3    5.27    0.34
  -8  -3   3    2.38    0.21
  -8  -3   3    2.49    0.22
   8  -3  -3    2.25    0.20
  -8   3   3    2.26    0.20
  -8   3   3    2.09    0.19
   8   3  -3    2.54    0.20
  -8   3   3    2.49    0.20
   8   3  -3    2.78    0.19
  -8   3   3    2.42    0.21
   8   3  -3    2.44    0.21
  -8   3   3    2.54    0.18
   8   3  -3    2.52    0.21
  -8   3   3    2.58    0.19
  -7  -3   3    0.12    0.05
   7  -3  -3    0.07    0.04
  -7  -3   3    0.10    0.06
  -7   3   3    0.09    0.04
  -7   3   3    0.09    0.04
   7   3  -3    0.10    0.05
   7   3  -3    0.12    0.03
  -7   3   3    0.09    0.04
  -7   3   3    0.10    0.04
   7   3  -3    0.12    0.05
  -7   3   3    0.13    0.04
  -7   3   3    0.08    0.02
   7   3  -3    0.07    0.03
  -6  -3   3    4.43    0.37
  -6  -3   3    4.96    0.37
   6  -3  -3    4.60    0.36
  -6   3   3    4.61    0.34
   6   3  -3    4.94    0.33
  -6   3   3    4.40    0.33
   6   3  -3    4.45    0.36
  -6   3   3    4.96    0.35
   6   3  -3    4.34    0.35
  -6   3   3    4.89    0.36
  -6   3   3    4.94    0.34
   6   3  -3    5.39    0.37
  -6   3   3    5.06    0.36
   5  -3  -3   16.60    1.18
  -5  -3   3   13.61    1.18
  -5  -3   3   17.94    1.16
  -5   3   3   14.76    1.07
   5   3  -3   17.02    1.18
   5   3  -3   15.33    1.12
  -5   3   3   15.59    1.11
  -5   3   3   16.20    1.11
  -5   3   3   14.81    1.17
   5   3  -3   17.15    1.07
   5   3  -3   14.54    1.18
  -5   3   3   16.77    1.14
  -4  -3   3   42.54    2.75
   4  -3  -3   40.16    2.80
   4   3  -3   34.16    2.81
  -4   3   3   39.85    2.71
   4   3  -3   37.77    2.55
  -4   3   3   34.43    2.80
  -4   3   3   34.05    2.55
   4   3  -3   41.60    2.80
  -4   3   3   39.17    2.64
   4   3  -3   35.70    2.65
  -3  -3   3   22.16    1.57
   3  -3  -3   21.71    1.59
   3   3  -3   23.02    1.60
  -3   3   3   20.93    1.50
  -3   3   3   21.36    1.54
   3   3  -3   20.34    1.46
   2  -3  -3   51.52    3.99
   2   3  -3   53.88    3.65
  -2   3   3   53.79    3.87
   2   3  -3   57.76    4.00
   1  -3  -3   72.95    5.25
  -1  -3   3   72.41    5.26
   1   3  -3   65.72    4.80
  -1   3   3   74.38    5.09
   0  -3   3   84.24    5.84
   0   3   3   84.86    5.66
   0   3   3   73.28    5.84
   0   3  -3   74.96    5.33
   1  -3   3    4.86    0.35
  -1   3  -3    4.48    0.32
   1   3   3    4.40    0.34
   1   3   3    4.67    0.33
   2  -3   3    3.81    0.29
   2   3   3    4.27    0.28
  -2   3  -3    3.52    0.28
  -2   3  -3    3.37    0.26
   2   3   3    3.93    0.29
   3  -3   3    0.54    0.06
  -3  -3  -3    0.42    0.06
   3   3   3    0.49    0.05
  -3   3  -3    0.51    0.05
  -3   3  -3    0.52    0.06
   3   3   3    0.48    0.05
   3   3   3    0.42    0.04
   3   3   3    0.52    0.05
   3   3   3    0.48    0.05
  -4  -3  -3    2.38    0.19
   4  -3   3    2.75    0.20
   4   3   3    2.67    0.19
  -4   3  -3    2.39    0.19
  -4   3  -3    2.47    0.18
   4   3   3    2.30    0.17
   4   3   3    2.24    0.18
   4   3   3    2.48    0.18
   4   3   3    2.24    0.19
  -4   3  -3    2.49    0.17
  -5  -3  -3    0.77    0.08
   5  -3   3    1.02    0.09
   5   3   3    0.75    0.06
   5   3   3    0.80    0.08
   5   3   3    0.84    0.07
  -5   3  -3    0.65    0.08
   5   3   3    0.82    0.07
   5   3   3    0.58    0.07
   5   3   3    0.73    0.07
   5   3   3    0.77    0.07
  -5   3  -3    0.66    0.07
  -6  -3  -3    3.63    0.30
   6  -3   3    4.35    0.31
  -6   3  -3    4.33    0.28
   6   3   3    3.78    0.30
   6   3   3    3.96    0.27
   6   3   3    3.98    0.30
  -6   3  -3    3.98    0.29
   6   3   3    3.42    0.28
  -6   3  -3    3.94    0.31
   6   3   3    3.93    0.31
   6   3   3    4.08    0.29
   7  -3   3    9.91    0.72
  -7  -3  -3    8.94    0.71
  -7   3  -3    9.45    0.68
  -7   3  -3    9.71    0.72
   7   3   3    9.72    0.71
   7   3   3    9.38    0.72
   7   3   3    9.03    0.67
  -7   3  -3    9.61    0.71
   7   3   3    9.34    0.63
   7   3   3    9.31    0.69
   7   3   3    9.74    0.68
  -7   3  -3    9.89    0.65
   8  -3   3    6.01    0.45
  -8  -3  -3    5.51    0.45
   8  -3   3    4.84    0.45
  -8   3  -3    5.89    0.45
   8   3   3    5.59    0.45
   8   3   3    5.56    0.42
   8   3   3    5.96    0.43
  -8   3  -3    6.29    0.45
  -8   3  -3    6.38    0.41
   8   3   3    5.98    0.41
   8   3   3    5.38    0.39
   8   3   3    6.30    0.45
  -8   3  -3    5.90    0.42
   9  -3   3    1.73    0.19
  -9  -3  -3    1.98    0.18
   9  -3   3    1.81    0.18
   9   3   3    2.24    0.17
   9   3   3    2.30    0.18
   9   3   3    2.26    0.16
  -9   3  -3    2.04    0.19
  -9   3  -3    1.97    0.16
  -9   3  -3    2.05    0.16
  -9   3  -3    1.76    0.18
   9   3   3    2.13    0.19
   9   3   3    2.35    0.18
  10  -3   3    3.33    0.29
  10  -3   3    3.32    0.30
 -10   3  -3    4.22    0.30
 -10   3  -3    3.06    0.29
  10   3   3    3.00    0.29
  10   3   3    3.97    0.29
  10   3   3    3.80    0.29
 -10   3  -3    3.89    0.27
 -10   3  -3    3.89    0.27
  10   3   3    3.79    0.26
  11  -3   3    0.01    0.07
  11   3   3    0.08    0.07
  11   3   3    0.05    0.06
 -11   3  -3   -0.01    0.04
  11   3   3    0.03    0.05
 -11   3  -3    0.00    0.07
 -11   3  -3   -0.01    0.04
  12  -3   3    0.30    0.08
 -12   3  -3    0.38    0.06
  12   3   3    0.42    0.06
 -12   3  -3    0.29    0.06
  12   3   3    0.37    0.08
  12   3   3    0.25    0.06
 -12   3  -3    0.47    0.07
 -13   3  -3    0.06    0.04
 -12  -4   3    0.19    0.05
  12   4  -3    0.33    0.05
  12   4  -3    0.25    0.06
 -12   4   3    0.17    0.05
 -12   4   3    0.30    0.04
 -11  -4   3    0.37    0.08
  11   4  -3    0.44    0.09
  11   4  -3    0.51    0.07
  11   4  -3    0.54    0.08
 -11   4   3    0.60    0.07
 -11   4   3    0.39    0.07
 -10  -4   3    0.04    0.05
 -10   4   3    0.06    0.05
  10   4  -3    0.06    0.07
 -10   4   3    0.02    0.04
  10   4  -3    0.03    0.04
  10   4  -3    0.02    0.05
  -9  -4   3    0.95    0.13
  -9  -4   3    0.72    0.12
   9   4  -3    1.13    0.10
  -9   4   3    0.93    0.12
  -9   4   3    0.90    0.11
   9   4  -3    0.79    0.11
   9   4  -3    0.97    0.13
  -9   4   3    1.03    0.09
  -9   4   3    0.89    0.12
   9   4  -3    1.13    0.13
  -8  -4   3   11.83    0.97
  -8  -4   3   12.60    0.98
  -8   4   3   13.99    0.91
  -8   4   3   11.67    0.88
   8   4  -3   12.53    0.92
   8   4  -3   13.63    0.89
   8   4  -3   14.40    0.98
   8   4  -3   12.46    0.98
  -8   4   3   14.08    0.92
  -8   4   3   12.42    0.96
  -8   4   3   12.63    0.94
  -7  -4   3    4.24    0.38
  -7  -4   3    4.37    0.38
  -7   4   3    5.15    0.35
  -7   4   3    4.89    0.37
   7   4  -3    5.07    0.34
  -7   4   3    5.07    0.35
   7   4  -3    4.73    0.38
   7   4  -3    5.11    0.38
   7   4  -3    4.73    0.36
  -7   4   3    5.25    0.37
  -7   4   3    4.64    0.34
  -7   4   3    4.85    0.37
   6  -4  -3    1.49    0.15
  -6  -4   3    1.72    0.17
  -6  -4   3    1.57    0.15
  -6   4   3    1.88    0.14
  -6   4   3    1.65    0.13
   6   4  -3    1.84    0.15
  -6   4   3    1.77    0.14
   6   4  -3    1.73    0.16
  -6   4   3    1.81    0.15
   6   4  -3    1.87    0.16
  -6   4   3    1.76    0.15
   6   4  -3    1.93    0.14
  -5  -4   3   23.42    1.73
   5  -4  -3   23.11    1.75
   5   4  -3   23.15    1.76
  -5   4   3   24.58    1.65
  -5   4   3   22.82    1.66
   5   4  -3   25.61    1.76
  -5   4   3   20.68    1.60
  -5   4   3   26.15    1.70
   5   4  -3   25.15    1.60
   5   4  -3   22.82    1.66
  -5   4   3   23.21    1.75
   4  -4  -3    0.03    0.03
  -4   4   3    0.05    0.02
   4   4  -3    0.04    0.02
  -4   4   3    0.05    0.02
  -4   4   3   -0.01    0.02
  -4   4   3    0.08    0.03
   4   4  -3    0.06    0.04
  -4   4   3    0.05    0.02
   4   4  -3    0.15    0.04
   4   4  -3    0.10    0.04
   3  -4  -3   99.54    7.32
  -3   4   3   91.78    6.92
   3   4  -3  108.80    7.32
   3   4  -3   99.98    7.34
   3   4  -3   86.28    6.93
  -3   4   3  107.47    6.92
   3   4  -3  102.63    6.68
  -3   4   3   89.13    7.34
  -3   4   3  109.25    7.09
   2  -4  -3    8.24    0.66
   2   4  -3    8.28    0.63
   2   4  -3    8.36    0.64
   2   4  -3    8.17    0.60
  -2   4   3    9.90    0.64
  -2   4   3   10.18    0.62
   2   4  -3    8.84    0.66
   1  -4  -3   57.31    4.38
   1   4  -3   59.62    4.00
  -1   4   3   65.32    4.24
  -1   4   3   64.23    4.14
   1   4  -3   54.67    4.24
   1   4  -3   57.95    4.39
   1   4  -3   56.85    4.15
   0  -4   3   69.91    4.98
   0   4   3   76.70    4.82
   0   4   3   61.56    4.97
   0   4  -3   70.96    4.71
   0   4   3   69.79    4.70
   0   4  -3   62.70    4.82
   0   4  -3   68.46    4.54
   0   4  -3   66.25    4.99
   0   4   3   61.62    4.54
   1  -4   3   30.54    1.99
   1   4   3   22.57    1.80
  -1   4  -3   26.35    1.99
   1   4   3   28.68    1.87
   1   4   3   30.67    1.92
  -1   4  -3   27.13    1.81
   1   4   3   25.99    1.98
  -1   4  -3   26.28    1.92
   1   4   3   23.96    1.98
  -1   4  -3   26.21    1.88
   2  -4   3   10.13    0.67
   2   4   3    9.15    0.63
   2   4   3    8.90    0.67
   2   4   3    9.96    0.65
  -2   4  -3    9.25    0.63
   2   4   3    7.98    0.63
  -2   4  -3    8.74    0.65
  -2   4  -3    9.36    0.61
  -2   4  -3    8.94    0.67
   2   4   3    7.96    0.61
   2   4   3    8.03    0.66
   3  -4   3   13.07    0.92
  -3   4  -3   12.51    0.92
   3   4   3   12.38    0.92
   3   4   3   12.65    0.92
  -3   4  -3   11.67    0.89
   3   4   3   13.87    0.86
   3   4   3   11.24    0.84
  -3   4  -3   12.48    0.84
   3   4   3   12.27    0.87
  -3   4  -3   11.28    0.87
   4  -4   3   20.32    1.38
   4   4   3   19.32    1.33
   4   4   3   17.59    1.30
   4   4   3   17.71    1.30
  -4   4  -3   17.66    1.38
   4   4   3   17.77    1.38
   4   4   3   18.88    1.38
  -4   4  -3   19.49    1.26
  -4   4  -3   19.61    1.30
   4   4   3   17.42    1.25
   5  -4   3    1.81    0.15
   5   4   3    1.63    0.14
   5   4   3    1.62    0.13
   5   4   3    1.64    0.14
  -5   4  -3    1.78    0.13
   5   4   3    1.54    0.14
   5   4   3    1.54    0.13
  -5   4  -3    1.86    0.13
   5   4   3    1.61    0.13
  -5   4  -3    1.63    0.14
   6  -4   3    1.30    0.14
   6   4   3    1.46    0.12
   6   4   3    1.40    0.13
   6   4   3    1.61    0.12
   6   4   3    1.60    0.13
   6   4   3    1.40    0.12
  -6   4  -3    1.54    0.12
   6   4   3    1.46    0.12
  -6   4  -3    1.37    0.14
   6   4   3    1.33    0.13
  -6   4  -3    1.67    0.13
   7  -4   3   12.47    0.92
  -7   4  -3   12.42    0.92
  -7   4  -3   12.11    0.87
   7   4   3   11.81    0.86
   7   4   3   13.66    0.87
   7   4   3   12.00    0.81
   7   4   3   12.01    0.83
   7   4   3   11.06    0.89
   7   4   3   12.25    0.91
   7   4   3   11.13    0.92
  -7   4  -3   13.36    0.84
   8  -4   3    3.39    0.30
  -8   4  -3    3.58    0.28
   8   4   3    4.00    0.28
   8   4   3    3.24    0.29
   8   4   3    3.50    0.27
   8   4   3    3.52    0.26
   8   4   3    3.92    0.28
  -8   4  -3    3.59    0.27
  -8   4  -3    3.36    0.29
  -8   4  -3    3.85    0.29
   8   4   3    3.72    0.26
   9  -4   3    3.35    0.29
  -9   4  -3    3.68    0.27
   9   4   3    3.75    0.26
   9   4   3    4.13    0.29
  -9   4  -3    3.87    0.30
   9   4   3    3.88    0.27
  -9   4  -3    3.26    0.30
   9   4   3    3.07    0.30
  -9   4  -3    3.86    0.28
   9   4   3    3.87    0.29
   9   4   3    3.28    0.27
  10   4   3    5.86    0.44
 -10   4  -3    6.34    0.44
  10   4   3    6.89    0.47
  10   4   3    6.76    0.48
 -10   4  -3    6.16    0.48
 -10   4  -3    6.76    0.46
  10   4   3    5.32    0.43
  11   4   3    1.64    0.14
 -11   4  -3    1.87    0.15
 -11   4  -3    1.77    0.15
 -11   4  -3    1.76    0.15
  11   4   3    1.71    0.14
  11   4   3    1.84    0.15
  12  -4   3    0.63    0.09
 -12   4  -3    0.88    0.08
 -12   4  -3    0.88    0.09
  12   4   3    0.99    0.09
 -11  -5   3    0.19    0.07
  11   5  -3    0.16    0.05
  11   5  -3    0.14    0.04
 -11   5   3    0.10    0.03
 -11   5   3    0.11    0.04
 -10  -5   3    0.05    0.07
 -10   5   3    0.04    0.05
  10   5  -3   -0.06    0.07
 -10   5   3    0.08    0.05
  10   5  -3    0.00    0.04
  10   5  -3    0.09    0.07
  -9  -5   3    1.77    0.19
   9   5  -3    1.88    0.17
  -9   5   3    2.02    0.16
  -9   5   3    1.66    0.15
   9   5  -3    1.96    0.17
   9   5  -3    2.11    0.15
  -8  -5   3    6.49    0.59
  -8   5   3    7.99    0.55
  -8   5   3    8.12    0.55
  -8   5   3    6.63    0.57
   8   5  -3    7.88    0.56
   8   5  -3    8.15    0.53
   8   5  -3    8.36    0.59
   8   5  -3    7.26    0.59
   7   5  -3    1.81    0.16
  -7   5   3    1.98    0.15
  -7   5   3    1.83    0.17
  -7   5   3    1.74    0.16
   7   5  -3    2.05    0.16
  -7   5   3    1.80    0.15
   7   5  -3    1.88    0.17
   7   5  -3    2.03    0.17
  -6   5   3    1.76    0.15
   6   5  -3    1.72    0.16
  -6   5   3    1.72    0.14
   6   5  -3    1.81    0.14
  -6   5   3    1.53    0.15
  -6   5   3    1.85    0.14
   6   5  -3    2.05    0.17
   6   5  -3    1.70    0.17
   5   5  -3    0.18    0.06
   5   5  -3    0.14    0.05
  -5   5   3    0.14    0.04
  -5   5   3    0.12    0.04
   5   5  -3    0.16    0.05
   5   5  -3    0.12    0.05
  -5   5   3    0.22    0.05
   4   5  -3    0.41    0.07
  -4   5   3    0.50    0.06
   4   5  -3    0.32    0.06
  -4   5   3    0.39    0.05
  -4   5   3    0.50    0.06
   4   5  -3    0.28    0.05
   4   5  -3    0.37    0.06
   3   5  -3    7.17    0.58
   3   5  -3    8.08    0.61
  -3   5   3    8.73    0.57
  -3   5   3    8.79    0.59
   3   5  -3    8.45    0.61
   3   5  -3    7.81    0.56
  -3   5   3    7.41    0.57
  -2   5   3    4.65    0.32
   2   5  -3    4.36    0.34
   2   5  -3    4.29    0.35
  -2   5   3    4.83    0.33
  -2   5   3    4.40    0.32
   2   5  -3    4.42    0.33
   2   5  -3    4.17    0.31
  -1   5   3    0.33    0.04
   1   5  -3    0.35    0.05
   1   5  -3    0.37    0.05
  -1   5   3    0.42    0.05
   1   5  -3    0.30    0.05
   1   5  -3    0.32    0.05
  -1   5   3    0.38    0.05
   1   5  -3    0.46    0.06
   1   5  -3    0.60    0.07
   0  -5   3    8.50    0.57
   0   5  -3    7.34    0.53
   0   5  -3    6.75    0.53
   0   5  -3    7.82    0.57
   0   5   3    6.95    0.53
   0   5   3    7.94    0.54
   0   5  -3    7.14    0.55
   0   5  -3    7.57    0.51
   1  -5   3    6.78    0.49
   1   5   3    6.53    0.45
  -1   5  -3    6.47    0.49
  -1   5  -3    5.57    0.47
  -1   5  -3    5.79    0.46
  -1   5  -3    6.72    0.44
   1   5   3    6.99    0.47
   1   5   3    5.76    0.46
  -1   5  -3    7.45    0.46
   2  -5   3    0.07    0.04
  -2   5  -3    0.08    0.03
   2   5   3    0.02    0.03
   2   5   3   -0.01    0.02
  -2   5  -3    0.10    0.03
   2   5   3    0.08    0.03
   2   5   3    0.06    0.02
  -2   5  -3    0.05    0.03
  -2   5  -3    0.03    0.03
  -2   5  -3   -0.02    0.04
   3  -5   3    5.74    0.43
  -3   5  -3    5.74    0.42
  -3   5  -3    5.60    0.39
   3   5   3    5.16    0.40
   3   5   3    4.80    0.42
   3   5   3    5.93    0.39
   3   5   3    5.14    0.41
  -3   5  -3    5.95    0.40
  -3   5  -3    5.28    0.39
   3   5   3    5.92    0.41
   4  -5   3    0.68    0.09
   4   5   3    0.71    0.07
   4   5   3    0.64    0.08
  -4   5  -3    0.58    0.07
  -4   5  -3    0.80    0.08
   4   5   3    0.66    0.08
   4   5   3    0.73    0.07
  -4   5  -3    0.82    0.08
   4   5   3    0.58    0.07
   4   5   3    0.80    0.08
   5  -5   3    0.11    0.05
  -5   5  -3    0.16    0.05
   5   5   3    0.17    0.04
   5   5   3    0.16    0.04
   5   5   3    0.12    0.03
   5   5   3    0.11    0.03
   5   5   3    0.05    0.04
   5   5   3    0.16    0.04
  -5   5  -3    0.13    0.05
  -5   5  -3    0.11    0.04
   6  -5   3    2.51    0.21
   6   5   3    2.48    0.19
   6   5   3    1.96    0.19
  -6   5  -3    2.52    0.20
   6   5   3    2.51    0.20
   6   5   3    2.23    0.18
  -6   5  -3    2.68    0.20
   6   5   3    2.23    0.18
   6   5   3    2.77    0.18
   6   5   3    2.17    0.20
  -6   5  -3    2.84    0.19
   7  -5   3   -0.02    0.05
   7   5   3    0.04    0.04
   7   5   3    0.06    0.04
  -7   5  -3    0.01    0.04
  -7   5  -3    0.03    0.04
   7   5   3    0.05    0.04
  -7   5  -3   -0.01    0.05
   7   5   3    0.07    0.05
   7   5   3   -0.02    0.05
   7   5   3    0.15    0.05
   7   5   3    0.07    0.05
   8  -5   3    1.44    0.16
   8   5   3    1.72    0.14
   8   5   3    1.78    0.15
   8   5   3    1.78    0.15
  -8   5  -3    1.51    0.16
   8   5   3    1.67    0.15
   8   5   3    1.43    0.14
  -8   5  -3    1.96    0.16
  -8   5  -3    1.80    0.15
  -8   5  -3    2.00    0.16
  -9   5  -3    0.01    0.05
   9   5   3    0.02    0.07
  -9   5  -3    0.02    0.05
   9   5   3    0.03    0.05
   9   5   3    0.03    0.06
   9   5   3    0.00    0.06
  -9   5  -3    0.03    0.04
   9   5   3   -0.01    0.03
  10   5   3    0.29    0.07
 -10   5  -3    0.25    0.05
  10   5   3    0.39    0.08
  10   5   3    0.18    0.06
  10   5   3    0.36    0.06
 -10   5  -3    0.26    0.06
 -11   5  -3    0.43    0.06
  11   5   3    0.35    0.07
  11   5   3    0.40    0.06
 -11   5  -3    0.31    0.05
 -10  -6   3   -0.02    0.04
  10   6  -3    0.11    0.04
 -10   6   3    0.04    0.03
 -10   6   3    0.01    0.03
  10   6  -3    0.16    0.07
   9   6  -3    1.01    0.10
  -9   6   3    0.87    0.08
  -9   6   3    0.94    0.09
   9   6  -3    1.07    0.11
   9   6  -3    1.09    0.11
  -8   6   3    0.70    0.07
   8   6  -3    0.82    0.10
  -8   6   3    0.61    0.08
   8   6  -3    0.60    0.09
  -8   6   3    0.55    0.09
   8   6  -3    0.72    0.09
   7   6  -3    1.37    0.13
   7   6  -3    0.99    0.11
  -7   6   3    1.07    0.10
   7   6  -3    1.14    0.12
  -7   6   3    1.04    0.09
   7   6  -3    0.81    0.11
  -7   6   3    1.06    0.12
   6   6  -3    7.43    0.52
  -6   6   3    6.88    0.52
   6   6  -3    7.61    0.54
  -6   6   3    6.78    0.50
   6   6  -3    5.89    0.54
  -6   6   3    7.74    0.50
   6   6  -3    6.86    0.49
  -5   6   3    1.46    0.12
  -5   6   3    1.46    0.13
   5   6  -3    1.18    0.12
  -5   6   3    1.24    0.12
   5   6  -3    1.35    0.14
   5   6  -3    1.29    0.14
   5   6  -3    1.23    0.14
   4   6  -3   14.00    0.97
  -4   6   3   14.21    0.94
  -4   6   3   12.82    0.91
   4   6  -3   11.32    0.92
  -4   6   3   13.48    0.91
   4   6  -3   13.46    0.89
   4   6  -3   11.52    0.97
  -3   6   3    5.03    0.35
   3   6  -3    4.43    0.33
  -3   6   3    4.98    0.33
   3   6  -3    4.22    0.36
  -3   6   3    3.94    0.33
   3   6  -3    4.36    0.35
   3   6  -3    5.05    0.36
   2   6  -3   21.79    1.68
  -2   6   3   25.82    1.67
  -2   6   3   22.19    1.67
   2   6  -3   22.80    1.67
  -2   6   3   26.20    1.72
   2   6  -3   24.88    1.62
   2   6  -3   22.71    1.78
   2   6  -3   24.72    1.78
   1   6  -3    1.57    0.13
   1   6  -3    1.51    0.16
   1   6  -3    1.73    0.15
  -1   6   3    1.43    0.13
  -1   6   3    1.97    0.14
   1   6  -3    1.85    0.15
   0   6  -3    7.35    0.53
   0   6   3    8.15    0.54
   0   6  -3    6.27    0.56
   0   6   3    7.90    0.52
   0   6  -3    6.59    0.52
   0   6  -3    7.46    0.56
   0   6   3    7.26    0.52
   0   6  -3    7.56    0.51
   1  -6   3    9.92    0.75
  -1   6  -3   10.58    0.75
   1   6   3    8.37    0.70
  -1   6  -3   10.18    0.68
  -1   6  -3    9.45    0.70
   1   6   3   10.53    0.72
  -1   6  -3   10.18    0.71
   1   6   3   10.50    0.70
   2  -6   3    0.20    0.06
   2   6   3    0.17    0.04
  -2   6  -3    0.28    0.05
   2   6   3    0.18    0.04
  -2   6  -3    0.32    0.05
  -2   6  -3    0.27    0.06
  -2   6  -3    0.18    0.05
   2   6   3    0.09    0.04
   3  -6   3    5.09    0.40
  -3   6  -3    5.78    0.38
  -3   6  -3    4.44    0.37
   3   6   3    4.93    0.37
  -3   6  -3    5.82    0.36
   3   6   3    4.58    0.38
   3   6   3    4.77    0.37
  -3   6  -3    5.68    0.40
   4  -6   3    0.73    0.10
   4   6   3    0.88    0.09
  -4   6  -3    0.95    0.10
  -4   6  -3    0.70    0.10
   4   6   3    0.81    0.10
  -4   6  -3    0.95    0.08
   4   6   3    0.95    0.09
  -4   6  -3    0.89    0.10
   5  -6   3    3.05    0.27
  -5   6  -3    2.87    0.25
  -5   6  -3    3.98    0.26
  -5   6  -3    3.84    0.25
  -5   6  -3    3.73    0.27
   5   6   3    2.86    0.26
   5   6   3    3.24    0.25
   5   6   3    3.31    0.25
   6  -6   3    3.00    0.27
   6   6   3    3.50    0.25
  -6   6  -3    3.47    0.26
   6   6   3    3.59    0.24
  -6   6  -3    2.68    0.25
   6   6   3    3.44    0.26
  -6   6  -3    3.76    0.25
  -6   6  -3    3.56    0.25
   6   6   3    2.74    0.26
   7   6   3    0.23    0.05
  -7   6  -3    0.26    0.07
   7   6   3    0.35    0.07
  -7   6  -3    0.20    0.05
  -7   6  -3    0.22    0.06
   7   6   3    0.22    0.05
  -8   6  -3    0.66    0.09
   8   6   3    0.49    0.08
   8   6   3    0.57    0.08
  -8   6  -3    0.64    0.08
  -8   6  -3    0.58    0.07
   8   6   3    0.64    0.08
  -9   6  -3    0.02    0.03
   9   6   3    0.11    0.04
   9   6   3    0.03    0.06
  -9   6  -3   -0.04    0.06
  -9   6  -3    0.01    0.05
   9   6   3    0.02    0.06
  10   6   3   -0.03    0.04
 -10   6  -3    0.02    0.04
  10   6   3    0.00    0.04
  -9   7   3    0.04    0.02
  -8   7   3    0.25    0.03
   8   7  -3    0.16    0.04
   8   7  -3    0.31    0.06
   7   7  -3    0.01    0.05
  -7   7   3    0.02    0.06
   7   7  -3    0.00    0.04
  -7   7   3   -0.01    0.03
   7   7  -3    0.02    0.07
   6   7  -3    3.62    0.27
   6   7  -3    3.36    0.26
   6   7  -3    3.60    0.24
  -6   7   3    2.86    0.26
  -6   7   3    3.21    0.24
   5   7  -3    1.15    0.11
   5   7  -3    1.08    0.10
   5   7  -3    1.02    0.09
  -5   7   3    0.88    0.09
  -5   7   3    0.99    0.09
  -5   7   3    1.04    0.11
   4   7  -3    1.32    0.13
   4   7  -3    1.63    0.13
  -4   7   3    1.33    0.11
  -4   7   3    1.32    0.12
  -4   7   3    1.36    0.12
   4   7  -3    1.27    0.14
   4   7  -3    1.62    0.15
  -3   7   3    2.68    0.19
   3   7  -3    2.44    0.21
  -3   7   3    2.69    0.21
   3   7  -3    2.16    0.22
   3   7  -3    2.94    0.21
   3   7  -3    2.51    0.20
   3   7  -3    2.35    0.19
  -3   7   3    2.45    0.19
   2   7  -3    0.10    0.05
   2   7  -3    0.09    0.05
   2   7  -3    0.16    0.05
   2   7  -3    0.15    0.06
  -2   7   3    0.09    0.03
  -2   7   3    0.21    0.06
   2   7  -3    0.13    0.05
  -1   7   3    0.58    0.08
   1   7  -3    0.63    0.09
   1   7  -3    0.51    0.08
  -1   7   3    0.60    0.07
   1   7  -3    0.62    0.08
   1   7  -3    0.65    0.09
  -1   7   3    0.47    0.07
   1   7  -3    0.57    0.08
   0   7  -3    0.29    0.06
   0   7  -3    0.23    0.06
   0   7   3    0.21    0.05
   0   7  -3    0.46    0.06
   0   7  -3    0.23    0.05
   0   7   3    0.25    0.06
   0   7   3    0.22    0.04
   0   7  -3    0.21    0.06
  -1   7  -3    1.91    0.15
  -1   7  -3    1.55    0.14
   1   7   3    1.51    0.14
   1   7   3    1.81    0.14
  -1   7  -3    2.10    0.16
  -1   7  -3    1.31    0.15
   1   7   3    1.60    0.15
  -1   7  -3    1.89    0.14
   2   7   3    0.03    0.04
   2   7   3    0.12    0.04
   2   7   3    0.05    0.04
  -2   7  -3    0.08    0.05
  -2   7  -3    0.05    0.05
  -2   7  -3    0.06    0.05
  -2   7  -3    0.06    0.04
   3  -7   3    0.00    0.04
  -3   7  -3    0.04    0.05
   3   7   3    0.03    0.04
  -3   7  -3    0.04    0.04
   3   7   3    0.08    0.05
   3   7   3    0.04    0.03
  -3   7  -3   -0.05    0.05
  -3   7  -3    0.04    0.04
  -4   7  -3    0.14    0.05
   4   7   3    0.10    0.05
  -4   7  -3    0.18    0.05
   4   7   3    0.15    0.04
   4   7   3    0.12    0.04
  -4   7  -3    0.07    0.05
  -4   7  -3    0.19    0.05
   5   7   3    0.06    0.05
  -5   7  -3    0.05    0.04
   5   7   3    0.09    0.05
   5   7   3    0.12    0.05
  -5   7  -3    0.05    0.06
  -5   7  -3    0.05    0.05
   5   7   3    0.12    0.06
  -5   7  -3    0.05    0.04
   6   7   3    0.09    0.06
   6   7   3    0.09    0.05
   6   7   3    0.12    0.05
  -6   7  -3    0.14    0.06
  -6   7  -3    0.13    0.05
  -6   7  -3    0.09    0.05
  -6   7  -3    0.13    0.03
   7   7   3    0.07    0.04
  -7   7  -3   -0.06    0.05
   7   7   3    0.09    0.04
  -7   7  -3    0.09    0.04
  -7   7  -3    0.01    0.04
   7   7   3    0.02    0.04
  -8   7  -3    0.05    0.04
   8   7   3    0.06    0.05
   8   7   3   -0.04    0.05
   8   7   3    0.01    0.04
  -8   7  -3    0.08    0.04
   9   7   3    0.45    0.05
   6   8  -3   -0.01    0.04
   5   8  -3    0.22    0.04
   5   8  -3    0.27    0.06
  -5   8   3    0.20    0.06
  -5   8   3    0.25    0.04
   5   8  -3    0.18    0.06
   4   8  -3    0.40    0.08
   4   8  -3    0.37    0.05
  -4   8   3    0.30    0.07
   4   8  -3    0.24    0.05
  -4   8   3    0.36    0.05
   3   8  -3    0.99    0.11
  -3   8   3    0.63    0.10
   3   8  -3    0.79    0.08
  -3   8   3    0.84    0.07
   3   8  -3    0.70    0.08
   2   8  -3    0.16    0.05
   2   8  -3    0.10    0.04
   2   8  -3    0.05    0.05
  -2   8   3    0.12    0.03
  -2   8   3    0.10    0.04
   1   8  -3    1.13    0.11
  -1   8   3    1.02    0.11
   1   8  -3    1.09    0.11
   1   8  -3    1.11    0.11
  -1   8   3    1.13    0.09
   0   8   3    0.86    0.10
   0   8   3    0.91    0.08
   0   8  -3    0.82    0.09
   0   8  -3    1.01    0.11
   0   8  -3    0.95    0.08
   1   8   3    2.27    0.19
   1   8   3    2.45    0.18
  -1   8  -3    2.36    0.19
   2   8   3    0.56    0.08
   2   8   3    0.63    0.07
  -2   8  -3    0.58    0.08
  -3   8  -3    0.97    0.09
   3   8   3    0.73    0.10
   3   8   3    0.90    0.08
   4   8   3    0.10    0.03
  -4   8  -3    0.11    0.06
  -4   8  -3    0.12    0.05
  -5   8  -3    1.27    0.11
   5   8   3    1.23    0.10
  -5   8  -3    1.03    0.10
   5   8   3    1.08    0.09
   6   8   3    0.00    0.03
  -6   8  -3   -0.01    0.03
  -6   8  -3    0.00    0.04
   6   8   3    0.07    0.04
   7   8   3    0.49    0.05
  -2   9   3    0.84    0.06
   2   9  -3    0.87    0.08
   1   9  -3    0.92    0.09
  -1   9   3    1.00    0.07
   0   9  -3    1.31    0.11
   0   9   3    1.49    0.10
  -1   9  -3    1.06    0.09
   1   9   3    1.18    0.09
   2   9   3    1.60    0.11
  -2   9  -3    1.34    0.12
   3   9   3    0.74    0.06
  -3   9  -3    0.65    0.06
   3   9   3    0.56    0.06
 -13   0   4    2.16    0.17
  13   0  -4    1.87    0.16
 -12   0   4    4.82    0.38
  11   0  -4    2.13    0.19
 -11   0   4    2.10    0.17
 -11   0   4    2.07    0.20
 -10   0   4    1.66    0.17
 -10   0   4    1.89    0.17
  10   0  -4    1.81    0.17
 -10   0   4    1.81    0.14
  -9   0   4   12.72    0.87
  -9   0   4   13.44    0.96
   9   0  -4   12.54    0.96
  -9   0   4   12.36    0.95
  -8   0   4    1.54    0.13
   8   0  -4    1.70    0.15
  -8   0   4    1.75    0.14
  -8   0   4    1.64    0.14
  -8   0   4    1.69    0.13
  -7   0   4    1.29    0.11
   7   0  -4    1.64    0.13
  -7   0   4    1.60    0.13
  -7   0   4    1.50    0.12
  -7   0   4    1.40    0.12
  -7   0   4    1.44    0.11
  -6   0   4   11.67    0.91
  -6   0   4   12.80    0.90
  -6   0   4   11.47    0.88
  -6   0   4   12.35    0.83
   6   0  -4   12.97    0.91
  -5   0   4   15.85    1.19
  -5   0   4   19.06    1.29
   5   0  -4   18.01    1.31
  -5   0   4   17.97    1.27
  -4   0   4   70.05    5.04
  -4   0   4   68.46    4.98
   4   0  -4   70.78    5.14
  -3   0   4    0.44    0.04
   3   0  -4    0.36    0.04
  -2   0   4  551.88   39.30
   2   0  -4  538.46   40.10
  -1   0   4  812.92   55.95
   1   0  -4  739.52   57.08
   0   0   4   73.31    5.48
   2   0   4  301.29   22.16
   3   0   4    0.56    0.05
  -3   0  -4    0.58    0.05
   4   0   4   12.48    0.90
   4   0   4   12.35    0.87
  -4   0  -4   12.69    0.88
  -4   0  -4   10.93    0.82
   5   0   4   58.13    4.07
  -5   0  -4   60.80    3.99
  -5   0  -4   52.83    3.71
   5   0   4   47.45    4.08
   5   0   4   56.71    3.94
   6   0   4  118.68    9.62
  -6   0  -4  129.05    8.75
   6   0   4  127.96    9.07
   6   0   4  121.66    9.29
   6   0   4  144.19    9.59
  -6   0  -4  145.92    9.40
   6   0   4  124.37    8.51
  -7   0  -4    0.61    0.07
   7   0   4    0.73    0.08
   7   0   4    0.59    0.07
  -7   0  -4    0.62    0.07
   7   0   4    0.58    0.06
   7   0   4    0.71    0.07
   8   0   4   11.59    0.83
   8   0   4   11.83    0.88
  -8   0  -4    9.97    0.88
  -8   0  -4   12.03    0.80
   8   0   4   12.25    0.88
  -8   0  -4   12.69    0.87
   9   0   4    0.62    0.09
  -9   0  -4    0.51    0.08
  -9   0  -4    0.45    0.07
   9   0   4    0.56    0.08
  -9   0  -4    0.59    0.06
   9   0   4    0.55    0.07
 -10   0  -4    2.91    0.22
 -10   0  -4    2.64    0.24
  10   0   4    3.23    0.25
 -10   0  -4    2.70    0.25
  10   0   4    2.81    0.25
  10   0   4    3.10    0.24
 -11   0  -4    1.17    0.13
 -11   0  -4    1.34    0.13
 -11   0  -4    1.47    0.15
  11   0   4    1.49    0.13
  11   0   4    1.23    0.14
  11   0   4    1.49    0.15
 -12   0  -4    0.30    0.05
 -12   0  -4    0.28    0.08
  12   0   4    0.34    0.06
 -13   0  -4    0.53    0.09
  13   0   4    0.72    0.08
 -13   0  -4    0.69    0.07
 -13  -1   4    0.09    0.06
  13  -1  -4    0.07    0.04
 -13   1   4    0.15    0.03
  13   1  -4    0.09    0.07
  13   1  -4    0.12    0.05
 -12  -1   4   12.42    0.84
  12   1  -4   11.34    0.76
  12   1  -4    9.38    0.83
 -12   1   4   10.35    0.76
 -12   1   4   11.73    0.83
  11  -1  -4    0.04    0.05
 -11  -1   4   -0.06    0.06
 -11  -1   4   -0.02    0.07
 -11   1   4    0.07    0.07
 -11   1   4    0.01    0.05
  11   1  -4    0.02    0.06
 -11   1   4    0.01    0.05
  11   1  -4    0.03    0.04
 -10  -1   4    4.46    0.38
  10  -1  -4    4.83    0.38
 -10  -1   4    5.20    0.39
 -10   1   4    5.48    0.38
 -10   1   4    5.37    0.35
 -10   1   4    4.15    0.36
 -10   1   4    4.78    0.38
  10   1  -4    4.87    0.39
  -9  -1   4    1.06    0.12
  -9  -1   4    0.87    0.12
  -9  -1   4    0.97    0.10
   9  -1  -4    1.01    0.11
   9   1  -4    1.10    0.12
  -9   1   4    1.13    0.11
  -9   1   4    1.00    0.09
  -9   1   4    1.32    0.11
  -9   1   4    1.29    0.11
  -8  -1   4   13.27    0.85
  -8  -1   4   12.83    0.92
  -8  -1   4   11.83    0.93
   8  -1  -4   13.21    0.93
  -8   1   4   11.32    0.87
  -8   1   4   12.09    0.84
   8   1  -4   13.03    0.93
  -8   1   4   12.36    0.91
  -8   1   4   11.54    0.90
  -8   1   4   12.60    0.93
  -7  -1   4    9.24    0.66
   7  -1  -4    9.82    0.67
  -7  -1   4    8.51    0.61
  -7  -1   4    9.14    0.67
  -7   1   4    8.87    0.67
  -7   1   4    8.21    0.61
  -7   1   4    8.69    0.65
   7   1  -4    7.82    0.63
  -7   1   4    8.59    0.63
  -7   1   4    9.35    0.66
   7   1  -4    9.78    0.67
  -6  -1   4    0.13    0.03
  -6  -1   4    0.14    0.03
  -6  -1   4    0.13    0.04
   6  -1  -4    0.09    0.03
  -6  -1   4    0.14    0.03
  -6   1   4    0.14    0.03
  -6   1   4    0.14    0.04
   6   1  -4    0.17    0.03
  -6   1   4    0.15    0.03
  -6   1   4    0.14    0.03
  -6   1   4    0.19    0.03
   5  -1  -4   10.95    0.73
  -5  -1   4    8.24    0.73
  -5  -1   4    9.99    0.72
  -5  -1   4    9.26    0.71
  -5  -1   4    9.50    0.66
   5   1  -4   10.22    0.73
  -5   1   4   10.72    0.71
  -5   1   4   10.18    0.70
  -5   1   4    9.69    0.66
  -5   1   4    8.97    0.73
  -4  -1   4    5.42    0.42
   4  -1  -4    6.30    0.46
  -4  -1   4    6.29    0.45
  -4  -1   4    6.34    0.45
  -4   1   4    6.35    0.44
  -4   1   4    6.32    0.45
   4   1  -4    6.04    0.46
  -3  -1   4    7.61    0.56
   3  -1  -4    7.75    0.57
  -3   1   4    7.80    0.55
  -3   1   4    7.77    0.56
   3   1  -4    7.36    0.57
   2  -1  -4   62.43    4.94
  -2  -1   4   71.96    4.85
  -2   1   4   67.15    4.85
   2   1  -4   67.34    4.95
  -1  -1   4   14.53    1.05
  -1  -1   4   13.62    1.03
   0  -1   4  103.31    7.60
   1  -1   4    8.56    0.59
   1   1   4    7.36    0.59
   2  -1   4   70.04    5.14
  -2  -1  -4   69.53    5.04
   2   1   4   70.02    5.14
  -3  -1  -4    9.69    0.72
   3  -1   4   10.15    0.74
   3   1   4   10.33    0.74
   3   1   4   10.18    0.71
  -3   1  -4    9.25    0.67
   4  -1   4    1.42    0.11
  -4  -1  -4    1.22    0.09
  -4  -1  -4    1.28    0.10
  -4   1  -4    1.23    0.09
   4   1   4    1.22    0.10
   4   1   4    1.17    0.10
   5  -1   4    0.32    0.04
  -5  -1  -4    0.31    0.04
   5  -1   4    0.30    0.04
  -5  -1  -4    0.31    0.04
   5   1   4    0.32    0.04
   5   1   4    0.30    0.04
  -5   1  -4    0.27    0.03
   5   1   4    0.44    0.05
   5   1   4    0.27    0.03
  -6  -1  -4   18.63    1.23
   6  -1   4   17.28    1.35
   6  -1   4   17.02    1.20
   6  -1   4   19.91    1.35
  -6  -1  -4   21.34    1.33
   6  -1   4   18.47    1.28
  -6   1  -4   15.83    1.35
   6   1   4   15.46    1.27
   6   1   4   18.32    1.31
   6   1   4   17.66    1.35
   6   1   4   19.34    1.35
   6   1   4   17.96    1.20
  -6   1  -4   19.06    1.23
   6   1   4   18.83    1.28
   7  -1   4   23.59    1.62
  -7  -1  -4   23.49    1.68
  -7  -1  -4   23.87    1.56
   7  -1   4   24.02    1.71
   7  -1   4   21.80    1.72
   7   1   4   22.66    1.52
  -7   1  -4   19.64    1.71
   7   1   4   24.05    1.72
  -7   1  -4   24.81    1.56
   7   1   4   22.23    1.62
  -7   1  -4   24.31    1.68
   7   1   4   22.94    1.71
   8  -1   4    0.58    0.08
  -8  -1  -4    0.36    0.06
  -8  -1  -4    0.44    0.07
   8  -1   4    0.51    0.06
   8  -1   4    0.44    0.06
   8   1   4    0.47    0.06
  -8   1  -4    0.44    0.06
   8   1   4    0.49    0.07
   8   1   4    0.40    0.05
  -8   1  -4    0.47    0.06
  -8   1  -4    0.36    0.05
   8   1   4    0.39    0.05
   9  -1   4    0.07    0.04
   9  -1   4    0.04    0.05
   9  -1   4    0.05    0.05
  -9  -1  -4    0.02    0.04
  -9  -1  -4    0.07    0.06
  -9   1  -4    0.01    0.05
  -9   1  -4    0.03    0.04
   9   1   4    0.03    0.04
   9   1   4    0.05    0.05
  -9   1  -4   -0.01    0.05
   9   1   4    0.10    0.06
  10  -1   4    0.57    0.08
 -10  -1  -4    0.46    0.09
 -10  -1  -4    0.66    0.08
  10  -1   4    0.74    0.09
  10   1   4    0.57    0.09
 -10   1  -4    0.58    0.09
  10   1   4    0.53    0.09
 -10   1  -4    0.70    0.09
  10   1   4    0.61    0.09
 -10   1  -4    0.68    0.08
 -11  -1  -4    0.19    0.07
  11  -1   4    0.18    0.07
  11  -1   4    0.15    0.05
 -11  -1  -4    0.19    0.06
 -11  -1  -4    0.19    0.05
 -11   1  -4    0.24    0.06
  11   1   4    0.21    0.07
 -11   1  -4    0.21    0.06
  11   1   4    0.23    0.05
  11   1   4    0.25    0.05
 -11   1  -4    0.22    0.05
 -11   1  -4    0.10    0.06
 -12  -1  -4    3.27    0.29
 -12  -1  -4    3.56    0.27
  12  -1   4    3.66    0.29
 -12   1  -4    3.62    0.27
  12   1   4    3.82    0.28
 -12   1  -4    3.36    0.27
  12   1   4    3.79    0.29
 -12   1  -4    3.85    0.30
 -13  -1  -4    0.05    0.05
  13  -1   4    0.06    0.04
 -13   1  -4    0.05    0.04
  13   1   4    0.06    0.05
 -13   1  -4    0.07    0.06
 -13  -2   4    0.19    0.05
 -13   2   4    0.14    0.06
  13   2  -4    0.20    0.05
 -13   2   4    0.15    0.04
 -12  -2   4    0.73    0.10
  12   2  -4    0.67    0.10
 -12   2   4    0.71    0.07
 -12   2   4    0.88    0.10
 -12   2   4    0.73    0.09
  12   2  -4    0.63    0.08
 -12   2   4    0.75    0.08
 -11  -2   4    0.03    0.07
 -11  -2   4    0.07    0.05
  11   2  -4    0.04    0.05
 -11   2   4    0.06    0.06
 -11   2   4    0.06    0.07
  11   2  -4    0.06    0.05
  11   2  -4    0.03    0.06
 -11   2   4    0.02    0.04
 -11   2   4    0.05    0.05
 -10  -2   4    0.17    0.08
 -10  -2   4    0.19    0.06
  10  -2  -4    0.26    0.06
 -10   2   4    0.24    0.07
  10   2  -4    0.29    0.05
 -10   2   4    0.28    0.05
  10   2  -4    0.13    0.07
  10   2  -4    0.21    0.07
  10   2  -4    0.23    0.06
 -10   2   4    0.24    0.05
 -10   2   4    0.40    0.06
  -9  -2   4    0.00    0.04
  -9  -2   4    0.14    0.05
   9  -2  -4    0.01    0.03
  -9   2   4    0.00    0.03
   9   2  -4    0.08    0.06
   9   2  -4    0.12    0.06
   9   2  -4    0.01    0.03
  -9   2   4    0.06    0.04
  -9   2   4   -0.02    0.04
  -9   2   4    0.10    0.06
   9   2  -4    0.06    0.06
  -9   2   4    0.00    0.05
  -8  -2   4    0.46    0.07
  -8  -2   4    0.50    0.08
   8  -2  -4    0.57    0.08
  -8   2   4    0.53    0.07
  -8   2   4    0.55    0.06
   8   2  -4    0.38    0.06
  -8   2   4    0.46    0.06
   8   2  -4    0.42    0.08
   8   2  -4    0.63    0.08
  -8   2   4    0.66    0.08
  -8   2   4    0.58    0.08
   8   2  -4    0.44    0.07
   7  -2  -4    2.47    0.19
  -7  -2   4    2.40    0.19
  -7  -2   4    2.16    0.19
   7   2  -4    2.08    0.18
   7   2  -4    1.86    0.19
  -7   2   4    2.29    0.18
   7   2  -4    2.28    0.19
  -7   2   4    2.18    0.17
  -7   2   4    2.41    0.18
   7   2  -4    2.28    0.17
  -7   2   4    2.46    0.19
  -7   2   4    2.42    0.17
   6  -2  -4    0.07    0.03
  -6  -2   4    0.01    0.04
  -6  -2   4    0.00    0.03
  -6   2   4    0.07    0.02
   6   2  -4    0.00    0.03
  -6   2   4    0.06    0.02
   6   2  -4    0.03    0.03
  -6   2   4    0.03    0.03
   6   2  -4    0.03    0.03
   6   2  -4    0.08    0.04
  -6   2   4    0.01    0.03
  -6   2   4    0.02    0.03
  -5  -2   4    1.66    0.15
   5  -2  -4    1.82    0.14
  -5  -2   4    2.00    0.15
   5   2  -4    1.99    0.15
   5   2  -4    1.82    0.13
  -5   2   4    1.50    0.13
  -5   2   4    1.78    0.13
  -5   2   4    1.63    0.14
  -5   2   4    1.84    0.14
  -5   2   4    1.85    0.14
   4  -2  -4    0.98    0.08
  -4  -2   4    0.90    0.09
  -4   2   4    1.01    0.08
   4   2  -4    0.88    0.08
  -4   2   4    1.01    0.08
   4   2  -4    0.99    0.09
   3  -2  -4   12.24    0.97
  -3  -2   4   13.86    0.96
   3   2  -4   13.32    0.97
  -3   2   4   14.15    0.94
   3   2  -4   12.06    0.89
   2  -2  -4   71.56    5.57
  -2  -2   4   76.96    5.46
   2   2  -4   78.77    5.57
  -2   2   4   80.76    5.40
   2   2  -4   70.41    5.08
  -1  -2   4  132.36    9.74
   0  -2   4   15.37    1.14
   1  -2   4   62.29    4.45
   1   2   4   56.80    4.45
   1   2   4   62.27    4.31
  -2  -2  -4    8.27    0.63
   2  -2   4    8.99    0.64
   2   2   4    8.68    0.64
   2   2   4    9.21    0.62
  -2   2  -4    7.84    0.58
  -3  -2  -4    7.59    0.57
   3  -2   4    7.74    0.58
   3   2   4    8.25    0.58
   3   2   4    8.73    0.56
  -3   2  -4    6.84    0.53
   4  -2   4    1.38    0.12
  -4  -2  -4    1.22    0.10
  -4  -2  -4    1.59    0.11
   4   2   4    1.20    0.10
   4   2   4    1.49    0.11
  -4   2  -4    1.23    0.10
   4   2   4    1.42    0.11
   5  -2   4    4.11    0.30
  -5  -2  -4    4.02    0.27
  -5  -2  -4    4.25    0.30
   5  -2   4    3.56    0.30
   5   2   4    3.90    0.30
   5   2   4    3.67    0.28
  -5   2  -4    4.03    0.27
   5   2   4    4.16    0.30
   5   2   4    3.89    0.26
   5   2   4    4.42    0.29
  -5   2  -4    3.60    0.28
  -5   2  -4    3.59    0.30
   5   2   4    3.77    0.28
   6  -2   4    2.15    0.19
   6  -2   4    2.61    0.19
  -6  -2  -4    2.62    0.18
  -6  -2  -4    2.61    0.19
   6   2   4    2.48    0.17
  -6   2  -4    2.22    0.18
   6   2   4    2.20    0.18
  -6   2  -4    2.08    0.19
   6   2   4    2.57    0.19
   6   2   4    2.54    0.18
   6   2   4    2.41    0.19
   6   2   4    2.66    0.19
  -6   2  -4    2.15    0.18
   7  -2   4    0.76    0.08
   7  -2   4    0.65    0.09
  -7  -2  -4    0.77    0.09
  -7  -2  -4    0.86    0.08
  -7   2  -4    0.74    0.08
   7   2   4    0.77    0.09
   7   2   4    0.77    0.09
   7   2   4    0.84    0.09
   7   2   4    0.67    0.07
  -7   2  -4    0.81    0.08
  -7   2  -4    0.79    0.07
   7   2   4    0.80    0.08
  -7   2  -4    0.68    0.08
   7   2   4    0.74    0.07
   8  -2   4    0.05    0.03
  -8  -2  -4    0.01    0.04
   8  -2   4    0.03    0.05
  -8  -2  -4    0.00    0.05
  -8   2  -4    0.00    0.04
   8   2   4    0.08    0.04
   8   2   4   -0.04    0.04
   8   2   4    0.04    0.05
  -8   2  -4    0.02    0.05
   8   2   4    0.05    0.05
  -8   2  -4    0.00    0.03
   8   2   4    0.02    0.03
  -8   2  -4    0.00    0.05
  -9  -2  -4    0.02    0.04
  -9  -2  -4    0.03    0.04
   9  -2   4    0.11    0.06
   9  -2   4    0.04    0.04
   9   2   4   -0.01    0.04
  -9   2  -4    0.02    0.05
  -9   2  -4    0.03    0.06
   9   2   4    0.14    0.06
   9   2   4    0.02    0.05
  -9   2  -4    0.03    0.06
  -9   2  -4    0.20    0.05
   9   2   4   -0.01    0.05
  10  -2   4    1.08    0.11
  10  -2   4    0.82    0.11
 -10  -2  -4    1.04    0.11
  10   2   4    1.00    0.10
 -10   2  -4    0.93    0.11
 -10   2  -4    1.08    0.10
 -10   2  -4    1.03    0.11
  10   2   4    1.10    0.12
  10   2   4    0.91    0.12
 -10   2  -4    0.91    0.11
  11  -2   4    0.29    0.07
 -11   2  -4    0.27    0.08
  11   2   4    0.21    0.07
 -11   2  -4    0.19    0.05
 -11   2  -4    0.22    0.05
  11   2   4    0.25    0.07
  12  -2   4    0.20    0.07
  12   2   4    0.21    0.04
  12   2   4    0.21    0.06
 -12   2  -4    0.15    0.05
  12   2   4    0.19    0.07
 -12   2  -4    0.32    0.06
 -12   2  -4    0.32    0.05
  13  -2   4   -0.08    0.06
 -13  -2  -4    0.06    0.04
  13   2   4    0.10    0.04
 -13   2  -4    0.04    0.04
 -13  -3   4   -0.02    0.04
 -13   3   4    0.03    0.05
  13   3  -4    0.04    0.04
 -12  -3   4    1.42    0.13
  12   3  -4    1.12    0.10
  12   3  -4    1.11    0.12
 -12   3   4    1.33    0.11
  12   3  -4    0.91    0.13
 -12   3   4    0.97    0.10
 -11  -3   4    0.05    0.07
 -11   3   4   -0.02    0.06
  11   3  -4    0.00    0.05
  11   3  -4    0.08    0.07
 -11   3   4    0.07    0.06
  11   3  -4    0.06    0.06
 -10  -3   4    0.90    0.13
 -10  -3   4    0.73    0.12
 -10   3   4    0.91    0.09
 -10   3   4    0.75    0.09
 -10   3   4    0.79    0.09
  10   3  -4    0.86    0.09
  10   3  -4    0.77    0.11
 -10   3   4    0.75    0.10
 -10   3   4    0.90    0.08
  10   3  -4    0.79    0.11
  10   3  -4    0.95    0.11
  -9  -3   4    0.02    0.05
  -9  -3   4    0.03    0.07
  -9   3   4    0.07    0.05
  -9   3   4    0.15    0.06
   9   3  -4    0.07    0.06
  -9   3   4   -0.01    0.05
  -9   3   4    0.08    0.03
   9   3  -4    0.02    0.05
  -9   3   4    0.04    0.03
   9   3  -4   -0.02    0.06
  -9   3   4   -0.01    0.05
   9   3  -4    0.05    0.07
  -8  -3   4    2.18    0.19
  -8  -3   4    2.07    0.20
   8  -3  -4    2.05    0.18
  -8   3   4    2.16    0.16
  -8   3   4    2.17    0.17
  -8   3   4    2.02    0.18
   8   3  -4    2.04    0.18
   8   3  -4    2.46    0.17
  -8   3   4    2.23    0.17
  -8   3   4    2.04    0.16
  -8   3   4    2.04    0.18
   8   3  -4    1.98    0.18
   8   3  -4    2.06    0.17
   7  -3  -4    0.04    0.03
  -7  -3   4    0.03    0.05
  -7  -3   4    0.00    0.05
  -7   3   4    0.02    0.03
  -7   3   4    0.00    0.03
   7   3  -4    0.01    0.03
   7   3  -4    0.06    0.05
  -7   3   4    0.06    0.04
  -7   3   4    0.02    0.04
   7   3  -4    0.01    0.04
   7   3  -4    0.01    0.04
  -7   3   4    0.06    0.03
  -6  -3   4    5.56    0.45
   6  -3  -4    5.71    0.45
  -6  -3   4    6.03    0.45
   6   3  -4    5.66    0.43
   6   3  -4    5.42    0.45
  -6   3   4    5.95    0.44
  -6   3   4    6.21    0.44
   6   3  -4    5.96    0.41
  -6   3   4    5.45    0.40
  -6   3   4    6.07    0.42
  -6   3   4    6.32    0.42
   6   3  -4    6.07    0.45
  -6   3   4    6.16    0.43
  -5  -3   4    2.36    0.21
  -5  -3   4    2.78    0.21
   5  -3  -4    2.76    0.21
  -5   3   4    2.78    0.20
  -5   3   4    2.64    0.19
   5   3  -4    2.59    0.19
  -5   3   4    2.33    0.19
  -5   3   4    2.98    0.19
   5   3  -4    2.88    0.22
  -5   3   4    3.04    0.20
  -5   3   4    2.89    0.21
   5   3  -4    2.27    0.20
   5   3  -4    2.34    0.21
  -4  -3   4    6.52    0.54
   4  -3  -4    7.96    0.54
  -4  -3   4    7.86    0.54
   4   3  -4    7.23    0.49
  -4   3   4    6.57    0.49
   4   3  -4    6.66    0.54
   4   3  -4    6.60    0.52
   4   3  -4    8.49    0.55
  -3  -3   4    3.12    0.24
   3  -3  -4    2.75    0.23
   3   3  -4    2.98    0.21
  -3   3   4    2.97    0.21
   3   3  -4    3.20    0.24
  -3   3   4    3.14    0.22
   2  -3  -4   24.69    1.94
   2   3  -4   26.61    1.77
  -2   3   4   26.45    1.88
   2   3  -4   27.84    1.95
  -2   3   4   26.02    1.83
   1  -3  -4    1.62    0.13
  -1  -3   4    1.65    0.14
  -1   3   4    1.95    0.13
   1   3  -4    1.55    0.13
   0  -3   4   26.98    1.90
   0   3   4   27.06    1.84
   0   3   4   23.58    1.89
   0   3  -4   25.20    1.73
   1  -3   4    1.09    0.08
  -1   3  -4    0.81    0.07
   1   3   4    0.83    0.08
   1   3   4    1.05    0.07
   2  -3   4    0.05    0.03
   2   3   4    0.09    0.02
  -2   3  -4    0.10    0.03
   2   3   4    0.09    0.02
   2   3   4    0.14    0.02
   3  -3   4    8.74    0.63
  -3  -3  -4    8.19    0.62
   3   3   4    8.09    0.57
   3   3   4    8.23    0.59
  -3   3  -4    8.98    0.57
   3   3   4    9.36    0.61
   3   3   4    9.22    0.63
  -3   3  -4    7.46    0.63
   3   3   4    7.58    0.62
   4  -3   4   32.40    2.16
   4  -3   4   25.06    2.16
  -4  -3  -4   27.76    2.11
   4   3   4   27.71    2.04
   4   3   4   28.76    2.03
  -4   3  -4   29.63    2.16
   4   3   4   26.12    1.96
   4   3   4   28.59    2.15
   4   3   4   30.71    2.15
   4   3   4   32.08    2.09
  -4   3  -4   30.61    2.04
  -4   3  -4   30.43    1.97
  -5  -3  -4    3.78    0.31
   5  -3   4    4.10    0.32
   5  -3   4    4.77    0.32
  -5   3  -4    4.22    0.32
   5   3   4    3.91    0.30
   5   3   4    4.10    0.28
   5   3   4    4.13    0.31
   5   3   4    4.09    0.32
   5   3   4    3.58    0.29
  -5   3  -4    4.67    0.29
   5   3   4    4.12    0.31
   5   3   4    4.09    0.30
  -5   3  -4    4.42    0.30
   6  -3   4    4.25    0.37
  -6  -3  -4    4.78    0.37
   6  -3   4    4.96    0.38
   6   3   4    5.14    0.37
  -6   3  -4    5.02    0.34
  -6   3  -4    4.95    0.35
   6   3   4    4.97    0.38
  -6   3  -4    4.78    0.38
   6   3   4    4.77    0.35
   6   3   4    5.01    0.36
   6   3   4    4.89    0.33
   6   3   4    5.16    0.36
   7  -3   4    0.02    0.03
   7  -3   4    0.09    0.03
  -7  -3  -4    0.01    0.05
   7   3   4    0.06    0.04
   7   3   4    0.01    0.04
  -7   3  -4    0.02    0.05
  -7   3  -4    0.07    0.04
  -7   3  -4    0.09    0.04
   7   3   4    0.07    0.03
   7   3   4    0.21    0.04
   7   3   4    0.10    0.04
  -7   3  -4    0.05    0.05
   7   3   4    0.00    0.04
   8  -3   4    0.94    0.12
   8  -3   4    0.94    0.11
   8   3   4    1.06    0.10
  -8   3  -4    0.91    0.10
   8   3   4    0.82    0.09
   8   3   4    0.90    0.10
  -8   3  -4    1.07    0.10
  -8   3  -4    0.93    0.10
   8   3   4    0.89    0.11
  -8   3  -4    1.04    0.12
   8   3   4    0.94    0.10
   8   3   4    0.96    0.11
   9  -3   4    0.78    0.09
   9  -3   4    0.71    0.10
   9   3   4    0.65    0.08
   9   3   4    0.58    0.08
  -9   3  -4    0.70    0.08
   9   3   4    0.60    0.08
   9   3   4    0.71    0.09
   9   3   4    0.59    0.09
  -9   3  -4    0.78    0.10
  -9   3  -4    0.74    0.10
   9   3   4    0.67    0.09
  -9   3  -4    0.61    0.09
  10  -3   4    1.85    0.18
  10  -3   4    1.45    0.17
 -10   3  -4    1.94    0.18
 -10   3  -4    1.89    0.15
  10   3   4    1.51    0.16
  10   3   4    1.86    0.15
  10   3   4    1.76    0.15
  10   3   4    1.74    0.14
  10   3   4    1.94    0.16
 -10   3  -4    1.75    0.15
 -10   3  -4    1.61    0.16
  11  -3   4    0.07    0.05
 -11   3  -4    0.06    0.07
  11   3   4    0.06    0.05
 -11   3  -4    0.13    0.05
  11   3   4    0.18    0.05
  11   3   4    0.14    0.06
 -11   3  -4    0.15    0.06
  12  -3   4    2.15    0.19
 -12   3  -4    2.68    0.19
 -12   3  -4    2.34    0.17
 -12   3  -4    2.25    0.17
  12   3   4    2.31    0.18
  12   3   4    2.08    0.17
  12   3   4    1.76    0.17
 -12  -4   4    0.56    0.07
  12   4  -4    0.50    0.08
  12   4  -4    0.37    0.06
 -12   4   4    0.46    0.07
 -11  -4   4    1.72    0.16
  11   4  -4    1.30    0.14
 -11   4   4    1.47    0.14
  11   4  -4    1.50    0.13
  11   4  -4    1.90    0.16
 -11   4   4    1.69    0.14
 -10  -4   4    0.67    0.09
  10   4  -4    0.64    0.10
 -10   4   4    0.48    0.07
  10   4  -4    0.64    0.08
  10   4  -4    0.52    0.08
 -10   4   4    0.48    0.07
  -9  -4   4    1.21    0.15
  -9  -4   4    1.25    0.15
  -9   4   4    1.06    0.13
   9   4  -4    1.26    0.13
  -9   4   4    1.24    0.12
   9   4  -4    1.40    0.15
   9   4  -4    1.37    0.11
   9   4  -4    1.16    0.14
  -9   4   4    1.39    0.11
  -9   4   4    1.09    0.12
  -8  -4   4    6.20    0.47
  -8  -4   4    5.71    0.47
   8   4  -4    6.06    0.45
  -8   4   4    5.18    0.45
   8   4  -4    6.09    0.46
  -8   4   4    6.30    0.43
  -8   4   4    5.47    0.45
   8   4  -4    6.16    0.47
  -8   4   4    5.74    0.43
   8   4  -4    6.69    0.42
  -7  -4   4    0.02    0.06
  -7  -4   4    0.03    0.07
  -7   4   4    0.01    0.03
  -7   4   4    0.01    0.04
   7   4  -4    0.06    0.04
   7   4  -4    0.00    0.05
  -7   4   4    0.04    0.03
  -7   4   4    0.02    0.03
   7   4  -4    0.02    0.03
   7   4  -4    0.08    0.06
  -6  -4   4   10.68    0.86
  -6  -4   4   10.73    0.85
   6   4  -4   12.32    0.87
  -6   4   4   11.64    0.81
   6   4  -4   12.30    0.78
   6   4  -4   10.83    0.82
  -6   4   4   11.23    0.81
   6   4  -4   11.87    0.86
  -6   4   4   11.33    0.84
  -6   4   4   11.80    0.83
  -5  -4   4    5.00    0.42
  -5   4   4    5.48    0.39
   5   4  -4    5.66    0.42
   5   4  -4    6.10    0.38
   5   4  -4    5.36    0.40
  -5   4   4    5.84    0.41
  -5   4   4    5.29    0.41
   5   4  -4    5.77    0.42
  -5   4   4    5.12    0.39
  -4  -4   4    0.92    0.10
  -4   4   4    1.13    0.08
  -4   4   4    1.07    0.09
  -4   4   4    0.85    0.08
   4   4  -4    0.88    0.09
   4   4  -4    1.04    0.10
   4   4  -4    1.01    0.08
   4   4  -4    0.93    0.10
  -3  -4   4    2.33    0.21
  -3   4   4    2.49    0.19
   3   4  -4    2.47    0.19
   3   4  -4    2.93    0.22
   3   4  -4    2.93    0.22
  -3   4   4    3.06    0.20
   3   4  -4    2.66    0.21
  -2   4   4    3.58    0.26
   2   4  -4    3.75    0.26
   2   4  -4    3.88    0.29
  -2   4   4    3.77    0.27
   2   4  -4    3.63    0.27
   2   4  -4    3.60    0.29
  -1  -4   4    6.65    0.53
  -1   4   4    8.25    0.51
   1   4  -4    6.28    0.50
   1   4  -4    6.59    0.48
   1   4  -4    7.23    0.53
   0  -4   4   56.45    4.13
   0   4  -4   52.99    4.15
   0   4  -4   56.64    3.77
   0   4  -4   57.31    3.91
   0   4   4   54.82    3.90
   0   4   4   58.25    4.00
  -1   4  -4    0.45    0.06
   1   4   4    0.41    0.05
   1   4   4    0.49    0.04
  -1   4  -4    0.31    0.04
   1   4   4    0.35    0.04
  -1   4  -4    0.32    0.05
   2  -4   4   22.87    1.59
  -2   4  -4   21.59    1.50
  -2   4  -4   21.07    1.59
   2   4   4   20.26    1.59
   2   4   4   19.45    1.50
  -2   4  -4   21.81    1.45
   2   4   4   22.11    1.50
   2   4   4   22.57    1.54
   3  -4   4   34.30    2.23
   3   4   4   28.53    2.22
   3   4   4   30.65    2.10
  -3   4  -4   30.57    2.23
  -3   4  -4   31.96    2.03
   3   4   4   25.51    2.03
   3   4   4   27.28    2.11
  -3   4  -4   31.00    2.11
   3   4   4   33.28    2.16
   3   4   4   28.45    2.23
   4  -4   4   14.01    1.01
   4   4   4   12.76    0.95
   4   4   4   12.98    1.00
   4   4   4   14.60    0.95
   4   4   4   12.04    0.91
  -4   4  -4   13.35    1.01
  -4   4  -4   13.89    0.92
   4   4   4   15.34    0.98
   4   4   4   13.42    1.00
  -4   4  -4   12.83    0.95
   5  -4   4    0.18    0.05
  -5   4  -4    0.34    0.04
   5   4   4    0.31    0.04
  -5   4  -4    0.18    0.03
  -5   4  -4    0.17    0.05
   5   4   4    0.21    0.03
   5   4   4    0.20    0.04
   5   4   4    0.16    0.03
   5   4   4    0.19    0.03
   5   4   4    0.19    0.03
   6  -4   4   19.88    1.45
   6   4   4   19.21    1.36
   6   4   4   19.05    1.44
  -6   4  -4   19.20    1.36
   6   4   4   19.04    1.40
   6   4   4   20.79    1.28
  -6   4  -4   18.65    1.45
  -6   4  -4   20.30    1.32
   6   4   4   18.24    1.44
   6   4   4   20.11    1.37
   6   4   4   18.96    1.31
   7  -4   4    2.05    0.19
   7   4   4    1.91    0.18
   7   4   4    1.91    0.16
   7   4   4    2.24    0.17
   7   4   4    2.42    0.17
   7   4   4    2.02    0.18
  -7   4  -4    2.17    0.17
  -7   4  -4    2.10    0.17
   7   4   4    2.24    0.17
   7   4   4    2.21    0.17
  -7   4  -4    2.27    0.18
   8  -4   4    0.16    0.07
  -8   4  -4    0.10    0.05
   8   4   4    0.27    0.05
  -8   4  -4    0.12    0.06
   8   4   4    0.21    0.04
  -8   4  -4    0.13    0.04
   8   4   4    0.25    0.05
  -8   4  -4    0.12    0.05
   8   4   4    0.13    0.06
   8   4   4    0.18    0.06
   8   4   4    0.25    0.06
   9  -4   4    1.57    0.16
   9  -4   4    1.64    0.18
   9   4   4    2.05    0.16
   9   4   4    2.03    0.16
   9   4   4    1.65    0.17
  -9   4  -4    1.76    0.15
  -9   4  -4    1.73    0.16
  -9   4  -4    2.14    0.18
   9   4   4    1.98    0.16
   9   4   4    1.83    0.15
  -9   4  -4    1.60    0.18
   9   4   4    2.04    0.16
  10  -4   4    0.08    0.05
  10   4   4    0.05    0.06
 -10   4  -4    0.03    0.06
  10   4   4    0.14    0.05
 -10   4  -4    0.05    0.07
 -10   4  -4    0.02    0.06
  10   4   4   -0.01    0.04
  10   4   4    0.10    0.04
  10   4   4    0.09    0.05
  11  -4   4    0.15    0.05
 -11   4  -4    0.23    0.06
 -11   4  -4    0.12    0.06
  11   4   4    0.16    0.04
 -11   4  -4    0.21    0.05
  11   4   4    0.19    0.06
  12  -4   4    0.04    0.04
 -12   4  -4    0.12    0.03
 -12   4  -4    0.08    0.04
 -11  -5   4    0.04    0.06
 -11   5   4    0.06    0.04
  11   5  -4    0.06    0.05
 -11   5   4    0.07    0.04
  11   5  -4    0.07    0.06
 -10  -5   4    0.18    0.07
 -10   5   4    0.14    0.04
  10   5  -4    0.11    0.06
 -10   5   4    0.16    0.04
  10   5  -4    0.14    0.07
  10   5  -4    0.16    0.06
  -9  -5   4    2.99    0.27
  -9   5   4    3.08    0.24
   9   5  -4    3.31    0.26
   9   5  -4    3.71    0.27
  -9   5   4    2.66    0.25
   9   5  -4    3.26    0.23
  -9   5   4    3.03    0.23
  -8  -5   4    1.25    0.15
  -8   5   4    1.05    0.10
  -8   5   4    0.89    0.09
   8   5  -4    1.06    0.10
  -8   5   4    0.92    0.12
   8   5  -4    0.96    0.12
   8   5  -4    1.48    0.14
   8   5  -4    1.16    0.12
  -7  -5   4    4.32    0.38
  -7   5   4    4.92    0.35
   7   5  -4    5.14    0.35
  -7   5   4    4.59    0.37
   7   5  -4    5.32    0.39
  -7   5   4    4.78    0.36
   7   5  -4    4.91    0.39
   7   5  -4    5.27    0.38
  -6  -5   4    0.90    0.12
  -6   5   4    1.06    0.09
   6   5  -4    1.04    0.11
  -6   5   4    1.26    0.11
   6   5  -4    1.02    0.11
   6   5  -4    1.02    0.09
   6   5  -4    0.98    0.11
  -6   5   4    0.98    0.10
  -6   5   4    1.08    0.10
   5   5  -4    0.72    0.09
   5   5  -4    0.85    0.10
   5   5  -4    0.86    0.08
  -5   5   4    0.84    0.08
  -5   5   4    0.69    0.08
   5   5  -4    0.86    0.10
  -5   5   4    0.66    0.08
  -4   5   4   12.40    0.88
   4   5  -4   13.02    0.94
   4   5  -4   13.15    0.86
   4   5  -4   12.88    0.94
   4   5  -4   12.14    0.89
  -4   5   4   11.42    0.88
  -4   5   4   12.84    0.91
   3   5  -4    3.40    0.28
   3   5  -4    3.94    0.30
  -3   5   4    3.40    0.27
   3   5  -4    3.59    0.29
   3   5  -4    3.89    0.27
  -3   5   4    4.26    0.27
  -3   5   4    4.04    0.28
   2   5  -4    1.27    0.12
   2   5  -4    1.12    0.10
  -2   5   4    1.19    0.10
   2   5  -4    1.32    0.13
   2   5  -4    1.32    0.12
  -2   5   4    1.40    0.11
  -2   5   4    1.49    0.10
   1   5  -4    2.24    0.19
   1   5  -4    2.22    0.18
   1   5  -4    2.22    0.18
  -1   5   4    2.00    0.16
  -1   5   4    2.46    0.17
  -1   5   4    2.15    0.16
   1   5  -4    2.30    0.17
   0  -5   4   13.98    1.02
   0   5  -4   13.98    0.92
   0   5   4   12.75    0.96
   0   5  -4   13.97    1.02
   0   5   4   13.42    0.98
   0   5  -4   13.55    0.96
   1  -5   4    3.93    0.32
  -1   5  -4    4.08    0.30
   1   5   4    3.46    0.29
   1   5   4    4.42    0.29
   1   5   4    4.55    0.30
  -1   5  -4    3.93    0.28
  -1   5  -4    3.98    0.32
   2  -5   4    8.91    0.66
  -2   5  -4    9.12    0.63
  -2   5  -4    8.71    0.60
  -2   5  -4    9.03    0.66
   2   5   4    8.85    0.62
   2   5   4    7.75    0.62
   2   5   4    9.22    0.64
   3  -5   4    1.08    0.11
  -3   5  -4    1.11    0.11
   3   5   4    1.06    0.09
  -3   5  -4    1.03    0.09
   3   5   4    0.92    0.09
  -3   5  -4    1.05    0.09
   3   5   4    0.93    0.09
   4  -5   4   14.64    1.09
   4   5   4   14.76    1.02
   4   5   4   13.98    1.02
  -4   5  -4   14.77    1.03
   4   5   4   14.71    1.05
  -4   5  -4   14.32    0.99
   5  -5   4    0.00    0.05
  -5   5  -4    0.01    0.04
  -5   5  -4   -0.02    0.05
   5   5   4    0.03    0.04
   5   5   4    0.01    0.04
  -5   5  -4    0.02    0.03
   5   5   4    0.03    0.04
   6  -5   4    2.85    0.24
   6   5   4    3.02    0.21
   6   5   4    2.97    0.22
   6   5   4    2.37    0.22
  -6   5  -4    3.08    0.22
  -6   5  -4    2.98    0.21
   6   5   4    2.71    0.22
  -6   5  -4    2.98    0.24
   6   5   4    2.68    0.21
   7  -5   4    4.26    0.36
   7   5   4    4.05    0.35
  -7   5  -4    4.67    0.34
   7   5   4    4.29    0.34
  -7   5  -4    4.95    0.36
  -7   5  -4    4.71    0.33
   7   5   4    4.93    0.32
   7   5   4    4.95    0.35
   7   5   4    4.48    0.33
   8  -5   4    0.86    0.12
   8   5   4    0.71    0.09
   8   5   4    0.87    0.11
  -8   5  -4    1.08    0.09
  -8   5  -4    0.94    0.11
   8   5   4    0.95    0.11
  -8   5  -4    0.79    0.11
  -8   5  -4    0.89    0.12
   9   5   4    0.88    0.10
  -9   5  -4    0.63    0.09
  -9   5  -4    0.85    0.10
   9   5   4    0.66    0.09
  -9   5  -4    0.69    0.08
   9   5   4    0.76    0.09
 -10   5  -4    0.12    0.04
  10   5   4    0.10    0.06
  10   5   4    0.07    0.05
 -10   5  -4    0.14    0.05
  10   5   4    0.03    0.06
  11   5   4    0.21    0.05
 -11   5  -4    0.20    0.06
  11   5   4    0.18    0.06
 -11   5  -4    0.27    0.04
  10   6  -4    0.93    0.09
  10   6  -4    0.99    0.10
 -10   6   4    0.90    0.08
  -9  -6   4    0.09    0.05
  -9   6   4    0.14    0.03
   9   6  -4    0.16    0.04
   9   6  -4    0.23    0.06
  -9   6   4    0.07    0.03
   9   6  -4    0.15    0.06
  -8  -6   4    2.63    0.24
  -8   6   4    2.78    0.21
   8   6  -4    2.93    0.21
  -8   6   4    2.60    0.24
   8   6  -4    2.97    0.24
   8   6  -4    3.33    0.24
  -7   6   4    6.39    0.48
  -7   6   4    5.90    0.50
   7   6  -4    7.18    0.50
   7   6  -4    7.02    0.47
  -7   6   4    6.73    0.48
   7   6  -4    7.34    0.52
  -6   6   4    0.22    0.05
   6   6  -4    0.31    0.05
   6   6  -4    0.35    0.08
   6   6  -4    0.27    0.08
   6   6  -4    0.28    0.06
  -6   6   4    0.28    0.05
  -6   6   4    0.20    0.06
  -5   6   4    0.76    0.10
   5   6  -4    0.91    0.11
  -5   6   4    0.64    0.07
   5   6  -4    0.88    0.11
  -5   6   4    0.72    0.07
   5   6  -4    0.82    0.10
   5   6  -4    0.78    0.08
   4   6  -4    2.66    0.24
   4   6  -4    3.10    0.24
  -4   6   4    2.81    0.21
   4   6  -4    2.94    0.24
   4   6  -4    2.71    0.21
  -4   6   4    2.96    0.23
  -4   6   4    2.79    0.21
   3   6  -4    7.23    0.48
   3   6  -4    6.32    0.50
  -3   6   4    6.93    0.51
   3   6  -4    7.41    0.53
  -3   6   4    6.89    0.49
   3   6  -4    6.71    0.54
   2   6  -4   10.35    0.84
   2   6  -4   11.54    0.84
  -2   6   4   11.69    0.78
  -2   6   4   12.02    0.81
   2   6  -4   10.67    0.80
   2   6  -4   11.35    0.77
  -2   6   4   10.47    0.79
   1   6  -4   37.59    2.34
  -1   6   4   34.21    2.39
   1   6  -4   35.00    2.25
   1   6  -4   33.34    2.48
   1   6  -4   30.38    2.47
  -1   6   4   29.80    2.33
   0   6  -4    7.64    0.53
   0   6   4    8.16    0.55
   0   6  -4    7.40    0.57
   0   6  -4    6.71    0.58
   0   6   4    8.07    0.53
   0   6  -4    7.33    0.54
   1  -6   4   19.55    1.45
  -1   6  -4   19.50    1.37
   1   6   4   20.74    1.40
   1   6   4   16.33    1.36
  -1   6  -4   19.31    1.44
  -1   6  -4   20.65    1.32
   1   6   4   19.69    1.35
   2  -6   4    4.36    0.38
   2   6   4    4.27    0.35
   2   6   4    4.81    0.36
  -2   6  -4    5.23    0.35
   2   6   4    4.73    0.35
  -2   6  -4    4.99    0.38
  -2   6  -4    5.52    0.36
   3  -6   4    2.58    0.23
   3   6   4    2.91    0.20
  -3   6  -4    2.79    0.22
  -3   6  -4    2.52    0.20
   3   6   4    2.52    0.21
   3   6   4    2.45    0.21
  -3   6  -4    2.98    0.21
   4  -6   4    3.93    0.35
  -4   6  -4    4.63    0.35
   4   6   4    4.52    0.32
   4   6   4    4.15    0.33
  -4   6  -4    4.76    0.33
  -4   6  -4    4.58    0.32
   4   6   4    4.27    0.33
   5  -6   4    4.11    0.36
  -5   6  -4    5.02    0.35
   5   6   4    4.28    0.35
  -5   6  -4    4.84    0.33
  -5   6  -4    4.67    0.36
   5   6   4    4.80    0.34
   5   6   4    4.54    0.34
   6  -6   4    0.55    0.08
  -6   6  -4    0.77    0.08
  -6   6  -4    0.78    0.10
   6   6   4    0.60    0.09
  -6   6  -4    0.57    0.08
   6   6   4    0.69    0.09
   6   6   4    0.65    0.09
   6   6   4    0.70    0.09
   7   6   4    5.95    0.41
   7   6   4    5.51    0.42
  -7   6  -4    5.88    0.45
  -7   6  -4    6.38    0.43
  -7   6  -4    6.13    0.42
   7   6   4    5.47    0.43
   8   6   4    3.16    0.26
   8   6   4    3.12    0.25
  -8   6  -4    3.13    0.24
  -8   6  -4    3.49    0.26
   8   6   4    3.62    0.25
  -8   6  -4    3.49    0.27
   9   6   4    0.06    0.04
  -9   6  -4    0.04    0.04
  -9   6  -4    0.04    0.04
  -9   6  -4    0.07    0.04
   9   6   4    0.00    0.06
   9   6   4    0.03    0.05
  10   6   4    0.94    0.09
  10   6   4    1.01    0.09
  -9   7   4    0.38    0.04
  -8   7   4    0.92    0.08
   8   7  -4    0.93    0.12
   8   7  -4    1.04    0.09
  -7   7   4    0.39    0.05
   7   7  -4    0.24    0.05
   7   7  -4    0.43    0.06
   7   7  -4    0.56    0.07
  -7   7   4    0.40    0.07
   6   7  -4    0.63    0.10
  -6   7   4    0.73    0.07
   6   7  -4    0.62    0.09
  -6   7   4    0.57    0.08
   6   7  -4    0.56    0.08
   5   7  -4    0.03    0.05
  -5   7   4   -0.02    0.03
   5   7  -4   -0.01    0.07
   5   7  -4    0.04    0.05
  -5   7   4    0.06    0.05
   4   7  -4    5.30    0.46
   4   7  -4    6.59    0.46
  -4   7   4    6.10    0.42
   4   7  -4    5.94    0.44
   4   7  -4    5.89    0.42
  -4   7   4    5.72    0.44
   3   7  -4    0.11    0.06
   3   7  -4    0.08    0.05
  -3   7   4    0.18    0.05
   3   7  -4    0.18    0.07
   3   7  -4    0.15    0.06
   2   7  -4    3.75    0.27
  -2   7   4    3.56    0.25
  -2   7   4    3.44    0.26
   2   7  -4    3.20    0.25
   2   7  -4    3.05    0.28
   2   7  -4    3.28    0.27
  -1   7   4    2.19    0.16
   1   7  -4    2.02    0.17
   1   7  -4    2.25    0.19
   1   7  -4    1.78    0.19
   1   7  -4    2.22    0.18
  -1   7   4    2.33    0.18
   0   7  -4    3.59    0.25
   0   7  -4    2.55    0.26
   0   7  -4    3.19    0.23
   0   7   4    3.04    0.24
   0   7   4    3.21    0.23
   0   7  -4    3.09    0.25
  -1   7  -4    0.41    0.05
  -1   7  -4    0.48    0.06
   1   7   4    0.26    0.06
  -1   7  -4    0.29    0.06
   1   7   4    0.34    0.05
  -1   7  -4    0.32    0.05
  -1   7  -4    0.32    0.06
  -2   7  -4    4.63    0.33
   2   7   4    4.05    0.33
  -2   7  -4    4.46    0.32
   2   7   4    4.44    0.32
  -2   7  -4    4.53    0.34
   3  -7   4    0.65    0.08
  -3   7  -4    0.72    0.09
  -3   7  -4    0.59    0.08
   3   7   4    0.61    0.08
  -3   7  -4    0.54    0.07
   3   7   4    0.63    0.07
   3   7   4    0.55    0.06
  -3   7  -4    0.59    0.08
   4  -7   4    5.68    0.51
  -4   7  -4    7.21    0.51
  -4   7  -4    7.11    0.49
  -4   7  -4    6.18    0.48
   4   7   4    7.44    0.48
  -4   7  -4    6.87    0.47
   4   7   4    6.69    0.50
   4   7   4    6.27    0.48
   5   7   4    0.03    0.04
  -5   7  -4    0.06    0.04
   5   7   4    0.04    0.04
   5   7   4    0.03    0.04
  -5   7  -4    0.10    0.05
   5   7   4    0.08    0.04
  -5   7  -4   -0.05    0.06
   6   7   4    0.80    0.08
  -6   7  -4    0.80    0.08
   6   7   4    0.58    0.09
   6   7   4    0.71    0.08
  -6   7  -4    0.94    0.09
  -6   7  -4    0.78    0.08
   6   7   4    0.75    0.08
   7   7   4    0.07    0.04
   7   7   4    0.07    0.04
  -7   7  -4    0.05    0.06
  -7   7  -4    0.10    0.04
   7   7   4    0.04    0.03
   8   7   4    0.35    0.06
   8   7   4    0.50    0.06
  -8   7  -4    0.32    0.06
   9   7   4    0.39    0.05
  -6   8   4    0.29    0.03
   6   8  -4    0.41    0.07
  -5   8   4    0.04    0.04
   5   8  -4    0.13    0.05
  -5   8   4    0.08    0.02
  -4   8   4    0.26    0.06
   4   8  -4    0.13    0.03
   4   8  -4    0.03    0.05
  -4   8   4    0.18    0.03
   4   8  -4    0.14    0.05
   3   8  -4    1.09    0.10
  -3   8   4    1.17    0.12
   3   8  -4    1.27    0.12
  -3   8   4    1.20    0.09
   3   8  -4    1.20    0.10
  -2   8   4    0.04    0.05
  -2   8   4    0.03    0.03
   2   8  -4    0.02    0.03
   2   8  -4    0.05    0.03
   2   8  -4   -0.01    0.07
   2   8  -4    0.01    0.04
  -1   8   4    4.17    0.32
   1   8  -4    3.99    0.32
   1   8  -4    4.49    0.32
   1   8  -4    3.95    0.30
   1   8  -4    3.86    0.30
  -1   8   4    4.52    0.30
   0   8  -4    0.72    0.07
   0   8   4    0.60    0.07
   0   8  -4    0.60    0.08
   0   8  -4    0.59    0.08
   0   8  -4    0.67    0.08
   0   8   4    0.73    0.06
   1   8   4    4.82    0.38
   1   8   4    5.56    0.36
  -1   8  -4    4.72    0.38
  -1   8  -4    5.71    0.38
  -1   8  -4    4.95    0.36
  -1   8  -4    5.08    0.37
   2   8   4    0.50    0.06
  -2   8  -4    0.48    0.08
   2   8   4    0.34    0.07
  -2   8  -4    0.57    0.07
  -3   8  -4    3.05    0.22
   3   8   4    3.21    0.22
   3   8   4    2.51    0.24
  -3   8  -4    3.30    0.23
  -4   8  -4    0.17    0.05
   4   8   4    0.18    0.05
   4   8   4    0.24    0.05
   4   8   4    0.19    0.04
  -4   8  -4    0.15    0.06
  -5   8  -4    0.39    0.06
   5   8   4    0.45    0.05
   5   8   4    0.44    0.05
  -5   8  -4    0.28    0.06
  -6   8  -4    0.02    0.04
   6   8   4    0.06    0.02
  -6   8  -4    0.03    0.05
   6   8   4    0.05    0.03
   2   9  -4    0.18    0.05
   1   9  -4    0.44    0.05
   0   9  -4    0.23    0.04
  -1   9  -4    0.15    0.04
  -2   9  -4    0.23    0.04
 -13   0   5    0.04    0.04
  13   0  -5   -0.02    0.03
  12   0  -5    0.05    0.06
 -12   0   5    0.10    0.06
 -11   0   5    0.01    0.06
  11   0  -5   -0.03    0.04
 -11   0   5    0.03    0.07
  10   0  -5   -0.01    0.04
 -10   0   5    0.00    0.05
 -10   0   5    0.03    0.05
 -10   0   5   -0.06    0.06
  -9   0   5   -0.03    0.05
  -9   0   5    0.03    0.03
   9   0  -5   -0.01    0.05
  -9   0   5    0.03    0.04
  -9   0   5    0.03    0.03
  -8   0   5   -0.05    0.03
  -8   0   5   -0.01    0.03
  -8   0   5   -0.04    0.03
  -8   0   5   -0.01    0.04
  -8   0   5    0.01    0.03
   8   0  -5    0.01    0.04
  -7   0   5   -0.01    0.03
  -7   0   5    0.01    0.03
  -7   0   5    0.02    0.03
   7   0  -5    0.00    0.03
  -7   0   5    0.00    0.04
  -7   0   5   -0.03    0.03
  -6   0   5    0.00    0.03
  -6   0   5    0.02    0.02
  -6   0   5    0.11    0.03
  -6   0   5    0.01    0.02
   6   0  -5    0.04    0.03
  -6   0   5    0.03    0.02
   5   0  -5   -0.02    0.02
  -5   0   5   -0.04    0.02
  -5   0   5   -0.03    0.02
  -5   0   5    0.02    0.02
  -5   0   5    0.00    0.02
   4   0  -5   -0.01    0.02
  -4   0   5    0.04    0.02
  -4   0   5    0.00    0.02
  -3   0   5    0.07    0.02
  -3   0   5    0.11    0.02
   3   0  -5    0.09    0.02
  -2   0   5    0.96    0.08
   2   0  -5    1.04    0.08
   1   0  -5    0.36    0.03
  -1   0   5    0.34    0.04
   0   0   5    0.29    0.03
   1   0   5    0.31    0.03
   2   0   5    0.06    0.02
   3   0   5    0.04    0.02
   3   0   5    0.05    0.02
   4   0   5    0.00    0.02
   4   0   5    0.01    0.02
  -4   0  -5    0.05    0.02
  -4   0  -5   -0.01    0.02
   5   0   5    0.10    0.03
   5   0   5    0.18    0.04
   5   0   5    0.12    0.03
   5   0   5    0.16    0.03
  -5   0  -5    0.12    0.03
  -5   0  -5    0.09    0.03
   6   0   5    0.01    0.03
   6   0   5    0.01    0.02
   6   0   5    0.07    0.03
  -6   0  -5    0.01    0.03
   6   0   5    0.03    0.02
  -6   0  -5   -0.01    0.04
   6   0   5    0.01    0.02
   6   0   5    0.03    0.03
   7   0   5    0.00    0.04
  -7   0  -5    0.02    0.04
   7   0   5    0.03    0.03
   7   0   5   -0.01    0.03
   7   0   5    0.06    0.04
  -7   0  -5    0.00    0.02
   8   0   5    0.01    0.02
   8   0   5    0.01    0.03
   8   0   5    0.00    0.04
  -8   0  -5    0.01    0.03
  -8   0  -5   -0.01    0.03
   8   0   5    0.02    0.04
  -9   0  -5    0.04    0.05
   9   0   5    0.01    0.05
   9   0   5   -0.07    0.05
   9   0   5    0.00    0.03
  -9   0  -5   -0.04    0.03
 -10   0  -5    0.04    0.06
  10   0   5    0.18    0.07
  10   0   5    0.01    0.04
  10   0   5    0.04    0.04
 -10   0  -5    0.05    0.05
 -10   0  -5    0.07    0.05
  11   0   5   -0.03    0.04
 -11   0  -5    0.02    0.05
  11   0   5    0.07    0.07
 -11   0  -5    0.07    0.04
 -11   0  -5    0.01    0.06
 -12   0  -5    0.03    0.05
  12   0   5   -0.01    0.05
 -12   0  -5   -0.03    0.03
 -13   0  -5    0.01    0.04
  13   0   5    0.00    0.05
 -13  -1   5    0.05    0.05
  13   1  -5   -0.03    0.05
 -12  -1   5    1.07    0.12
 -12   1   5    1.01    0.10
  12   1  -5    0.99    0.10
 -11  -1   5   -0.02    0.06
  11  -1  -5    0.02    0.05
 -11  -1   5    0.05    0.05
 -11   1   5   -0.04    0.04
 -11   1   5    0.04    0.04
 -11   1   5   -0.02    0.05
 -11   1   5   -0.01    0.06
  11   1  -5   -0.05    0.05
  11   1  -5    0.03    0.04
 -10  -1   5    5.99    0.43
 -10  -1   5    4.95    0.42
  10  -1  -5    5.02    0.42
 -10   1   5    4.94    0.39
 -10   1   5    5.50    0.38
  10   1  -5    5.93    0.39
 -10   1   5    5.28    0.42
  10   1  -5    5.45    0.43
 -10   1   5    5.96    0.42
  -9  -1   5    0.41    0.07
   9  -1  -5    0.35    0.06
  -9  -1   5    0.34    0.06
  -9   1   5    0.33    0.05
   9   1  -5    0.38    0.06
  -9   1   5    0.37    0.06
  -9   1   5    0.29    0.05
  -9   1   5    0.32    0.07
  -9   1   5    0.42    0.05
   8  -1  -5    2.25    0.19
  -8  -1   5    2.40    0.19
  -8  -1   5    2.30    0.19
  -8   1   5    2.17    0.18
  -8   1   5    1.91    0.17
   8   1  -5    2.41    0.19
  -8   1   5    2.27    0.17
  -8   1   5    2.01    0.17
  -8   1   5    2.18    0.18
  -7  -1   5   11.06    0.79
  -7  -1   5   10.18    0.80
  -7  -1   5    9.85    0.78
   7  -1  -5   11.07    0.80
  -7  -1   5   10.48    0.73
  -7   1   5   10.63    0.78
  -7   1   5   11.04    0.80
  -7   1   5   10.64    0.75
  -7   1   5   11.25    0.79
  -7   1   5   10.56    0.73
   7   1  -5   11.16    0.80
  -6  -1   5    0.56    0.08
  -6  -1   5    0.55    0.06
   6  -1  -5    0.58    0.06
  -6  -1   5    0.56    0.07
  -6  -1   5    0.69    0.07
  -6  -1   5    0.57    0.06
  -6   1   5    0.61    0.06
  -6   1   5    0.61    0.06
   6   1  -5    0.61    0.07
  -6   1   5    0.50    0.05
  -6   1   5    0.72    0.06
  -6   1   5    0.62    0.06
   5  -1  -5    0.27    0.04
  -5  -1   5    0.28    0.04
  -5  -1   5    0.28    0.04
  -5  -1   5    0.27    0.04
  -5   1   5    0.26    0.03
  -5   1   5    0.23    0.04
  -5   1   5    0.25    0.03
  -5   1   5    0.20    0.03
   5   1  -5    0.25    0.04
  -4  -1   5    4.35    0.31
   4  -1  -5    4.58    0.31
  -4  -1   5    3.67    0.30
  -4   1   5    4.02    0.30
  -4   1   5    4.16    0.31
   4   1  -5    3.81    0.28
   4   1  -5    4.26    0.31
  -3  -1   5   56.25    3.98
  -3  -1   5   56.00    4.03
   3  -1  -5   54.29    4.10
  -3   1   5   56.67    3.97
   3   1  -5   56.34    4.10
  -3   1   5   54.89    4.02
   2  -1  -5   84.66    6.64
  -2  -1   5   94.57    6.52
  -2   1   5   85.11    6.51
   2   1  -5   97.06    6.65
  -1  -1   5   64.08    4.72
   0  -1   5    8.05    0.60
   1  -1   5   79.78    5.39
   1   1   5   66.62    5.38
  -2  -1  -5    9.26    0.73
   2  -1   5   10.09    0.74
   2   1   5   10.22    0.74
   2   1   5   10.39    0.72
  -3  -1  -5    4.28    0.31
   3  -1   5    4.56    0.32
   3  -1   5    4.10    0.31
  -3   1  -5    3.92    0.29
   3   1   5    4.34    0.31
   3   1   5    4.22    0.32
   4  -1   5    7.87    0.56
  -4  -1  -5    7.29    0.55
  -4  -1  -5    6.91    0.51
   4  -1   5    7.53    0.54
   4   1   5    7.52    0.56
  -4   1  -5    7.16    0.51
   4   1   5    8.01    0.54
   5  -1   5   15.24    1.16
  -5  -1  -5   16.53    1.09
  -5  -1  -5   18.09    1.18
   5  -1   5   15.96    1.13
   5  -1   5   14.92    1.20
   5  -1   5   17.40    1.20
   5  -1   5   15.51    1.06
  -5   1  -5   15.98    1.09
   5   1   5   15.92    1.13
   5   1   5   15.04    1.20
   5   1   5   18.21    1.20
   5   1   5   14.76    1.13
   5   1   5   15.26    1.06
   5   1   5   17.38    1.16
   6  -1   5   11.36    0.87
  -6  -1  -5   12.48    0.83
   6  -1   5   11.78    0.92
  -6  -1  -5   13.38    0.90
   6  -1   5   12.43    0.92
   6  -1   5   11.67    0.81
  -6   1  -5   12.73    0.83
  -6   1  -5   12.67    0.90
   6   1   5   13.71    0.92
   6   1   5   12.18    0.87
   6   1   5   12.52    0.89
   6   1   5   12.22    0.91
   6   1   5   12.14    0.81
   6   1   5   10.83    0.86
  -7  -1  -5    0.01    0.04
   7  -1   5    0.00    0.04
   7  -1   5    0.04    0.04
   7  -1   5    0.02    0.03
  -7  -1  -5    0.06    0.03
   7  -1   5    0.05    0.04
   7   1   5    0.06    0.04
   7   1   5    0.06    0.03
  -7   1  -5    0.02    0.04
  -7   1  -5    0.05    0.04
   7   1   5    0.04    0.04
   7   1   5    0.10    0.04
   7   1   5    0.03    0.03
  -7   1  -5    0.03    0.02
   7   1   5    0.10    0.03
  -8  -1  -5    2.67    0.21
   8  -1   5    2.55    0.20
   8  -1   5    2.37    0.19
  -8  -1  -5    2.50    0.19
   8  -1   5    2.41    0.20
   8   1   5    2.50    0.21
  -8   1  -5    2.04    0.20
   8   1   5    2.51    0.19
  -8   1  -5    2.47    0.18
   8   1   5    2.31    0.18
   8   1   5    2.63    0.20
  -8   1  -5    2.45    0.21
  -9  -1  -5    2.94    0.27
   9  -1   5    2.94    0.26
   9  -1   5    3.40    0.27
  -9  -1  -5    3.36    0.24
   9   1   5    3.71    0.26
  -9   1  -5    2.78    0.26
   9   1   5    3.29    0.26
   9   1   5    3.57    0.25
  -9   1  -5    3.23    0.24
   9   1   5    3.31    0.23
  -9   1  -5    2.91    0.26
  10  -1   5    0.13    0.06
 -10  -1  -5    0.26    0.06
  10  -1   5    0.24    0.07
 -10  -1  -5    0.20    0.07
 -10   1  -5    0.24    0.07
  10   1   5    0.19    0.07
 -10   1  -5    0.25    0.06
 -10   1  -5    0.17    0.07
 -10   1  -5    0.27    0.05
  10   1   5    0.18    0.07
  10   1   5    0.23    0.06
 -11  -1  -5    1.52    0.18
  11  -1   5    2.33    0.19
 -11  -1  -5    1.87    0.16
 -11   1  -5    1.89    0.16
  11   1   5    2.20    0.18
 -11   1  -5    2.05    0.19
 -11   1  -5    2.01    0.16
  11   1   5    1.96    0.17
 -12  -1  -5    0.05    0.05
  12  -1   5    0.05    0.05
 -12  -1  -5   -0.05    0.05
 -12   1  -5    0.10    0.05
  12   1   5    0.07    0.06
 -12   1  -5    0.06    0.04
 -12   1  -5    0.13    0.04
 -13  -1  -5    0.46    0.06
  13  -1   5    0.36    0.06
 -13   1  -5    0.44    0.06
  13   1   5    0.37    0.05
 -13  -2   5    0.97    0.10
 -13   2   5    0.93    0.10
  13   2  -5    0.78    0.12
 -13   2   5    0.92    0.09
 -12  -2   5   -0.01    0.07
  12   2  -5   -0.03    0.07
  12   2  -5   -0.01    0.05
 -12   2   5    0.00    0.05
 -12   2   5    0.02    0.05
 -11  -2   5    0.52    0.09
 -11   2   5    0.44    0.06
  11   2  -5    0.48    0.08
 -11   2   5    0.45    0.07
  11   2  -5    0.51    0.07
 -11   2   5    0.39    0.07
 -10  -2   5    0.68    0.10
 -10  -2   5    0.83    0.12
  10   2  -5    0.92    0.10
 -10   2   5    0.63    0.10
 -10   2   5    0.75    0.08
 -10   2   5    0.68    0.07
  10   2  -5    0.69    0.10
  10   2  -5    0.67    0.10
 -10   2   5    0.77    0.10
   9  -2  -5   11.74    0.99
  -9  -2   5   12.17    0.98
  -9  -2   5   14.33    1.00
  -9   2   5   12.71    0.90
  -9   2   5   12.36    0.96
   9   2  -5   13.27    1.00
  -9   2   5   13.69    0.98
   9   2  -5   13.20    0.94
  -9   2   5   14.89    0.99
   9   2  -5   14.27    0.91
  -9   2   5   13.92    0.93
   9   2  -5   12.01    0.99
  -8  -2   5   31.73    2.32
  -8  -2   5   32.61    2.36
  -8   2   5   31.48    2.22
   8   2  -5   32.43    2.36
  -8   2   5   31.31    2.31
   8   2  -5   34.54    2.15
  -8   2   5   32.77    2.36
  -8   2   5   31.59    2.29
  -8   2   5   30.48    2.15
   8   2  -5   29.54    2.23
  -7  -2   5   10.82    0.81
  -7  -2   5   11.29    0.80
   7  -2  -5   10.63    0.81
  -7   2   5   10.59    0.81
   7   2  -5   11.91    0.74
  -7   2   5   10.43    0.76
  -7   2   5   11.42    0.80
  -7   2   5   10.35    0.74
  -7   2   5   10.33    0.79
   7   2  -5    9.92    0.77
   7   2  -5   11.52    0.81
  -6  -2   5    5.32    0.43
   6  -2  -5    5.67    0.42
  -6  -2   5    5.71    0.42
  -6   2   5    5.28    0.42
   6   2  -5    4.98    0.40
  -6   2   5    5.95    0.42
  -6   2   5    5.85    0.41
   6   2  -5    6.09    0.43
   6   2  -5    5.92    0.39
  -6   2   5    5.89    0.40
  -6   2   5    5.09    0.38
  -5  -2   5   10.54    0.83
   5  -2  -5   11.11    0.82
  -5  -2   5   12.43    0.82
  -5   2   5   11.60    0.80
  -5   2   5    9.70    0.82
  -5   2   5   11.74    0.81
  -5   2   5   10.47    0.78
   5   2  -5   11.67    0.75
   5   2  -5   12.53    0.83
  -5   2   5    9.50    0.75
   4  -2  -5   23.70    1.76
  -4  -2   5   25.64    1.73
  -4  -2   5   21.98    1.70
  -4  -2   5   21.12    1.76
  -4   2   5   23.73    1.72
   4   2  -5   25.54    1.76
  -4   2   5   24.64    1.70
   4   2  -5   22.67    1.60
  -4   2   5   25.18    1.66
  -3  -2   5   13.66    1.03
  -3  -2   5   15.01    1.04
   3  -2  -5   13.09    1.05
  -3   2   5   13.87    1.03
   3   2  -5   15.54    1.06
   3   2  -5   14.07    0.96
  -3   2   5   14.69    1.02
  -2  -2   5    2.74    0.21
   2  -2  -5    2.49    0.20
  -2   2   5    2.60    0.20
  -2   2   5    2.48    0.19
   2   2  -5    2.83    0.19
   2   2  -5    2.99    0.21
  -1  -2   5    0.72    0.06
   1   2  -5    0.71    0.06
   0  -2   5   22.43    1.52
   0   2  -5   18.72    1.39
   1  -2   5   15.70    1.06
  -1   2  -5   14.33    0.96
   1   2   5   14.48    1.02
   1   2   5   12.72    1.05
  -2  -2  -5    0.60    0.06
  -2   2  -5    0.73    0.05
   2   2   5    0.66    0.06
  -3  -2  -5    0.20    0.03
   3  -2   5    0.17    0.03
   3   2   5    0.21    0.03
  -3   2  -5    0.25    0.03
   3   2   5    0.16    0.03
  -4  -2  -5    0.36    0.05
  -4  -2  -5    0.34    0.04
   4  -2   5    0.26    0.04
   4  -2   5    0.27    0.04
  -4   2  -5    0.26    0.04
   4   2   5    0.38    0.04
   4   2   5    0.44    0.04
   4   2   5    0.36    0.04
   4   2   5    0.33    0.04
  -5  -2  -5    0.17    0.03
   5  -2   5    0.20    0.04
   5  -2   5    0.20    0.04
  -5  -2  -5    0.19    0.03
   5  -2   5    0.19    0.03
   5   2   5    0.21    0.04
   5   2   5    0.32    0.04
  -5   2  -5    0.18    0.04
   5   2   5    0.13    0.03
  -5   2  -5    0.23    0.03
   5   2   5    0.13    0.03
   5   2   5    0.15    0.03
  -5   2  -5    0.26    0.03
   5   2   5    0.21    0.04
  -6  -2  -5   19.57    1.39
  -6  -2  -5   19.45    1.29
   6  -2   5   18.44    1.42
   6  -2   5   20.72    1.42
   6   2   5   18.51    1.33
   6   2   5   19.52    1.41
  -6   2  -5   17.71    1.42
  -6   2  -5   19.26    1.29
  -6   2  -5   18.24    1.34
   6   2   5   19.85    1.42
   6   2   5   18.53    1.34
   6   2   5   19.58    1.37
   6   2   5   18.55    1.25
  -7  -2  -5    5.67    0.38
   7  -2   5    5.56    0.42
   7  -2   5    5.13    0.42
  -7  -2  -5    5.47    0.42
   7   2   5    5.58    0.42
   7   2   5    4.90    0.39
   7   2   5    5.97    0.41
  -7   2  -5    5.57    0.41
   7   2   5    5.18    0.40
  -7   2  -5    5.77    0.38
  -7   2  -5    5.03    0.42
   7   2   5    5.96    0.40
  -7   2  -5    4.99    0.39
   7   2   5    5.50    0.37
   8  -2   5   15.01    1.07
  -8  -2  -5   13.38    1.05
  -8  -2  -5   15.42    0.98
   8  -2   5   14.69    1.07
  -8   2  -5   12.75    1.07
  -8   2  -5   13.60    1.01
   8   2   5   13.41    1.01
   8   2   5   14.78    0.95
   8   2   5   15.20    1.07
   8   2   5   15.35    1.02
   8   2   5   13.99    1.07
  -8   2  -5   13.54    1.05
  -8   2  -5   14.93    0.98
   9  -2   5    5.56    0.42
  -9  -2  -5    4.73    0.41
   9  -2   5    4.98    0.42
  -9  -2  -5    5.83    0.38
   9   2   5    4.73    0.42
   9   2   5    5.65    0.40
  -9   2  -5    5.31    0.39
  -9   2  -5    5.93    0.38
   9   2   5    5.37    0.41
  -9   2  -5    5.59    0.42
  -9   2  -5    5.03    0.42
   9   2   5    5.56    0.37
 -10  -2  -5    0.74    0.10
  10  -2   5    0.58    0.10
  10  -2   5    0.90    0.12
 -10   2  -5    0.59    0.08
  10   2   5    0.74    0.09
  10   2   5    0.93    0.11
 -10   2  -5    0.56    0.10
  10   2   5    0.77    0.09
  10   2   5    0.93    0.10
 -10   2  -5    0.78    0.10
 -10   2  -5    0.68    0.10
  11  -2   5    0.05    0.07
 -11   2  -5    0.01    0.06
  11   2   5    0.03    0.05
  11   2   5    0.01    0.05
 -11   2  -5   -0.04    0.05
 -11   2  -5   -0.08    0.06
  12  -2   5    0.95    0.12
  12   2   5    0.95    0.10
  12   2   5    1.02    0.11
 -12   2  -5    1.03    0.12
  12   2   5    0.88    0.09
 -12   2  -5    0.82    0.09
 -12   2  -5    0.92    0.09
  13  -2   5    0.43    0.06
 -13   2  -5    0.36    0.07
 -13  -3   5    0.03    0.05
  13   3  -5    0.05    0.04
 -13   3   5    0.04    0.03
 -12  -3   5    1.29    0.14
  12   3  -5    1.16    0.12
  12   3  -5    1.25    0.11
 -12   3   5    1.40    0.12
 -12   3   5    1.21    0.11
 -11  -3   5    0.71    0.10
 -11   3   5    0.89    0.09
  11   3  -5    0.79    0.10
 -11   3   5    0.73    0.09
  11   3  -5    0.80    0.10
  11   3  -5    0.67    0.10
 -10  -3   5   11.51    0.91
 -10   3   5   10.71    0.89
  10   3  -5   11.94    0.92
  10   3  -5   12.26    0.91
 -10   3   5   12.36    0.85
  10   3  -5   12.98    0.87
 -10   3   5   12.85    0.86
  -9  -3   5    1.81    0.20
  -9  -3   5    2.07    0.19
   9   3  -5    1.97    0.19
  -9   3   5    2.07    0.18
  -9   3   5    2.10    0.17
   9   3  -5    2.41    0.18
   9   3  -5    2.10    0.18
  -9   3   5    2.56    0.17
  -9   3   5    2.01    0.18
   9   3  -5    2.07    0.20
  -8  -3   5   18.29    1.33
  -8  -3   5   17.14    1.31
  -8   3   5   18.31    1.24
   8   3  -5   17.18    1.25
  -8   3   5   16.76    1.28
   8   3  -5   18.80    1.21
  -8   3   5   17.04    1.30
  -8   3   5   17.93    1.31
   8   3  -5   15.85    1.32
  -8   3   5   19.43    1.25
   8   3  -5   18.02    1.33
  -7  -3   5    1.27    0.13
  -7  -3   5    1.19    0.12
   7   3  -5    1.08    0.12
   7   3  -5    1.13    0.12
  -7   3   5    1.15    0.10
  -7   3   5    1.31    0.11
   7   3  -5    1.22    0.11
  -7   3   5    1.34    0.10
   7   3  -5    1.08    0.11
  -7   3   5    1.17    0.11
  -6  -3   5   16.47    1.29
  -6  -3   5   17.08    1.27
  -6   3   5   18.25    1.21
  -6   3   5   18.46    1.25
  -6   3   5   17.17    1.21
   6   3  -5   15.88    1.29
   6   3  -5   16.48    1.22
   6   3  -5   17.89    1.17
   6   3  -5   18.52    1.29
  -6   3   5   17.02    1.26
  -5  -3   5    6.29    0.49
  -5  -3   5    6.29    0.48
  -5   3   5    7.14    0.47
  -5   3   5    6.63    0.47
   5   3  -5    6.47    0.44
  -5   3   5    6.63    0.45
   5   3  -5    5.53    0.48
   5   3  -5    6.06    0.46
   5   3  -5    6.79    0.49
  -5   3   5    6.19    0.45
  -4  -3   5    2.01    0.16
  -4  -3   5    2.03    0.17
   4   3  -5    1.79    0.15
   4   3  -5    1.97    0.14
   4   3  -5    2.00    0.16
  -4   3   5    1.91    0.15
  -4   3   5    2.05    0.14
  -4   3   5    1.64    0.15
  -3  -3   5   74.50    6.32
  -3   3   5   88.18    5.96
  -3   3   5   86.87    6.11
   3   3  -5   93.01    6.31
   3   3  -5   85.61    5.75
  -2   3   5   26.18    1.92
   2   3  -5   27.65    1.99
  -2   3   5   28.29    1.87
   2   3  -5   25.52    1.81
  -1  -3   5    0.09    0.03
   1   3  -5    0.07    0.02
   0  -3   5   21.45    1.56
   0   3   5   21.52    1.51
   0   3  -5   20.32    1.42
   1  -3   5    0.66    0.07
   1   3   5    0.77    0.05
   1   3   5    0.51    0.05
  -1   3  -5    0.61    0.06
   2  -3   5   19.22    1.35
   2   3   5   18.34    1.27
  -2   3  -5   17.98    1.23
   2   3   5   16.70    1.35
   2   3   5   19.10    1.31
   3  -3   5    2.98    0.26
   3  -3   5    3.86    0.26
  -3   3  -5    3.38    0.23
   3   3   5    3.13    0.25
  -3   3  -5    3.18    0.26
   3   3   5    2.94    0.23
   3   3   5    3.69    0.24
   3   3   5    3.53    0.25
   4  -3   5   43.78    2.97
   4  -3   5   36.06    2.98
   4   3   5   45.05    2.88
  -4   3  -5   40.88    2.81
   4   3   5   37.42    2.97
  -4   3  -5   43.12    2.71
   4   3   5   35.51    2.70
  -4   3  -5   39.50    2.98
   4   3   5   40.91    2.80
   4   3   5   39.53    2.81
   4   3   5   40.78    2.97
   5  -3   5   51.07    4.22
   5  -3   5   61.87    4.21
   5   3   5   55.23    4.21
   5   3   5   62.87    4.08
  -5   3  -5   55.61    3.98
   5   3   5   58.00    3.98
   5   3   5   58.78    3.97
   5   3   5   58.56    3.73
  -5   3  -5   53.10    4.22
  -5   3  -5   62.12    3.84
   5   3   5   50.31    3.83
   6  -3   5    1.94    0.18
   6  -3   5    2.24    0.19
  -6   3  -5    2.26    0.17
   6   3   5    2.28    0.16
   6   3   5    2.27    0.17
  -6   3  -5    2.22    0.17
   6   3   5    2.11    0.17
   6   3   5    2.26    0.17
   6   3   5    2.11    0.18
  -6   3  -5    2.08    0.18
   6   3   5    2.17    0.17
   7  -3   5    8.92    0.73
   7  -3   5   10.10    0.73
  -7   3  -5    9.47    0.72
   7   3   5    9.47    0.64
   7   3   5   10.42    0.72
  -7   3  -5    9.31    0.69
   7   3   5    9.23    0.70
  -7   3  -5    9.94    0.73
   7   3   5    8.83    0.68
  -7   3  -5   10.27    0.67
   7   3   5   10.16    0.69
   7   3   5    9.62    0.73
   8  -3   5    4.65    0.39
   8  -3   5    4.64    0.39
  -8   3  -5    4.73    0.39
   8   3   5    5.36    0.38
   8   3   5    5.60    0.37
   8   3   5    5.08    0.35
   8   3   5    4.38    0.36
  -8   3  -5    5.44    0.36
  -8   3  -5    5.19    0.37
  -8   3  -5    4.86    0.39
   8   3   5    5.21    0.34
   8   3   5    4.68    0.39
   9  -3   5   20.54    1.50
   9  -3   5   18.27    1.50
   9   3   5   21.56    1.42
   9   3   5   21.59    1.33
  -9   3  -5   20.77    1.41
  -9   3  -5   21.07    1.50
   9   3   5   16.89    1.49
   9   3   5   20.29    1.36
   9   3   5   19.40    1.41
  10  -3   5    4.59    0.35
  10  -3   5    4.27    0.35
  10   3   5    3.87    0.32
 -10   3  -5    4.86    0.32
  10   3   5    4.60    0.34
  10   3   5    3.98    0.35
 -10   3  -5    4.36    0.32
 -10   3  -5    3.73    0.35
  10   3   5    4.80    0.34
  10   3   5    4.39    0.31
  10   3   5    4.36    0.31
 -10   3  -5    4.45    0.35
  11  -3   5    5.04    0.40
 -11   3  -5    5.71    0.40
  11   3   5    5.01    0.39
  11   3   5    5.46    0.38
 -11   3  -5    4.74    0.37
 -11   3  -5    4.68    0.36
  11   3   5    4.98    0.36
  12  -3   5    0.08    0.06
 -12   3  -5    0.05    0.04
 -12   3  -5    0.10    0.04
 -12   3  -5   -0.01    0.04
  12   3   5    0.00    0.06
 -12  -4   5    0.13    0.06
 -12   4   5    0.20    0.04
 -11  -4   5    0.69    0.09
  11   4  -5    0.68    0.09
 -11   4   5    0.70    0.07
  11   4  -5    0.61    0.09
 -11   4   5    0.66    0.07
  11   4  -5    0.56    0.08
 -10  -4   5    3.06    0.25
 -10   4   5    2.98    0.23
  10   4  -5    2.91    0.23
 -10   4   5    3.24    0.23
  10   4  -5    2.84    0.24
  10   4  -5    3.00    0.25
  -9  -4   5    0.74    0.11
  -9  -4   5    0.67    0.11
  -9   4   5    0.75    0.09
  -9   4   5    0.85    0.09
   9   4  -5    0.73    0.10
   9   4  -5    0.69    0.10
  -9   4   5    0.83    0.11
   9   4  -5    0.71    0.10
   9   4  -5    0.76    0.08
  -8  -4   5    3.50    0.32
  -8  -4   5    4.05    0.33
  -8   4   5    3.99    0.31
   8   4  -5    4.44    0.29
   8   4  -5    4.31    0.33
  -8   4   5    4.31    0.29
  -8   4   5    4.17    0.29
   8   4  -5    3.95    0.31
   8   4  -5    3.80    0.33
  -8   4   5    3.61    0.31
  -7  -4   5    6.08    0.51
  -7  -4   5    5.60    0.50
  -7   4   5    6.26    0.49
  -7   4   5    6.69    0.49
  -7   4   5    7.05    0.47
   7   4  -5    6.69    0.51
  -7   4   5    7.02    0.47
   7   4  -5    6.59    0.51
   7   4  -5    7.00    0.46
   7   4  -5    6.15    0.48
  -6  -4   5    0.06    0.06
  -6  -4   5    0.13    0.05
   6   4  -5    0.17    0.05
  -6   4   5    0.11    0.03
  -6   4   5    0.12    0.04
  -6   4   5    0.09    0.03
   6   4  -5    0.13    0.05
   6   4  -5    0.14    0.05
   6   4  -5    0.17    0.04
  -6   4   5    0.17    0.03
  -5  -4   5    0.12    0.04
  -5   4   5    0.11    0.03
  -5   4   5    0.10    0.03
  -5   4   5    0.09    0.03
   5   4  -5    0.11    0.04
   5   4  -5    0.11    0.04
  -5   4   5    0.13    0.03
   5   4  -5    0.10    0.05
   5   4  -5    0.16    0.05
   4   4  -5    0.28    0.05
   4   4  -5    0.34    0.05
   4   4  -5    0.14    0.04
  -4   4   5    0.26    0.04
  -4   4   5    0.26    0.03
  -3  -4   5    0.28    0.04
   3   4  -5    0.31    0.04
  -3   4   5    0.25    0.04
  -3   4   5    0.22    0.03
   3   4  -5    0.28    0.05
   3   4  -5    0.33    0.05
  -3   4   5    0.27    0.03
   3   4  -5    0.34    0.05
  -2  -4   5   11.65    1.00
  -2   4   5   14.23    0.96
   2   4  -5   13.83    0.95
   2   4  -5   13.29    0.91
   2   4  -5   12.10    1.00
   2   4  -5   14.14    1.00
  -2   4   5   14.70    0.94
  -1  -4   5    0.17    0.04
  -1  -4   5    0.19    0.04
   1   4  -5    0.22    0.04
  -1   4   5    0.23    0.03
   1   4  -5    0.25    0.05
   1   4  -5    0.18    0.04
   0  -4   5  109.37    8.01
   0   4   5  109.38    7.56
   0   4   5  117.31    7.75
   0   4  -5  112.39    7.58
   0   4  -5  106.31    7.31
   0   4  -5   97.60    8.03
   1  -4   5    0.79    0.09
   1  -4   5    1.03    0.10
   1   4   5    0.86    0.08
  -1   4  -5    1.00    0.10
   1   4   5    0.94    0.07
  -1   4  -5    1.08    0.09
  -1   4  -5    1.01    0.08
   2  -4   5    7.08    0.62
   2  -4   5    8.90    0.62
   2   4   5    9.57    0.60
   2   4   5    8.96    0.58
  -2   4  -5    8.05    0.57
   2   4   5    7.30    0.58
  -2   4  -5    8.31    0.62
  -2   4  -5    8.02    0.59
   3  -4   5    1.67    0.14
   3  -4   5    1.41    0.14
  -3   4  -5    1.71    0.13
   3   4   5    1.53    0.13
   3   4   5    1.75    0.13
   3   4   5    1.69    0.12
  -3   4  -5    1.75    0.13
  -3   4  -5    1.48    0.14
   4  -4   5   12.21    1.08
   4  -4   5   15.62    1.08
   4   4   5   15.35    1.01
  -4   4  -5   14.52    1.02
  -4   4  -5   15.32    0.98
  -4   4  -5   14.89    1.08
   4   4   5   14.12    1.02
   4   4   5   16.11    1.04
   4   4   5   12.76    1.07
   4   4   5   13.67    1.07
   5  -4   5    0.13    0.04
   5  -4   5    0.05    0.04
  -5   4  -5    0.06    0.05
  -5   4  -5    0.07    0.03
   5   4   5    0.12    0.03
   5   4   5    0.08    0.04
   5   4   5    0.06    0.03
  -5   4  -5    0.04    0.04
   5   4   5    0.15    0.03
   5   4   5    0.08    0.02
   5   4   5    0.06    0.03
   6  -4   5   17.47    1.49
   6  -4   5   20.92    1.49
   6   4   5   21.03    1.40
   6   4   5   20.60    1.41
   6   4   5   18.15    1.48
  -6   4  -5   20.34    1.49
   6   4   5   20.26    1.44
  -6   4  -5   22.17    1.36
   6   4   5   20.91    1.32
   6   4   5   19.79    1.48
   6   4   5   18.17    1.35
  -6   4  -5   20.21    1.41
   7  -4   5    3.07    0.27
   7  -4   5    3.47    0.28
  -7   4  -5    3.64    0.25
  -7   4  -5    3.56    0.27
   7   4   5    2.91    0.27
   7   4   5    3.02    0.26
   7   4   5    3.45    0.25
   7   4   5    3.61    0.25
   7   4   5    3.42    0.26
  -7   4  -5    3.42    0.26
   7   4   5    3.18    0.24
   7   4   5    3.43    0.24
   8  -4   5   15.67    1.29
   8  -4   5   16.41    1.29
  -8   4  -5   18.14    1.22
   8   4   5   14.86    1.29
   8   4   5   15.67    1.17
   8   4   5   17.98    1.15
   8   4   5   17.67    1.22
  -8   4  -5   18.74    1.18
   8   4   5   19.14    1.23
  -8   4  -5   16.40    1.28
   8   4   5   18.13    1.28
  -8   4  -5   18.96    1.30
   9  -4   5    0.41    0.08
   9  -4   5    0.35    0.08
   9   4   5    0.48    0.08
   9   4   5    0.44    0.07
   9   4   5    0.48    0.06
  -9   4  -5    0.40    0.07
  -9   4  -5    0.42    0.07
   9   4   5    0.42    0.06
  -9   4  -5    0.50    0.09
  -9   4  -5    0.51    0.08
   9   4   5    0.42    0.06
  10  -4   5    0.00    0.06
  10   4   5    0.05    0.03
  10   4   5    0.04    0.04
 -10   4  -5   -0.01    0.05
 -10   4  -5   -0.02    0.04
  10   4   5    0.09    0.04
 -10   4  -5   -0.05    0.05
  10   4   5    0.01    0.07
  11  -4   5    0.02    0.06
 -11   4  -5    0.06    0.05
 -11   4  -5    0.08    0.06
  11   4   5    0.04    0.05
 -11   4  -5    0.08    0.05
  11   4   5    0.06    0.04
  12  -4   5    0.07    0.06
 -12   4  -5    0.04    0.05
 -11  -5   5    0.33    0.07
  11   5  -5    0.28    0.07
  11   5  -5    0.28    0.07
 -11   5   5    0.29    0.05
 -10  -5   5    0.17    0.07
 -10   5   5    0.16    0.05
  10   5  -5    0.24    0.05
  10   5  -5    0.11    0.05
 -10   5   5    0.12    0.04
  10   5  -5    0.12    0.07
  -9  -5   5    0.25    0.08
  -9   5   5    0.13    0.07
  -9   5   5    0.20    0.04
   9   5  -5    0.23    0.07
   9   5  -5    0.25    0.09
  -9   5   5    0.33    0.04
   9   5  -5    0.24    0.08
  -8  -5   5    3.68    0.32
   8   5  -5    4.22    0.31
  -8   5   5    3.39    0.30
   8   5  -5    4.08    0.31
   8   5  -5    4.21    0.29
  -8   5   5    3.93    0.28
   8   5  -5    3.61    0.32
  -8   5   5    3.89    0.29
  -7  -5   5    0.79    0.11
   7   5  -5    0.95    0.09
  -7   5   5    0.91    0.09
   7   5  -5    0.76    0.10
   7   5  -5    0.80    0.11
  -7   5   5    1.07    0.11
   7   5  -5    0.95    0.13
  -7   5   5    0.74    0.08
  -6  -5   5    1.35    0.15
   6   5  -5    1.58    0.13
  -6   5   5    1.43    0.14
  -6   5   5    1.53    0.12
   6   5  -5    1.70    0.16
   6   5  -5    1.44    0.16
  -6   5   5    1.34    0.12
   6   5  -5    1.64    0.15
  -5  -5   5    0.23    0.06
  -5   5   5    0.20    0.04
   5   5  -5    0.28    0.04
  -5   5   5    0.21    0.04
  -5   5   5    0.26    0.05
   5   5  -5    0.26    0.05
   5   5  -5    0.26    0.06
   5   5  -5    0.38    0.07
  -4  -5   5    4.95    0.42
  -4   5   5    6.23    0.39
   4   5  -5    5.76    0.42
  -4   5   5    6.03    0.40
   4   5  -5    4.99    0.40
   4   5  -5    5.45    0.38
   4   5  -5    5.55    0.42
  -4   5   5    4.63    0.39
   3   5  -5    6.75    0.56
   3   5  -5    8.56    0.54
  -3   5   5    8.00    0.55
   3   5  -5    7.96    0.60
   3   5  -5    7.91    0.60
  -3   5   5    8.09    0.57
   2   5  -5   25.38    1.98
   2   5  -5   26.66    1.98
  -2   5   5   25.86    1.86
  -2   5   5   28.69    1.91
   2   5  -5   27.21    1.88
   2   5  -5   26.55    1.81
   1   5  -5    1.50    0.14
   1   5  -5    1.54    0.12
  -1   5   5    1.70    0.12
   1   5  -5    1.53    0.15
   1   5  -5    1.55    0.15
  -1   5   5    1.72    0.13
   0  -5   5   14.30    1.06
   0   5  -5   13.30    1.06
   0   5   5   14.71    0.99
   0   5   5   15.71    1.02
   0   5  -5   13.16    1.00
   0   5  -5   13.94    0.97
   1  -5   5   10.98    0.83
   1   5   5   11.24    0.77
  -1   5  -5   11.52    0.76
   1   5   5    9.34    0.78
   1   5   5   12.47    0.80
  -1   5  -5   10.64    0.83
  -1   5  -5   11.28    0.79
   2  -5   5    6.53    0.51
   2   5   5    6.77    0.47
  -2   5  -5    6.39    0.50
  -2   5  -5    6.95    0.46
   2   5   5    5.75    0.47
  -2   5  -5    6.63    0.48
   2   5   5    7.33    0.48
   3  -5   5    0.03    0.03
  -3   5  -5    0.12    0.04
   3   5   5    0.01    0.03
   3   5   5    0.02    0.03
   3   5   5    0.05    0.03
  -3   5  -5    0.03    0.03
   4  -5   5    2.18    0.19
  -4   5  -5    2.21    0.20
  -4   5  -5    2.42    0.18
   4   5   5    2.51    0.19
   4   5   5    2.31    0.18
   4   5   5    2.48    0.18
  -4   5  -5    2.31    0.19
   5  -5   5    8.23    0.62
   5   5   5    8.32    0.54
   5   5   5    8.53    0.57
  -5   5  -5    8.16    0.58
   5   5   5    7.38    0.59
   5   5   5    7.39    0.58
  -5   5  -5    8.49    0.62
  -5   5  -5    8.11    0.56
   6  -5   5    7.31    0.61
  -6   5  -5    8.32    0.61
  -6   5  -5    8.54    0.56
   6   5   5    7.69    0.59
   6   5   5    7.95    0.57
   6   5   5    8.45    0.54
  -6   5  -5    7.77    0.58
   6   5   5    8.22    0.58
   7  -5   5   14.17    1.14
   7   5   5   15.29    1.07
  -7   5  -5   15.86    1.07
  -7   5  -5   14.88    1.04
   7   5   5   13.32    1.10
   7   5   5   15.46    1.07
  -7   5  -5   15.74    1.14
   7   5   5   16.48    1.01
   8  -5   5    0.72    0.11
   8   5   5    0.71    0.10
  -8   5  -5    0.78    0.08
  -8   5  -5    0.73    0.08
  -8   5  -5    0.68    0.09
   8   5   5    0.77    0.10
  -8   5  -5    0.57    0.10
   8   5   5    0.70    0.08
  -9   5  -5    0.22    0.06
  -9   5  -5    0.26    0.07
   9   5   5    0.27    0.06
  -9   5  -5    0.21    0.06
   9   5   5    0.39    0.05
   9   5   5    0.29    0.06
  10  -5   5    0.21    0.07
  10   5   5    0.24    0.05
 -10   5  -5    0.21    0.05
 -10   5  -5    0.17    0.05
 -10   5  -5    0.21    0.05
  10   5   5    0.09    0.06
  10   5   5    0.13    0.05
  11   5   5    0.25    0.04
 -10  -6   5    0.05    0.04
 -10   6   5    0.01    0.03
  10   6  -5    0.12    0.05
  10   6  -5    0.05    0.07
  -9  -6   5    0.25    0.06
  -9   6   5    0.27    0.04
   9   6  -5    0.24    0.05
   9   6  -5    0.40    0.07
   9   6  -5    0.30    0.07
  -9   6   5    0.19    0.07
  -8  -6   5    0.05    0.05
   8   6  -5   -0.05    0.07
   8   6  -5    0.04    0.05
  -8   6   5    0.02    0.03
   8   6  -5    0.08    0.08
  -8   6   5    0.01    0.06
  -7  -6   5    3.91    0.33
   7   6  -5    3.80    0.30
  -7   6   5    3.45    0.31
   7   6  -5    3.83    0.28
   7   6  -5    4.66    0.32
  -6  -6   5    1.03    0.13
   6   6  -5    1.14    0.13
   6   6  -5    0.90    0.11
  -6   6   5    0.96    0.09
   6   6  -5    1.16    0.13
   6   6  -5    1.07    0.13
  -6   6   5    1.02    0.11
   5   6  -5    5.67    0.42
  -5   6   5    5.43    0.40
   5   6  -5    5.95    0.44
   5   6  -5    5.92    0.40
   5   6  -5    5.49    0.44
  -5   6   5    5.55    0.42
   4   6  -5    1.45    0.16
  -4   6   5    1.47    0.12
   4   6  -5    1.58    0.15
   4   6  -5    1.61    0.15
   4   6  -5    1.39    0.13
  -4   6   5    1.45    0.13
   3   6  -5   23.07    1.43
  -3   6   5   20.79    1.51
   3   6  -5   19.64    1.48
  -3   6   5   20.61    1.47
   3   6  -5   19.29    1.57
   3   6  -5   22.78    1.57
   2   6  -5    0.84    0.11
   2   6  -5    1.14    0.12
   2   6  -5    0.91    0.12
   2   6  -5    0.79    0.09
  -2   6   5    1.15    0.10
   1   6  -5    0.13    0.05
  -1   6   5    0.13    0.04
   1   6  -5    0.16    0.06
  -1   6   5    0.18    0.03
   1   6  -5    0.19    0.05
   1   6  -5    0.14    0.07
   0   6  -5    4.70    0.38
   0   6  -5    4.73    0.37
   0   6   5    5.61    0.39
   0   6  -5    5.25    0.40
   0   6   5    5.62    0.37
   1  -6   5    1.16    0.14
  -1   6  -5    1.22    0.12
  -1   6  -5    1.26    0.11
  -1   6  -5    1.38    0.13
   1   6   5    1.56    0.11
   1   6   5    1.40    0.12
   2  -6   5    1.02    0.11
   2   6   5    1.26    0.09
   2   6   5    0.98    0.10
  -2   6  -5    0.99    0.11
  -2   6  -5    1.26    0.12
   2   6   5    1.26    0.11
  -2   6  -5    1.19    0.11
   3  -6   5    1.88    0.18
  -3   6  -5    2.05    0.16
   3   6   5    2.13    0.15
  -3   6  -5    2.16    0.18
   3   6   5    1.94    0.16
   3   6   5    1.71    0.16
  -3   6  -5    2.02    0.17
   4  -6   5    0.52    0.07
   4   6   5    0.67    0.07
  -4   6  -5    0.42    0.07
  -4   6  -5    0.57    0.08
   4   6   5    0.46    0.06
  -4   6  -5    0.52    0.07
   4   6   5    0.52    0.06
   5  -6   5    5.29    0.47
  -5   6  -5    6.56    0.46
   5   6   5    5.40    0.43
   5   6   5    6.58    0.43
   5   6   5    5.44    0.45
   5   6   5    6.31    0.41
  -5   6  -5    5.84    0.42
  -5   6  -5    6.49    0.44
   6  -6   5    0.01    0.06
   6   6   5    0.02    0.05
   6   6   5   -0.01    0.05
  -6   6  -5    0.03    0.06
   6   6   5    0.06    0.05
  -6   6  -5    0.06    0.06
   6   6   5    0.03    0.05
  -6   6  -5   -0.01    0.04
   7   6   5    2.74    0.19
  -7   6  -5    2.41    0.20
   7   6   5    2.19    0.19
   7   6   5    1.92    0.19
   7   6   5    2.60    0.19
  -7   6  -5    2.47    0.20
  -7   6  -5    2.24    0.18
  -8   6  -5    0.67    0.08
   8   6   5    0.67    0.08
   8   6   5    0.83    0.10
  -8   6  -5    0.74    0.09
   8   6   5    0.66    0.07
  -8   6  -5    0.68    0.08
   9   6   5    0.55    0.07
  -9   6  -5    0.47    0.07
   9   6   5    0.46    0.07
  -9   6  -5    0.36    0.07
   9   6   5    0.57    0.07
  -9   6  -5    0.38    0.07
  10   6   5    0.07    0.03
  -8  -7   5    0.66    0.09
  -8   7   5    0.52    0.05
   8   7  -5    0.70    0.07
   8   7  -5    0.67    0.08
  -7   7   5    0.52    0.07
   7   7  -5    0.58    0.07
  -7   7   5    0.53    0.05
   7   7  -5    0.61    0.07
   7   7  -5    0.67    0.10
   6   7  -5    0.13    0.06
  -6   7   5    0.15    0.06
  -6   7   5    0.20    0.03
   6   7  -5    0.15    0.04
   6   7  -5    0.26    0.06
   5   7  -5    0.29    0.06
   5   7  -5    0.35    0.05
   5   7  -5    0.28    0.05
  -5   7   5    0.22    0.03
  -5   7   5    0.39    0.07
  -4   7   5    1.60    0.14
   4   7  -5    1.47    0.13
   4   7  -5    1.45    0.16
   4   7  -5    1.62    0.15
   3   7  -5    0.58    0.08
   3   7  -5    0.63    0.09
  -3   7   5    0.46    0.07
   3   7  -5    0.56    0.07
   3   7  -5    0.51    0.08
  -3   7   5    0.54    0.06
   2   7  -5    0.10    0.05
  -2   7   5    0.08    0.04
  -2   7   5    0.07    0.03
   2   7  -5    0.03    0.04
   2   7  -5    0.09    0.06
   2   7  -5    0.03    0.06
  -1   7   5    1.70    0.15
  -1   7   5    1.79    0.13
   1   7  -5    1.63    0.15
   1   7  -5    1.85    0.17
   1   7  -5    1.98    0.17
   0   7  -5   15.01    1.05
   0   7  -5   14.74    1.01
   0   7  -5   14.81    1.10
   0   7   5   14.33    1.03
  -1   7  -5    0.00    0.04
   1   7   5    0.08    0.05
  -1   7  -5    0.02    0.04
   1   7   5    0.01    0.04
  -1   7  -5    0.08    0.05
  -1   7  -5    0.01    0.06
  -2   7  -5    9.28    0.68
   2   7   5    9.18    0.63
  -2   7  -5    8.56    0.64
  -2   7  -5    9.04    0.62
   2   7   5    8.81    0.66
   3  -7   5    1.21    0.14
  -3   7  -5    1.39    0.13
  -3   7  -5    1.43    0.14
   3   7   5    1.22    0.13
   3   7   5    1.47    0.11
  -3   7  -5    1.52    0.13
  -4   7  -5    0.03    0.05
  -4   7  -5    0.04    0.04
   4   7   5    0.08    0.04
  -4   7  -5   -0.02    0.06
   4   7   5    0.12    0.04
  -5   7  -5    0.43    0.07
  -5   7  -5    0.51    0.08
  -5   7  -5    0.68    0.08
   5   7   5    0.60    0.06
   5   7   5    0.52    0.07
   5   7   5    0.47    0.07
  -6   7  -5    0.08    0.04
   6   7   5    0.07    0.04
  -6   7  -5    0.18    0.05
   6   7   5    0.11    0.03
   6   7   5    0.17    0.04
  -6   7  -5    0.08    0.04
   7   7   5    0.02    0.04
   7   7   5    0.01    0.04
  -7   7  -5    0.05    0.05
  -7   7  -5    0.05    0.04
  -7   7  -5    0.05    0.03
   8   7   5    0.02    0.03
  -8   7  -5    0.02    0.04
   8   7   5    0.06    0.04
   6   8  -5    0.10    0.05
   5   8  -5    4.33    0.35
  -5   8   5    4.59    0.35
   5   8  -5    4.92    0.34
  -4   8   5    0.04    0.01
  -4   8   5   -0.03    0.03
   4   8  -5    0.03    0.05
   4   8  -5    0.07    0.05
   4   8  -5    0.01    0.04
  -3   8   5    2.64    0.22
   3   8  -5    2.69    0.21
   3   8  -5    2.70    0.20
   3   8  -5    2.72    0.21
  -3   8   5    2.67    0.19
   2   8  -5    0.02    0.04
   2   8  -5   -0.01    0.03
  -2   8   5    0.00    0.05
  -2   8   5    0.00    0.02
   2   8  -5   -0.01    0.05
   1   8  -5    3.07    0.25
  -1   8   5    3.04    0.25
  -1   8   5    3.39    0.23
   1   8  -5    3.51    0.26
   1   8  -5    3.17    0.23
   0   8  -5    1.44    0.12
   0   8   5    1.38    0.13
   0   8  -5    1.45    0.13
   0   8  -5    1.21    0.12
   0   8   5    1.36    0.10
  -1   8  -5    1.20    0.11
  -1   8  -5    1.46    0.13
   1   8   5    1.04    0.08
   1   8   5    0.83    0.11
  -1   8  -5    1.02    0.10
   2   8   5    0.24    0.06
  -2   8  -5    0.33    0.05
  -2   8  -5    0.25    0.07
  -2   8  -5    0.29    0.05
   2   8   5    0.33    0.04
   3   8   5    0.03    0.05
   3   8   5    0.06    0.03
  -3   8  -5    0.06    0.03
  -3   8  -5    0.04    0.05
  -3   8  -5    0.08    0.04
  -4   8  -5    0.18    0.06
   4   8   5    0.11    0.03
  -4   8  -5    0.07    0.05
   4   8   5    0.13    0.04
   4   8   5    0.09    0.05
   5   8   5    0.02    0.02
  -5   8  -5    0.00    0.04
   5   8   5    0.03    0.03
   6   8   5    0.64    0.06
   6   8   5    0.75    0.07
  12   0  -6    0.04    0.04
 -12   0   6    0.04    0.05
 -11   0   6   10.62    0.85
  11   0  -6   12.18    0.79
 -10   0   6    0.05    0.06
 -10   0   6    0.08    0.05
 -10   0   6    0.00    0.05
  10   0  -6    0.08    0.04
  -9   0   6   10.37    0.77
   9   0  -6   10.90    0.83
  -9   0   6   12.17    0.82
  -9   0   6   10.86    0.75
  -9   0   6   10.44    0.81
  -8   0   6    0.18    0.05
  -8   0   6    0.19    0.04
  -8   0   6    0.21    0.04
  -8   0   6    0.18    0.04
   8   0  -6    0.17    0.05
  -7   0   6    6.15    0.46
  -7   0   6    6.18    0.47
  -7   0   6    6.88    0.47
  -7   0   6    6.29    0.45
  -7   0   6    5.58    0.43
   7   0  -6    6.70    0.48
  -6   0   6   39.90    2.72
  -6   0   6   36.51    2.77
   6   0  -6   39.75    2.77
  -6   0   6   37.83    2.68
  -6   0   6   35.25    2.61
  -6   0   6   35.87    2.53
  -5   0   6   52.78    3.93
  -5   0   6   60.05    4.03
  -5   0   6   51.31    3.79
  -5   0   6   63.63    4.08
   5   0  -6   59.25    4.16
  -5   0   6   51.76    4.17
  -4   0   6   19.53    1.28
  -4   0   6   16.05    1.19
   4   0  -6   17.47    1.31
  -3   0   6    0.12    0.02
   3   0  -6    0.10    0.02
  -3   0   6    0.07    0.02
  -2   0   6  453.81   30.80
  -2   0   6  426.38   31.15
   2   0  -6  415.67   31.78
   1   0  -6   42.84    3.15
   0   0   6  261.20   19.21
   1   0   6   15.74    1.28
   1   0   6   18.94    1.24
   2   0   6  348.38   23.63
   2   0   6  314.89   24.39
   3   0   6    0.17    0.03
   3   0   6    0.15    0.03
  -4   0  -6    2.20    0.17
   4   0   6    2.32    0.19
  -4   0  -6    2.48    0.19
   4   0   6    2.59    0.19
   4   0   6    2.48    0.17
   4   0   6    2.52    0.19
   5   0   6   60.18    4.08
   5   0   6   64.42    4.46
   5   0   6   54.67    4.35
  -5   0  -6   67.34    4.51
   5   0   6   60.55    4.61
   5   0   6   63.24    4.35
   5   0   6   66.17    4.60
  -5   0  -6   63.13    4.20
   6   0   6   17.96    1.35
   6   0   6   15.51    1.27
  -6   0  -6   19.61    1.32
  -6   0  -6   18.62    1.23
   6   0   6   19.12    1.35
   6   0   6   17.81    1.19
   6   0   6   18.32    1.28
   6   0   6   18.46    1.31
  -7   0  -6   11.24    0.81
  -7   0  -6   11.24    0.75
   7   0   6   10.61    0.77
   7   0   6   11.01    0.82
   7   0   6   10.34    0.72
   7   0   6   11.07    0.82
   8   0   6    4.02    0.30
  -8   0  -6    3.64    0.30
   8   0   6    3.91    0.27
  -8   0  -6    3.93    0.28
   8   0   6    3.66    0.31
   8   0   6    3.95    0.29
   9   0   6    5.21    0.38
  -9   0  -6    4.80    0.40
   9   0   6    4.77    0.40
  -9   0  -6    4.90    0.36
   9   0   6    5.95    0.40
 -10   0  -6    9.94    0.79
  10   0   6   11.41    0.76
 -10   0  -6   11.21    0.73
  10   0   6    9.79    0.80
 -11   0  -6    5.37    0.49
  11   0   6    6.95    0.49
 -11   0  -6    6.59    0.45
 -12   0  -6    1.22    0.13
  12   0   6    1.48    0.13
 -12   0  -6    1.28    0.11
  13   0   6    0.11    0.04
 -13   0  -6    0.15    0.05
 -13  -1   6    0.02    0.04
 -13   1   6   -0.03    0.04
 -12  -1   6   -0.01    0.06
  12   1  -6    0.03    0.06
 -12   1   6   -0.04    0.04
 -11  -1   6   -0.02    0.06
 -11  -1   6    0.01    0.05
  11   1  -6    0.01    0.04
 -11   1   6   -0.01    0.06
 -11   1   6   -0.01    0.04
 -11   1   6   -0.05    0.06
  11   1  -6    0.01    0.04
 -10  -1   6    0.06    0.06
 -10  -1   6    0.06    0.07
  10  -1  -6    0.04    0.04
 -10   1   6    0.08    0.05
 -10   1   6    0.07    0.06
 -10   1   6    0.08    0.03
  10   1  -6   -0.04    0.05
  10   1  -6    0.02    0.04
 -10   1   6    0.00    0.04
  -9  -1   6    3.77    0.28
  -9  -1   6    3.47    0.28
   9  -1  -6    3.09    0.28
  -9   1   6    3.43    0.28
  -9   1   6    3.18    0.26
   9   1  -6    3.77    0.25
  -9   1   6    3.52    0.27
  -9   1   6    3.48    0.25
  -9   1   6    3.12    0.27
   9   1  -6    3.52    0.28
   8  -1  -6    1.73    0.15
  -8  -1   6    2.00    0.17
  -8  -1   6    1.84    0.15
  -8   1   6    1.57    0.15
  -8   1   6    1.74    0.14
   8   1  -6    1.98    0.14
  -8   1   6    1.74    0.15
  -8   1   6    1.58    0.14
  -8   1   6    1.79    0.15
   8   1  -6    1.89    0.16
  -7  -1   6    0.49    0.06
  -7  -1   6    0.48    0.05
  -7  -1   6    0.40    0.05
  -7  -1   6    0.49    0.07
   7  -1  -6    0.32    0.05
  -7   1   6    0.34    0.04
  -7   1   6    0.38    0.06
   7   1  -6    0.47    0.07
  -7   1   6    0.32    0.05
  -7   1   6    0.41    0.06
  -7   1   6    0.36    0.05
  -6  -1   6    0.13    0.03
  -6  -1   6    0.15    0.03
   6  -1  -6    0.14    0.03
  -6  -1   6    0.19    0.04
  -6  -1   6    0.11    0.04
  -6   1   6    0.13    0.04
  -6   1   6    0.08    0.02
  -6   1   6    0.10    0.03
   6   1  -6    0.16    0.03
  -6   1   6    0.13    0.03
  -5  -1   6    3.59    0.27
  -5  -1   6    4.07    0.27
  -5  -1   6    3.28    0.24
   5  -1  -6    3.34    0.27
  -5  -1   6    3.81    0.27
  -5   1   6    3.20    0.27
  -5   1   6    3.77    0.26
   5   1  -6    3.63    0.27
  -5   1   6    3.61    0.27
   5   1  -6    3.16    0.25
  -5   1   6    3.89    0.25
  -4  -1   6    6.08    0.43
   4  -1  -6    5.60    0.44
  -4  -1   6    6.29    0.43
  -4   1   6    5.69    0.43
   4   1  -6    5.99    0.44
  -4   1   6    6.00    0.42
   4   1  -6    5.23    0.40
  -3  -1   6   74.11    4.98
   3  -1  -6   69.53    5.08
  -3  -1   6   70.59    4.93
   3   1  -6   61.71    4.64
   3   1  -6   69.03    5.08
  -3   1   6   67.50    4.98
  -3   1   6   70.83    4.92
  -2  -1   6    1.21    0.09
  -2  -1   6    1.22    0.10
   2   1  -6    1.24    0.09
  -2   1   6    1.01    0.09
  -1  -1   6    5.76    0.43
  -1  -1   6    5.81    0.42
   0  -1   6   50.23    3.79
   0  -1   6   52.72    3.67
   1  -1   6   18.62    1.38
   1  -1   6   20.50    1.34
   1   1   6   17.08    1.38
   2  -1   6   29.69    2.00
  -2  -1  -6   26.78    2.02
   2  -1   6   26.93    2.07
   2   1   6   30.14    2.00
   2   1   6   26.61    2.06
  -3  -1  -6   17.98    1.30
   3  -1   6   17.89    1.29
   3  -1   6   18.79    1.33
   3   1   6   18.79    1.29
  -3   1  -6   17.00    1.21
   3   1   6   17.59    1.33
   4  -1   6    2.28    0.20
  -4  -1  -6    2.79    0.20
  -4  -1  -6    2.53    0.18
   4  -1   6    2.54    0.20
   4   1   6    2.50    0.17
   4   1   6    2.74    0.19
   4   1   6    2.45    0.18
   4   1   6    2.49    0.19
  -4   1  -6    2.57    0.18
   4   1   6    2.73    0.20
   5  -1   6   18.69    1.26
  -5  -1  -6   17.92    1.29
   5  -1   6   18.44    1.38
   5  -1   6   17.84    1.42
  -5  -1  -6   20.09    1.39
   5  -1   6   21.05    1.42
  -5   1  -6   18.32    1.30
   5   1   6   18.73    1.26
   5   1   6   20.39    1.42
   5   1   6   18.77    1.34
   5   1   6   21.17    1.38
   5   1   6   18.51    1.34
   5   1   6   19.41    1.42
  -6  -1  -6    7.51    0.53
   6  -1   6    7.42    0.53
   6  -1   6    6.87    0.47
   6  -1   6    6.84    0.53
   6  -1   6    6.91    0.50
  -6  -1  -6    6.75    0.48
   6   1   6    6.92    0.50
  -6   1  -6    7.05    0.49
  -6   1  -6    7.33    0.53
  -6   1  -6    6.20    0.50
   6   1   6    7.14    0.47
   6   1   6    7.25    0.53
   6   1   6    7.34    0.50
   6   1   6    7.14    0.53
   6   1   6    7.36    0.52
  -7  -1  -6    1.17    0.10
   7  -1   6    1.08    0.09
   7  -1   6    1.21    0.11
   7  -1   6    1.17    0.11
  -7  -1  -6    1.22    0.11
  -7   1  -6    1.21    0.11
   7   1   6    1.03    0.10
  -7   1  -6    1.16    0.09
   7   1   6    1.12    0.10
   7   1   6    1.21    0.10
   7   1   6    1.06    0.09
   7   1   6    1.16    0.11
  -7   1  -6    0.88    0.10
   7   1   6    1.11    0.11
   8  -1   6    1.26    0.12
   8  -1   6    1.32    0.12
  -8  -1  -6    1.12    0.12
  -8  -1  -6    1.37    0.11
   8   1   6    1.28    0.12
   8   1   6    1.14    0.10
  -8   1  -6    1.15    0.12
   8   1   6    1.17    0.12
  -8   1  -6    1.24    0.10
   8   1   6    1.11    0.10
  -8   1  -6    1.04    0.10
   9  -1   6   11.92    0.83
   9  -1   6   10.66    0.83
  -9  -1  -6   11.70    0.75
  -9  -1  -6   10.41    0.81
  -9   1  -6   10.17    0.77
   9   1   6   10.43    0.73
   9   1   6    9.68    0.82
   9   1   6   12.18    0.82
  -9   1  -6    9.35    0.82
  -9   1  -6   11.94    0.75
  -9   1  -6   10.25    0.81
   9   1   6   12.25    0.78
  10  -1   6    0.01    0.04
  10  -1   6    0.02    0.07
 -10  -1  -6   -0.04    0.05
  10   1   6    0.04    0.04
 -10   1  -6   -0.06    0.06
  10   1   6   -0.01    0.06
 -10   1  -6    0.00    0.04
 -10   1  -6    0.00    0.06
  10   1   6    0.08    0.06
  11  -1   6    4.97    0.38
 -11  -1  -6    4.46    0.34
 -11   1  -6    4.87    0.35
  11   1   6    5.24    0.37
  11   1   6    4.91    0.38
 -11   1  -6    4.52    0.38
 -12  -1  -6    0.02    0.05
  12  -1   6    0.07    0.05
  12   1   6    0.10    0.05
 -12   1  -6    0.05    0.04
 -12   1  -6    0.10    0.05
  13  -1   6    0.25    0.05
 -13  -1  -6    0.12    0.05
  13   1   6    0.22    0.04
 -13   1  -6    0.19    0.06
 -13  -2   6    0.45    0.05
 -13   2   6    0.36    0.05
  13   2  -6    0.32    0.08
 -13   2   6    0.58    0.07
 -12  -2   6    0.28    0.06
  12   2  -6    0.26    0.06
 -12   2   6    0.18    0.06
  12   2  -6    0.21    0.05
 -12   2   6    0.30    0.06
 -11  -2   6    0.93    0.12
 -11   2   6    0.72    0.08
  11   2  -6    0.59    0.08
 -10  -2   6    0.12    0.05
 -10  -2   6    0.14    0.08
 -10   2   6    0.11    0.04
 -10   2   6    0.10    0.06
  10   2  -6    0.09    0.05
 -10   2   6    0.11    0.04
 -10   2   6    0.10    0.03
  10   2  -6    0.08    0.04
 -10   2   6    0.17    0.06
  -9  -2   6   10.24    0.74
  -9  -2   6    9.41    0.74
  -9   2   6    9.41    0.72
   9   2  -6    9.90    0.67
  -9   2   6   10.59    0.73
  -9   2   6    9.13    0.67
  -9   2   6   10.80    0.69
   9   2  -6    9.15    0.75
  -9   2   6    9.32    0.73
  -8  -2   6    3.56    0.27
  -8  -2   6    3.58    0.27
  -8   2   6    3.11    0.26
   8   2  -6    3.46    0.28
  -8   2   6    3.05    0.26
  -8   2   6    3.18    0.25
  -8   2   6    2.86    0.23
  -8   2   6    3.48    0.25
   8   2  -6    3.81    0.25
  -7  -2   6   13.78    0.99
   7  -2  -6   12.76    1.00
  -7  -2   6   13.73    1.00
  -7   2   6   13.29    0.94
  -7   2   6   13.47    0.97
   7   2  -6   14.60    1.00
  -7   2   6   13.19    0.98
   7   2  -6   14.50    0.91
  -7   2   6   11.55    0.91
  -7   2   6   13.01    0.99
  -6  -2   6    0.08    0.05
  -6  -2   6    0.09    0.04
   6  -2  -6    0.14    0.03
   6   2  -6    0.10    0.03
   6   2  -6    0.10    0.04
   6   2  -6    0.12    0.03
  -6   2   6    0.11    0.03
  -6   2   6    0.19    0.03
  -6   2   6    0.13    0.02
  -6   2   6    0.14    0.02
  -6   2   6    0.16    0.03
  -5  -2   6   10.58    0.74
  -5  -2   6   11.77    0.82
  -5  -2   6   10.75    0.81
  -5  -2   6   10.72    0.83
   5  -2  -6   10.92    0.83
  -5   2   6   11.70    0.80
   5   2  -6   11.51    0.76
  -5   2   6   11.33    0.78
   5   2  -6   11.36    0.83
  -5   2   6   10.87    0.81
  -4  -2   6    0.22    0.04
  -4  -2   6    0.21    0.03
  -4  -2   6    0.16    0.02
   4  -2  -6    0.11    0.02
  -4  -2   6    0.22    0.04
   4   2  -6    0.19    0.03
   4   2  -6    0.20    0.03
  -4   2   6    0.16    0.03
  -4   2   6    0.20    0.02
  -4   2   6    0.12    0.02
  -3  -2   6    6.20    0.45
  -3  -2   6    6.23    0.46
  -3   2   6    6.32    0.44
   3   2  -6    6.34    0.46
  -3   2   6    6.08    0.45
   3   2  -6    5.59    0.42
  -2  -2   6    3.63    0.28
   2   2  -6    3.78    0.26
   2   2  -6    4.02    0.29
  -2   2   6    3.61    0.27
  -1  -2   6   15.84    1.08
  -1  -2   6   15.58    1.11
   1   2  -6   13.77    1.02
   0  -2   6    0.57    0.06
   0  -2   6    0.70    0.06
   0   2  -6    0.56    0.05
   1  -2   6    5.24    0.36
   1  -2   6    4.55    0.35
  -1   2  -6    4.51    0.33
   2  -2   6    3.21    0.25
   2  -2   6    3.59    0.25
   2   2   6    3.45    0.24
  -2   2  -6    3.22    0.23
   2   2   6    2.99    0.25
   3  -2   6    4.30    0.29
   3  -2   6    3.72    0.29
   3   2   6    3.92    0.28
   3   2   6    3.84    0.29
   3   2   6    3.51    0.27
   3   2   6    3.74    0.26
  -3   2  -6    3.85    0.27
  -4  -2  -6    0.33    0.03
   4  -2   6    0.36    0.04
   4  -2   6    0.34    0.05
   4  -2   6    0.35    0.04
   4   2   6    0.28    0.04
   4   2   6    0.36    0.05
   4   2   6    0.34    0.04
  -4   2  -6    0.37    0.04
   4   2   6    0.34    0.04
   4   2   6    0.34    0.04
  -5  -2  -6    5.34    0.44
  -5  -2  -6    5.61    0.41
   5  -2   6    6.02    0.45
   5  -2   6    6.04    0.40
   5  -2   6    6.59    0.46
   5   2   6    6.15    0.43
  -5   2  -6    5.42    0.45
   5   2   6    6.10    0.40
  -5   2  -6    6.02    0.41
  -5   2  -6    5.41    0.42
   5   2   6    6.53    0.44
   5   2   6    6.12    0.45
   5   2   6    6.19    0.42
   5   2   6    6.05    0.45
   6  -2   6    3.72    0.26
   6  -2   6    3.24    0.26
  -6  -2  -6    3.25    0.23
   6   2   6    3.29    0.25
  -6   2  -6    3.56    0.24
   6   2   6    3.35    0.26
  -6   2  -6    2.80    0.26
  -6   2  -6    3.19    0.24
   6   2   6    3.12    0.24
   6   2   6    3.18    0.22
   6   2   6    3.26    0.24
   6   2   6    3.46    0.25
  -7  -2  -6    0.53    0.06
   7  -2   6    0.65    0.09
   7  -2   6    0.75    0.09
   7   2   6    0.71    0.08
   7   2   6    0.64    0.06
   7   2   6    0.70    0.08
   7   2   6    0.71    0.08
   7   2   6    0.65    0.08
  -7   2  -6    0.59    0.08
  -7   2  -6    0.70    0.08
   7   2   6    0.81    0.07
  -7   2  -6    0.57    0.08
  -7   2  -6    0.61    0.08
   8  -2   6   27.54    1.94
   8  -2   6   25.99    1.93
  -8  -2  -6   27.96    1.76
   8   2   6   24.67    1.82
  -8   2  -6   27.97    1.76
  -8   2  -6   25.41    1.90
  -8   2  -6   24.47    1.82
  -8   2  -6   23.86    1.93
   8   2   6   22.94    1.87
   8   2   6   23.88    1.93
   8   2   6   26.68    1.71
   8   2   6   27.76    1.93
   8   2   6   29.19    1.83
  -9  -2  -6    2.75    0.21
   9  -2   6    2.84    0.24
   9  -2   6    3.02    0.24
   9   2   6    2.75    0.21
  -9   2  -6    2.50    0.23
  -9   2  -6    2.86    0.21
  -9   2  -6    2.84    0.24
   9   2   6    2.49    0.21
   9   2   6    2.28    0.23
   9   2   6    3.06    0.23
  -9   2  -6    2.79    0.22
   9   2   6    3.03    0.23
  10  -2   6    8.68    0.62
 -10  -2  -6    8.02    0.56
  10  -2   6    7.41    0.62
 -10   2  -6    7.99    0.58
 -10   2  -6    7.55    0.62
  10   2   6    8.88    0.61
  10   2   6    7.89    0.54
  10   2   6    8.36    0.58
 -10   2  -6    8.25    0.56
 -10   2  -6    7.01    0.61
  11  -2   6    0.82    0.10
  11   2   6    0.69    0.10
 -11   2  -6    0.62    0.09
 -11   2  -6    0.67    0.08
  11   2   6    0.71    0.08
 -11   2  -6    0.56    0.08
  12  -2   6    0.06    0.06
 -12   2  -6    0.02    0.04
  12   2   6    0.01    0.03
  12   2   6   -0.04    0.04
 -12   2  -6   -0.02    0.06
 -12   2  -6    0.00    0.05
  12   2   6    0.01    0.03
  13  -2   6    0.09    0.04
 -13   2  -6    0.09    0.05
 -13  -3   6   -0.05    0.04
 -13   3   6    0.04    0.03
 -12  -3   6    0.06    0.06
 -12   3   6    0.04    0.03
  12   3  -6   -0.05    0.07
  12   3  -6    0.04    0.04
 -12   3   6    0.04    0.04
 -11  -3   6    0.16    0.06
 -11   3   6    0.16    0.05
  11   3  -6    0.21    0.08
 -11   3   6    0.12    0.04
  11   3  -6    0.22    0.06
 -10  -3   6    1.31    0.15
 -10  -3   6    0.87    0.14
 -10   3   6    1.53    0.11
  10   3  -6    1.33    0.13
 -10   3   6    1.19    0.13
 -10   3   6    1.20    0.12
  10   3  -6    1.15    0.13
 -10   3   6    1.30    0.11
  10   3  -6    1.23    0.13
  -9  -3   6    1.73    0.17
  -9  -3   6    2.11    0.18
   9   3  -6    2.04    0.15
   9   3  -6    1.76    0.18
   9   3  -6    1.92    0.16
  -9   3   6    2.01    0.15
  -9   3   6    1.61    0.16
  -9   3   6    1.72    0.16
   9   3  -6    1.77    0.18
  -9   3   6    1.80    0.15
  -8  -3   6    2.17    0.21
  -8  -3   6    2.36    0.20
  -8   3   6    2.31    0.19
  -8   3   6    2.02    0.19
  -8   3   6    2.69    0.18
   8   3  -6    2.32    0.20
  -8   3   6    2.33    0.18
   8   3  -6    2.26    0.18
   8   3  -6    2.18    0.19
   8   3  -6    1.96    0.20
  -7  -3   6    0.15    0.06
  -7  -3   6    0.13    0.05
  -7   3   6    0.19    0.04
   7   3  -6    0.19    0.06
  -7   3   6    0.21    0.05
   7   3  -6    0.19    0.06
   7   3  -6    0.24    0.04
  -7   3   6    0.19    0.04
   7   3  -6    0.22    0.06
  -6  -3   6    7.40    0.59
  -6  -3   6    7.87    0.59
  -6   3   6    8.47    0.57
   6   3  -6    8.11    0.54
   6   3  -6    6.60    0.59
   6   3  -6    8.24    0.60
  -6   3   6    8.66    0.55
  -6   3   6    7.26    0.57
   6   3  -6    7.44    0.56
  -6   3   6    7.90    0.55
  -5  -3   6    1.31    0.12
  -5  -3   6    1.32    0.12
  -5  -3   6    1.36    0.11
  -5   3   6    1.42    0.11
   5   3  -6    1.39    0.12
  -5   3   6    1.29    0.10
   5   3  -6    1.56    0.13
   5   3  -6    1.13    0.12
  -5   3   6    1.46    0.11
  -5   3   6    1.39    0.10
   5   3  -6    1.45    0.11
  -4  -3   6    1.84    0.16
  -4  -3   6    2.04    0.17
  -4  -3   6    1.87    0.14
  -4   3   6    2.12    0.15
  -4   3   6    2.16    0.14
   4   3  -6    2.13    0.16
   4   3  -6    1.64    0.17
  -4   3   6    2.12    0.15
   4   3  -6    2.07    0.15
   4   3  -6    1.86    0.16
  -3  -3   6   19.98    1.59
  -3  -3   6   19.64    1.40
   3   3  -6   20.10    1.44
   3   3  -6   23.58    1.59
  -3   3   6   19.78    1.55
  -3   3   6   23.88    1.49
  -3   3   6   22.69    1.53
  -2  -3   6   35.95    3.05
  -2   3   6   41.84    2.94
   2   3  -6   43.35    3.05
   2   3  -6   43.56    2.78
  -2   3   6   41.61    2.87
  -1  -3   6   43.64    2.95
  -1   3   6   35.45    2.85
   1   3  -6   40.05    2.69
  -1   3   6   39.42    2.85
  -1   3   6   41.43    2.78
   0  -3   6   45.65    3.09
   0   3   6   38.84    2.99
   0   3   6   43.38    2.99
   0   3   6   40.27    2.92
   0   3  -6   41.51    2.82
   1  -3   6    8.57    0.63
   1   3   6    8.88    0.60
  -1   3  -6    7.64    0.57
   1   3   6    8.59    0.59
   2  -3   6    2.05    0.15
   2  -3   6    1.66    0.15
   2   3   6    1.76    0.13
   2   3   6    1.91    0.14
  -2   3  -6    2.01    0.14
   3  -3   6    0.05    0.02
   3  -3   6    0.05    0.03
  -3   3  -6    0.04    0.03
  -3   3  -6   -0.01    0.03
   3   3   6    0.02    0.02
  -3   3  -6    0.04    0.02
   3   3   6    0.03    0.02
   3   3   6    0.02    0.02
   4  -3   6    1.35    0.12
   4  -3   6    1.13    0.11
   4   3   6    1.27    0.10
   4   3   6    1.54    0.10
   4   3   6    1.36    0.11
  -4   3  -6    1.18    0.11
  -4   3  -6    1.22    0.11
  -4   3  -6    1.12    0.10
   4   3   6    1.28    0.10
   4   3   6    1.51    0.11
   4   3   6    1.26    0.10
   5  -3   6    5.97    0.44
   5   3   6    5.77    0.42
  -5   3  -6    6.22    0.42
   5   3   6    5.67    0.44
   5   3   6    5.69    0.44
   5   3   6    5.02    0.40
   5   3   6    6.23    0.43
   5   3   6    6.20    0.39
   5   3   6    5.85    0.42
  -5   3  -6    6.03    0.45
   6  -3   6   -0.01    0.03
   6  -3   6    0.02    0.03
   6   3   6    0.03    0.03
  -6   3  -6    0.09    0.04
   6   3   6    0.04    0.04
   6   3   6    0.00    0.04
  -6   3  -6    0.02    0.04
   6   3   6    0.04    0.04
   6   3   6    0.08    0.03
  -6   3  -6    0.02    0.04
   6   3   6    0.05    0.03
   7  -3   6    4.34    0.35
   7  -3   6    4.24    0.35
   7   3   6    4.52    0.32
  -7   3  -6    4.88    0.32
  -7   3  -6    4.26    0.35
  -7   3  -6    4.27    0.32
  -7   3  -6    4.56    0.35
   7   3   6    4.46    0.31
   7   3   6    4.53    0.33
   7   3   6    4.44    0.34
   7   3   6    4.52    0.34
   7   3   6    4.04    0.34
   8  -3   6    0.93    0.12
   8  -3   6    1.09    0.13
  -8   3  -6    1.04    0.10
  -8   3  -6    0.84    0.10
  -8   3  -6    0.92    0.13
   8   3   6    1.11    0.09
   8   3   6    1.06    0.11
   8   3   6    1.16    0.10
   8   3   6    1.14    0.11
   8   3   6    1.29    0.11
   8   3   6    0.95    0.10
  -8   3  -6    1.07    0.11
   8   3   6    1.15    0.12
   9  -3   6    0.08    0.07
   9  -3   6    0.31    0.06
   9   3   6    0.14    0.05
  -9   3  -6    0.13    0.07
   9   3   6    0.26    0.07
   9   3   6    0.20    0.05
   9   3   6    0.24    0.05
   9   3   6    0.21    0.06
  -9   3  -6    0.21    0.05
  -9   3  -6    0.23    0.08
   9   3   6    0.13    0.06
  -9   3  -6    0.18    0.06
  10  -3   6    0.13    0.06
  10   3   6    0.14    0.04
  10   3   6    0.23    0.06
 -10   3  -6    0.09    0.04
  10   3   6    0.15    0.04
 -10   3  -6    0.16    0.06
  10   3   6    0.17    0.06
  10   3   6    0.23    0.06
 -10   3  -6    0.20    0.08
  11  -3   6    0.23    0.08
 -11   3  -6    0.21    0.06
  11   3   6    0.24    0.06
 -11   3  -6    0.22    0.05
  11   3   6    0.22    0.04
  11   3   6    0.26    0.06
 -11   3  -6    0.26    0.06
  12   3   6    0.33    0.05
 -12   3  -6    0.25    0.05
 -12   3  -6    0.23    0.07
 -12  -4   6    0.41    0.06
 -12   4   6    0.31    0.04
  12   4  -6    0.45    0.06
 -11  -4   6   -0.02    0.07
  11   4  -6    0.04    0.05
 -11   4   6    0.06    0.05
  11   4  -6   -0.01    0.07
  11   4  -6    0.11    0.04
 -11   4   6    0.05    0.04
 -10  -4   6    0.22    0.08
  10   4  -6    0.19    0.05
 -10   4   6    0.18    0.04
  10   4  -6    0.19    0.06
 -10   4   6    0.15    0.06
  10   4  -6    0.14    0.06
 -10   4   6    0.18    0.04
  -9  -4   6    2.40    0.22
  -9  -4   6    1.81    0.22
   9   4  -6    2.11    0.21
   9   4  -6    2.55    0.22
   9   4  -6    2.30    0.18
  -9   4   6    2.29    0.18
  -9   4   6    2.26    0.20
  -9   4   6    2.45    0.18
   9   4  -6    2.44    0.21
  -8  -4   6    1.57    0.16
  -8  -4   6    1.36    0.15
  -8   4   6    1.48    0.13
   8   4  -6    1.75    0.13
   8   4  -6    1.54    0.15
  -8   4   6    1.56    0.13
   8   4  -6    1.49    0.15
  -8   4   6    1.40    0.13
   8   4  -6    1.59    0.14
  -7  -4   6    0.28    0.06
  -7  -4   6    0.28    0.08
   7   4  -6    0.31    0.07
  -7   4   6    0.39    0.05
   7   4  -6    0.29    0.07
   7   4  -6    0.29    0.08
   7   4  -6    0.37    0.06
  -7   4   6    0.43    0.05
  -7   4   6    0.34    0.06
  -6  -4   6    6.03    0.49
   6   4  -6    6.22    0.49
  -6   4   6    6.78    0.45
  -6   4   6    6.43    0.47
  -6   4   6    5.88    0.45
   6   4  -6    6.29    0.47
   6   4  -6    6.64    0.50
   6   4  -6    6.93    0.45
  -5  -4   6    0.07    0.03
  -5   4   6    0.09    0.03
   5   4  -6    0.02    0.04
  -5   4   6    0.02    0.03
   5   4  -6    0.09    0.04
  -5   4   6    0.06    0.02
   5   4  -6    0.06    0.04
  -4  -4   6    5.03    0.42
  -4   4   6    5.58    0.40
   4   4  -6    4.87    0.40
   4   4  -6    5.29    0.42
   4   4  -6    5.51    0.38
   4   4  -6    6.18    0.42
  -4   4   6    5.59    0.38
  -3  -4   6    0.83    0.09
   3   4  -6    1.13    0.08
   3   4  -6    1.02    0.10
  -3   4   6    0.93    0.08
   3   4  -6    0.95    0.09
  -3   4   6    0.80    0.07
  -2  -4   6    1.30    0.13
   2   4  -6    1.70    0.13
  -2   4   6    1.45    0.11
   2   4  -6    1.80    0.12
   2   4  -6    1.58    0.14
   2   4  -6    1.91    0.14
  -2   4   6    1.44    0.12
  -1  -4   6   46.68    3.89
  -1  -4   6   55.14    3.88
   1   4  -6   55.17    3.54
  -1   4   6   57.52    3.75
   1   4  -6   49.60    3.89
   1   4  -6   51.53    3.67
   0  -4   6    2.66    0.21
   0  -4   6    2.49    0.21
   0   4   6    2.90    0.19
   0   4  -6    2.27    0.21
   0   4  -6    2.68    0.20
   0   4   6    2.80    0.19
   0   4  -6    2.60    0.19
   1  -4   6   25.18    1.75
   1  -4   6   20.96    1.75
  -1   4  -6   23.51    1.65
   1   4   6   23.78    1.64
  -1   4  -6   22.48    1.59
   1   4   6   25.40    1.68
   2  -4   6    7.10    0.60
   2  -4   6    8.50    0.61
  -2   4  -6    8.57    0.55
   2   4   6    8.41    0.58
  -2   4  -6    8.00    0.57
  -2   4  -6    7.22    0.60
   2   4   6    8.34    0.56
   3  -4   6    0.01    0.02
   3  -4   6   -0.01    0.04
   3   4   6    0.03    0.02
  -3   4  -6   -0.01    0.04
  -3   4  -6   -0.03    0.03
  -3   4  -6    0.02    0.02
   3   4   6    0.02    0.02
   3   4   6    0.01    0.02
   4  -4   6    3.28    0.26
   4  -4   6    2.77    0.25
  -4   4  -6    3.21    0.23
   4   4   6    3.47    0.24
  -4   4  -6    3.07    0.25
  -4   4  -6    3.26    0.24
   4   4   6    3.49    0.23
   4   4   6    2.99    0.23
   5  -4   6    0.74    0.08
   5  -4   6    0.64    0.09
  -5   4  -6    0.82    0.08
   5   4   6    0.77    0.07
   5   4   6    0.65    0.08
  -5   4  -6    0.65    0.09
  -5   4  -6    0.72    0.08
   5   4   6    0.81    0.08
   5   4   6    0.74    0.07
   6  -4   6    4.18    0.36
   6  -4   6    4.20    0.36
   6   4   6    4.65    0.35
   6   4   6    5.00    0.33
  -6   4  -6    4.52    0.34
   6   4   6    4.75    0.32
   6   4   6    4.77    0.34
  -6   4  -6    4.55    0.36
  -6   4  -6    4.71    0.33
   7  -4   6    0.07    0.04
   7  -4   6    0.17    0.06
  -7   4  -6    0.07    0.06
  -7   4  -6    0.07    0.04
   7   4   6    0.11    0.04
   7   4   6    0.13    0.05
   7   4   6    0.15    0.05
   7   4   6    0.28    0.05
  -7   4  -6    0.12    0.05
   8  -4   6    0.07    0.07
   8  -4   6    0.09    0.05
  -8   4  -6    0.06    0.05
   8   4   6    0.09    0.06
   8   4   6    0.10    0.04
   8   4   6    0.13    0.04
  -8   4  -6    0.06    0.06
  -8   4  -6    0.13    0.07
   8   4   6    0.10    0.05
  -8   4  -6    0.15    0.07
   9  -4   6    5.10    0.41
  -9   4  -6    5.38    0.40
   9   4   6    5.38    0.38
   9   4   6    5.44    0.39
  -9   4  -6    5.10    0.38
  -9   4  -6    4.20    0.40
  -9   4  -6    5.13    0.37
   9   4   6    5.53    0.36
  10  -4   6    0.14    0.07
  10   4   6    0.12    0.04
 -10   4  -6    0.01    0.07
  10   4   6    0.10    0.04
  10   4   6    0.09    0.07
 -10   4  -6    0.08    0.04
 -10   4  -6    0.04    0.06
  11  -4   6    0.27    0.06
  11   4   6    0.15    0.04
 -11   4  -6    0.28    0.05
  11   4   6    0.16    0.04
  11   4   6    0.15    0.07
 -11   4  -6    0.23    0.06
 -11   4  -6    0.24    0.06
 -12   4  -6    0.04    0.03
 -11  -5   6    0.03    0.04
 -11   5   6    0.01    0.03
  11   5  -6    0.01    0.06
 -10  -5   6    1.75    0.16
 -10   5   6    1.57    0.13
  10   5  -6    1.63    0.13
  10   5  -6    1.91    0.16
 -10   5   6    1.19    0.15
  10   5  -6    1.43    0.14
  -9  -5   6    0.94    0.13
  -9   5   6    0.83    0.08
  -9   5   6    0.76    0.11
   9   5  -6    0.78    0.11
   9   5  -6    0.77    0.10
   9   5  -6    0.86    0.10
  -8  -5   6    0.00    0.05
  -8   5   6   -0.01    0.04
   8   5  -6    0.05    0.05
   8   5  -6    0.05    0.06
   8   5  -6   -0.01    0.06
   8   5  -6    0.06    0.07
  -8   5   6    0.07    0.06
  -7  -5   6    1.37    0.16
   7   5  -6    1.52    0.14
   7   5  -6    1.73    0.13
   7   5  -6    1.49    0.16
   7   5  -6    1.58    0.16
  -7   5   6    1.37    0.13
  -7   5   6    1.38    0.12
  -6  -5   6   12.21    0.99
   6   5  -6   13.81    0.90
   6   5  -6   13.26    0.94
  -6   5   6   12.77    0.95
  -6   5   6   13.19    0.92
   6   5  -6   12.82    0.99
   6   5  -6   13.50    0.99
  -5  -5   6    0.73    0.11
  -5   5   6    0.87    0.09
   5   5  -6    0.97    0.12
   5   5  -6    1.01    0.09
  -5   5   6    0.89    0.08
   5   5  -6    0.97    0.12
   5   5  -6    1.14    0.12
  -4  -5   6    7.89    0.69
  -4   5   6    9.51    0.66
  -4   5   6    9.15    0.64
   4   5  -6    9.51    0.70
   4   5  -6    9.63    0.69
   4   5  -6    9.62    0.63
   4   5  -6    8.55    0.65
  -3  -5   6   22.26    1.89
   3   5  -6   26.02    1.89
  -3   5   6   25.67    1.77
   3   5  -6   29.14    1.72
   3   5  -6   22.30    1.79
   3   5  -6   26.20    1.89
  -3   5   6   26.45    1.82
  -2  -5   6    0.99    0.10
  -2   5   6    1.25    0.10
   2   5  -6    1.13    0.11
   2   5  -6    1.32    0.11
  -2   5   6    1.04    0.09
   2   5  -6    1.28    0.12
  -1   5   6   16.28    1.19
   1   5  -6   16.65    1.27
   1   5  -6   17.59    1.16
   1   5  -6   16.19    1.20
   1   5  -6   16.93    1.27
  -1   5   6   18.59    1.22
   0  -5   6    7.97    0.66
   0  -5   6    8.62    0.66
   0   5  -6    9.15    0.60
   0   5   6    8.50    0.61
   0   5   6    9.38    0.63
   0   5  -6    8.34    0.62
   0   5  -6    8.96    0.66
   1  -5   6    0.90    0.10
   1  -5   6    0.78    0.10
  -1   5  -6    0.83    0.09
  -1   5  -6    0.79    0.11
   1   5   6    1.08    0.07
  -1   5  -6    0.93    0.09
   1   5   6    1.04    0.08
   2  -5   6    5.14    0.45
   2  -5   6    5.74    0.46
  -2   5  -6    6.40    0.42
  -2   5  -6    6.02    0.46
   2   5   6    5.99    0.42
   2   5   6    6.34    0.44
  -2   5  -6    6.14    0.43
   3  -5   6    2.07    0.18
   3  -5   6    1.74    0.17
  -3   5  -6    2.19    0.17
   3   5   6    1.92    0.16
   3   5   6    2.16    0.16
   3   5   6    2.20    0.15
  -3   5  -6    2.12    0.16
   4  -5   6    9.69    0.83
   4  -5   6   10.65    0.83
   4   5   6   11.44    0.80
   4   5   6    9.89    0.78
   4   5   6   11.49    0.77
  -4   5  -6   11.45    0.78
  -4   5  -6   11.79    0.83
  -4   5  -6   11.57    0.75
   5  -5   6    1.07    0.12
   5  -5   6    1.10    0.11
  -5   5  -6    1.24    0.10
   5   5   6    1.17    0.10
   5   5   6    1.11    0.10
  -5   5  -6    1.05    0.13
   5   5   6    1.03    0.11
  -5   5  -6    1.21    0.10
   5   5   6    1.01    0.10
   6  -5   6    6.59    0.54
   6  -5   6    5.88    0.54
  -6   5  -6    7.03    0.50
  -6   5  -6    7.08    0.53
   6   5   6    7.31    0.47
   6   5   6    7.08    0.50
   6   5   6    6.88    0.52
   6   5   6    7.43    0.50
  -6   5  -6    7.56    0.49
   7  -5   6    0.20    0.07
   7  -5   6    0.14    0.05
  -7   5  -6    0.19    0.07
  -7   5  -6    0.20    0.05
   7   5   6    0.24    0.05
   7   5   6    0.22    0.05
   7   5   6    0.21    0.06
   7   5   6    0.16    0.06
  -7   5  -6    0.23    0.05
   8  -5   6    2.02    0.19
   8   5   6    2.32    0.17
   8   5   6    2.10    0.17
  -8   5  -6    2.11    0.17
   8   5   6    1.70    0.17
  -8   5  -6    2.44    0.19
   8   5   6    1.99    0.16
  -8   5  -6    2.19    0.17
   9  -5   6    0.60    0.08
   9   5   6    0.58    0.08
   9   5   6    0.52    0.07
  -9   5  -6    0.55    0.09
   9   5   6    0.63    0.07
  -9   5  -6    0.60    0.08
  -9   5  -6    0.59    0.08
  10  -5   6    0.08    0.05
  10   5   6    0.05    0.04
 -10   5  -6    0.11    0.04
 -10   5  -6    0.06    0.04
  10   5   6    0.09    0.04
  10   5   6    0.04    0.05
 -10   5  -6    0.09    0.04
  11   5   6    1.19    0.11
 -10  -6   6    0.10    0.04
  10   6  -6    0.09    0.05
 -10   6   6    0.04    0.02
  -9  -6   6    2.90    0.24
  -9   6   6    2.92    0.21
   9   6  -6    3.06    0.22
  -9   6   6    2.61    0.24
   9   6  -6    2.72    0.23
   9   6  -6    3.11    0.23
  -8  -6   6    0.09    0.07
  -8   6   6    0.01    0.03
   8   6  -6   -0.03    0.05
  -8   6   6    0.00    0.04
   8   6  -6   -0.02    0.07
   8   6  -6    0.04    0.05
  -7  -6   6    0.16    0.08
   7   6  -6    0.16    0.06
  -7   6   6    0.22    0.06
  -7   6   6    0.11    0.03
   7   6  -6    0.17    0.08
   7   6  -6    0.25    0.08
  -6  -6   6    0.23    0.06
   6   6  -6    0.39    0.08
   6   6  -6    0.33    0.07
   6   6  -6    0.28    0.06
  -6   6   6    0.26    0.04
  -6   6   6    0.28    0.06
   6   6  -6    0.21    0.06
  -5  -6   6    7.44    0.63
   5   6  -6    9.18    0.63
   5   6  -6    8.22    0.61
   5   6  -6    7.74    0.64
  -5   6   6    8.52    0.61
   5   6  -6    8.00    0.57
  -5   6   6    8.59    0.58
  -4  -6   6    5.03    0.44
   4   6  -6    5.93    0.39
   4   6  -6    5.85    0.44
  -4   6   6    5.53    0.39
   4   6  -6    5.65    0.42
  -4   6   6    5.83    0.42
   4   6  -6    5.18    0.44
  -3  -6   6   10.85    0.90
   3   6  -6   13.07    0.91
   3   6  -6   10.35    0.85
  -3   6   6   13.18    0.84
  -3   6   6   12.98    0.87
   3   6  -6   11.24    0.90
   3   6  -6   12.11    0.82
  -2   6   6   16.39    1.15
   2   6  -6   15.55    1.20
  -2   6   6   16.06    1.12
   2   6  -6   16.52    1.09
   2   6  -6   17.14    1.14
   2   6  -6   14.44    1.20
   1   6  -6    5.53    0.39
  -1   6   6    5.27    0.38
   1   6  -6    4.87    0.41
   1   6  -6    5.38    0.37
   1   6  -6    5.35    0.41
  -1   6   6    4.84    0.37
   0   6  -6    8.34    0.56
   0   6   6    8.32    0.59
   0   6  -6    8.19    0.59
   0   6   6    7.95    0.57
   0   6  -6    7.89    0.62
   1  -6   6    0.13    0.06
  -1   6  -6    0.16    0.04
   1   6   6    0.09    0.04
  -1   6  -6    0.17    0.05
   1   6   6    0.13    0.03
  -1   6  -6    0.14    0.06
   2  -6   6    7.66    0.63
   2   6   6    8.58    0.58
  -2   6  -6    8.89    0.57
  -2   6  -6    7.51    0.59
   2   6   6    8.16    0.60
  -2   6  -6    8.67    0.63
   3  -6   6    1.62    0.15
   3   6   6    1.73    0.13
  -3   6  -6    1.74    0.16
  -3   6  -6    1.90    0.15
  -3   6  -6    1.71    0.14
   3   6   6    1.63    0.14
   4  -6   6    5.28    0.46
   4   6   6    6.14    0.42
   4   6   6    5.44    0.43
  -4   6  -6    6.00    0.46
  -4   6  -6    6.22    0.43
  -4   6  -6    6.23    0.42
   5  -6   6    1.14    0.12
   5   6   6    1.27    0.10
  -5   6  -6    1.10    0.11
   5   6   6    1.13    0.11
  -5   6  -6    1.16    0.13
   5   6   6    1.32    0.10
   5   6   6    1.12    0.11
  -5   6  -6    1.02    0.12
   6  -6   6    1.35    0.14
   6   6   6    1.60    0.12
  -6   6  -6    1.56    0.15
   6   6   6    1.30    0.13
   6   6   6    1.45    0.12
  -6   6  -6    1.59    0.14
  -6   6  -6    1.58    0.14
   6   6   6    1.38    0.14
  -7   6  -6    1.17    0.11
   7   6   6    1.31    0.11
   7   6   6    1.36    0.11
   7   6   6    1.13    0.11
  -7   6  -6    1.18    0.11
   7   6   6    1.12    0.11
  -7   6  -6    1.29    0.13
   8   6   6    2.66    0.22
  -8   6  -6    2.82    0.23
   8   6   6    3.04    0.22
   8   6   6    3.05    0.21
  -8   6  -6    3.09    0.23
  -8   6  -6    3.09    0.23
   9  -6   6    0.05    0.05
   9   6   6    0.17    0.05
  -9   6  -6    0.08    0.05
   9   6   6    0.12    0.04
   9   6   6    0.11    0.05
  -9   6  -6    0.13    0.05
  -8  -7   6    0.13    0.07
   8   7  -6    0.22    0.05
   8   7  -6    0.19    0.06
  -7  -7   6    0.19    0.06
  -7   7   6    0.22    0.05
   7   7  -6    0.29    0.05
   7   7  -6    0.25    0.06
   7   7  -6    0.37    0.08
  -6  -7   6    0.03    0.07
  -6   7   6   -0.01    0.05
   6   7  -6   -0.01    0.06
   6   7  -6    0.14    0.06
   6   7  -6    0.07    0.05
   5   7  -6    0.04    0.05
   5   7  -6    0.11    0.07
  -5   7   6    0.07    0.05
   5   7  -6    0.10    0.05
  -4   7   6    0.04    0.02
   4   7  -6    0.01    0.06
  -4   7   6    0.00    0.05
   4   7  -6    0.01    0.04
   4   7  -6    0.01    0.07
  -3   7   6    7.59    0.53
   3   7  -6    6.51    0.50
   3   7  -6    7.91    0.55
   3   7  -6    7.48    0.53
  -3   7   6    7.30    0.50
   3   7  -6    6.30    0.55
  -2   7   6    0.05    0.03
   2   7  -6   -0.04    0.06
  -2   7   6    0.02    0.04
   2   7  -6   -0.02    0.06
   2   7  -6   -0.03    0.06
   2   7  -6   -0.02    0.05
   1   7  -6   12.03    0.84
   1   7  -6    9.57    0.84
  -1   7   6   11.46    0.81
   1   7  -6   11.70    0.77
  -1   7   6   11.03    0.78
   0   7   6    0.25    0.04
   0   7  -6    0.32    0.07
   0   7  -6    0.37    0.07
   0   7  -6    0.30    0.07
   0   7  -6    0.26    0.06
   0   7   6    0.42    0.06
   1   7   6    1.71    0.15
  -1   7  -6    1.44    0.15
  -1   7  -6    1.81    0.15
   1   7   6    1.86    0.13
  -1   7  -6    1.73    0.16
  -1   7  -6    1.93    0.16
   2   7   6    4.59    0.33
  -2   7  -6    5.14    0.37
   2   7   6    3.99    0.35
  -2   7  -6    5.11    0.34
  -2   7  -6    4.67    0.35
   3  -7   6    9.69    0.86
  -3   7  -6   12.43    0.86
   3   7   6   11.38    0.80
  -3   7  -6   11.84    0.82
  -3   7  -6   12.36    0.79
   3   7   6   11.07    0.83
   4   7   6   -0.02    0.05
   4   7   6    0.01    0.03
   4   7   6    0.16    0.05
  -4   7  -6   -0.01    0.04
  -4   7  -6   -0.09    0.06
  -4   7  -6   -0.01    0.06
   5   7   6    3.43    0.23
   5   7   6    3.43    0.23
  -5   7  -6    3.22    0.24
  -5   7  -6    3.12    0.26
   5   7   6    2.78    0.25
  -5   7  -6    3.13    0.25
  -6   7  -6    0.34    0.06
  -6   7  -6    0.44    0.07
   6   7   6    0.29    0.06
   6   7   6    0.40    0.05
  -6   7  -6    0.34    0.06
   6   7   6    0.35    0.06
  -7   7  -6    3.08    0.24
   7   7   6    3.20    0.22
   7   7   6    3.31    0.22
  -7   7  -6    2.62    0.22
   8   7   6    0.02    0.02
   8   7   6    0.00    0.05
   6   8  -6    0.12    0.03
   5   8  -6    0.06    0.05
   5   8  -6    0.06    0.04
  -5   8   6    0.11    0.04
   4   8  -6    0.40    0.05
  -4   8   6    0.33    0.06
   4   8  -6    0.47    0.08
   4   8  -6    0.29    0.05
   3   8  -6    0.09    0.05
   3   8  -6    0.07    0.05
   3   8  -6    0.03    0.05
  -3   8   6    0.06    0.05
   2   8  -6    0.07    0.04
   2   8  -6    0.03    0.04
   2   8  -6    0.06    0.05
  -2   8   6    0.10    0.05
  -1   8   6    0.18    0.05
   1   8  -6    0.22    0.06
   1   8  -6    0.25    0.07
   1   8  -6    0.24    0.05
   0   8  -6    1.58    0.14
   0   8   6    1.59    0.14
   0   8  -6    1.66    0.14
  -1   8  -6    0.08    0.05
  -1   8  -6    0.11    0.05
  -1   8  -6    0.19    0.06
   1   8   6    0.12    0.05
  -2   8  -6    1.85    0.15
  -2   8  -6    1.57    0.14
   2   8   6    1.83    0.12
  -2   8  -6    1.66    0.14
   2   8   6    1.62    0.15
   3   8   6    0.13    0.05
  -3   8  -6    0.09    0.04
  -3   8  -6    0.11    0.04
  -3   8  -6    0.18    0.05
   3   8   6    0.13    0.02
   4   8   6    0.32    0.05
   4   8   6    0.40    0.04
  -4   8  -6    0.31    0.04
  -4   8  -6    0.42    0.06
   4   8   6    0.41    0.05
   5   8   6    0.08    0.02
  -5   8  -6    0.11    0.04
   5   8   6    0.16    0.05
   6   8   6    1.12    0.10
  12   0  -7   -0.02    0.03
 -12   0   7   -0.05    0.04
 -12   0   7    0.00    0.03
 -11   0   7   -0.04    0.07
  11   0  -7    0.05    0.04
 -11   0   7    0.07    0.06
  11   0  -7   -0.05    0.04
 -11   0   7    0.01    0.04
 -10   0   7    0.02    0.04
  10   0  -7    0.01    0.04
  10   0  -7    0.00    0.04
 -10   0   7    0.01    0.04
 -10   0   7   -0.01    0.04
   9   0  -7   -0.05    0.04
  -9   0   7    0.04    0.04
  -9   0   7    0.07    0.06
  -9   0   7    0.00    0.04
  -9   0   7    0.01    0.04
  -8   0   7   -0.03    0.04
  -8   0   7    0.00    0.03
  -8   0   7    0.09    0.05
  -8   0   7    0.01    0.03
   8   0  -7    0.04    0.04
  -7   0   7    0.01    0.03
   7   0  -7   -0.02    0.03
  -7   0   7    0.02    0.03
  -7   0   7    0.02    0.04
  -7   0   7    0.04    0.03
  -6   0   7    0.00    0.02
  -6   0   7    0.00    0.02
  -6   0   7    0.05    0.04
  -6   0   7    0.02    0.02
   6   0  -7    0.02    0.03
  -5   0   7    0.14    0.03
  -5   0   7    0.07    0.03
   5   0  -7    0.07    0.03
  -5   0   7    0.15    0.03
  -5   0   7    0.11    0.03
  -4   0   7    0.05    0.02
   4   0  -7    0.03    0.01
  -4   0   7    0.03    0.02
  -4   0   7    0.05    0.02
   4   0  -7    0.00    0.02
  -4   0   7    0.03    0.02
  -3   0   7    0.02    0.02
  -3   0   7    0.03    0.02
   3   0  -7    0.05    0.02
  -2   0   7    0.18    0.03
   2   0  -7    0.26    0.03
  -2   0   7    0.28    0.04
   1   0  -7    0.07    0.02
  -1   0   7    0.02    0.02
   0   0   7    0.26    0.03
   0   0   7    0.24    0.03
   1   0   7    0.74    0.07
   1   0   7    0.92    0.07
   2   0   7    0.02    0.02
   2   0   7    0.03    0.02
   3   0   7    0.00    0.02
   3   0   7    0.01    0.02
  -3   0  -7    0.00    0.02
   4   0   7    0.08    0.03
  -4   0  -7    0.07    0.02
   4   0   7    0.10    0.02
  -4   0  -7    0.08    0.03
   4   0   7    0.08    0.02
   4   0   7    0.09    0.02
   4   0   7    0.11    0.03
   5   0   7    0.03    0.02
  -5   0  -7    0.00    0.03
   5   0   7    0.04    0.03
   5   0   7    0.00    0.03
   5   0   7    0.01    0.02
   5   0   7    0.06    0.02
  -5   0  -7    0.03    0.02
   5   0   7    0.04    0.03
   6   0   7    0.05    0.03
   6   0   7   -0.01    0.03
   6   0   7   -0.01    0.02
   6   0   7    0.01    0.03
  -6   0  -7    0.02    0.02
   6   0   7    0.00    0.02
   6   0   7    0.00    0.03
  -6   0  -7    0.01    0.03
   7   0   7    0.00    0.03
   7   0   7    0.03    0.03
   7   0   7    0.12    0.04
   7   0   7    0.02    0.04
   7   0   7    0.01    0.03
   7   0   7    0.04    0.04
  -7   0  -7    0.02    0.04
  -7   0  -7    0.02    0.03
   8   0   7    0.08    0.05
  -8   0  -7    0.04    0.05
   8   0   7   -0.04    0.03
  -8   0  -7    0.04    0.03
   8   0   7    0.03    0.04
   8   0   7   -0.01    0.05
  -9   0  -7    0.00    0.03
   9   0   7    0.06    0.04
   9   0   7    0.00    0.06
   9   0   7    0.00    0.04
   9   0   7    0.02    0.06
  -9   0  -7    0.00    0.04
 -10   0  -7    0.03    0.05
 -10   0  -7    0.02    0.06
  10   0   7   -0.03    0.04
  10   0   7    0.04    0.06
  11   0   7   -0.01    0.06
 -11   0  -7   -0.03    0.04
 -12   0  -7   -0.01    0.03
  12   0   7   -0.04    0.05
  13   0   7   -0.02    0.03
 -13   1   7    0.30    0.05
 -12  -1   7    3.32    0.26
  12   1  -7    3.55    0.25
 -12   1   7    3.11    0.25
 -11  -1   7    0.32    0.07
 -11   1   7    0.13    0.06
  11   1  -7    0.27    0.06
  11   1  -7    0.22    0.06
 -10  -1   7    0.70    0.10
 -10  -1   7    0.61    0.09
  10   1  -7    0.62    0.09
  10   1  -7    0.69    0.07
 -10   1   7    0.71    0.09
 -10   1   7    0.67    0.07
 -10   1   7    0.45    0.09
  -9  -1   7    0.50    0.06
   9  -1  -7    0.33    0.05
  -9  -1   7    0.42    0.08
  -9  -1   7    0.54    0.07
   9   1  -7    0.49    0.08
   9   1  -7    0.43    0.05
  -9   1   7    0.40    0.06
  -9   1   7    0.44    0.06
  -9   1   7    0.53    0.06
  -9   1   7    0.37    0.07
  -9   1   7    0.26    0.07
  -8  -1   7    0.08    0.05
   8  -1  -7    0.03    0.04
  -8  -1   7    0.06    0.03
  -8  -1   7    0.04    0.04
  -8   1   7    0.01    0.04
  -8   1   7    0.05    0.03
  -8   1   7    0.02    0.05
   8   1  -7    0.05    0.05
  -8   1   7    0.07    0.03
  -8   1   7    0.04    0.04
   8   1  -7    0.05    0.04
  -7  -1   7    0.73    0.09
  -7  -1   7    0.68    0.08
   7  -1  -7    0.65    0.07
  -7  -1   7    0.66    0.07
  -7  -1   7    0.65    0.07
  -7   1   7    0.75    0.07
  -7   1   7    0.64    0.06
   7   1  -7    0.60    0.07
  -7   1   7    0.65    0.06
  -7   1   7    0.79    0.08
   7   1  -7    0.58    0.07
  -7   1   7    0.80    0.08
   6  -1  -7    8.44    0.62
  -6  -1   7    8.74    0.62
  -6  -1   7    8.33    0.62
  -6  -1   7    8.37    0.61
  -6  -1   7    7.87    0.59
  -6   1   7    9.09    0.61
   6   1  -7    8.58    0.57
  -6   1   7    7.27    0.57
   6   1  -7    9.07    0.63
  -6   1   7    8.57    0.62
  -6   1   7    8.01    0.62
  -6   1   7    7.95    0.59
  -5  -1   7    7.35    0.55
   5  -1  -7    7.82    0.56
  -5  -1   7    8.16    0.56
  -5  -1   7    7.06    0.56
  -5  -1   7    6.55    0.53
  -5  -1   7    7.29    0.50
  -5   1   7    6.94    0.56
  -5   1   7    7.12    0.51
  -5   1   7    7.67    0.53
   5   1  -7    7.36    0.51
  -5   1   7    8.33    0.55
  -5   1   7    8.42    0.55
   5   1  -7    8.08    0.57
  -4  -1   7   14.28    0.96
  -4  -1   7   12.03    0.88
  -4  -1   7   12.15    0.99
   4  -1  -7   12.66    0.99
  -4  -1   7   14.07    0.97
   4   1  -7   11.97    0.90
   4   1  -7   14.06    0.99
  -4   1   7   14.36    0.93
  -4   1   7   13.22    0.97
  -4   1   7   14.56    0.96
  -3  -1   7    1.09    0.09
   3  -1  -7    1.08    0.09
  -3  -1   7    1.05    0.10
   3   1  -7    1.04    0.09
  -3   1   7    1.11    0.09
  -3   1   7    1.18    0.08
  -2  -1   7  125.22    8.26
   2   1  -7  117.04    8.52
  -2   1   7  105.14    8.35
  -1  -1   7   28.11    1.93
  -1  -1   7   25.85    1.99
   0  -1   7   65.63    4.58
   0  -1   7   62.74    4.73
   1  -1   7   11.67    0.86
   1   1   7   11.60    0.83
   2  -1   7   67.88    4.53
   2  -1   7   65.53    4.67
   2   1   7   68.36    4.52
   2   1   7   55.48    4.66
  -2   1  -7   59.78    4.26
   3  -1   7    5.74    0.42
  -3  -1  -7    5.75    0.41
   3  -1   7    5.15    0.41
   3  -1   7    5.01    0.42
  -3   1  -7    5.57    0.39
   3   1   7    6.39    0.41
   3   1   7    5.83    0.42
   4  -1   7    3.50    0.24
   4  -1   7    3.50    0.27
   4  -1   7    3.80    0.27
  -4  -1  -7    3.51    0.26
  -4  -1  -7    2.92    0.24
   4   1   7    3.36    0.27
   4   1   7    4.11    0.26
   4   1   7    3.28    0.23
   4   1   7    3.18    0.26
   4   1   7    4.07    0.25
  -4   1  -7    3.23    0.24
   5  -1   7   18.85    1.46
   5  -1   7   16.86    1.37
  -5  -1  -7   20.19    1.43
   5  -1   7   19.64    1.41
   5  -1   7   19.12    1.29
   5  -1   7   20.23    1.46
  -5  -1  -7   19.15    1.33
   5   1   7   20.35    1.46
   5   1   7   19.87    1.46
   5   1   7   19.66    1.38
  -5   1  -7   19.84    1.33
   5   1   7   22.33    1.41
   5   1   7   20.02    1.37
   5   1   7   19.09    1.29
   6  -1   7    0.31    0.04
  -6  -1  -7    0.34    0.05
  -6  -1  -7    0.37    0.05
   6  -1   7    0.34    0.05
   6   1   7    0.41    0.05
  -6   1  -7    0.31    0.05
  -6   1  -7    0.40    0.05
   6   1   7    0.37    0.05
   6   1   7    0.30    0.04
   6   1   7    0.35    0.05
   6   1   7    0.34    0.04
   6   1   7    0.44    0.06
   7  -1   7    2.43    0.18
  -7  -1  -7    2.35    0.21
   7  -1   7    2.86    0.21
   7  -1   7    2.91    0.22
  -7  -1  -7    2.70    0.19
  -7   1  -7    2.81    0.22
   7   1   7    2.55    0.21
   7   1   7    2.42    0.20
   7   1   7    2.60    0.22
   7   1   7    2.63    0.19
  -7   1  -7    2.76    0.19
   7   1   7    2.70    0.20
   7   1   7    2.46    0.21
   8  -1   7    5.34    0.39
   8  -1   7    5.79    0.45
  -8  -1  -7    6.04    0.40
  -8  -1  -7    4.99    0.44
   8  -1   7    5.85    0.44
  -8   1  -7    5.78    0.44
   8   1   7    6.04    0.44
  -8   1  -7    6.34    0.40
   8   1   7    6.22    0.42
   8   1   7    5.28    0.39
   8   1   7    5.17    0.44
   9  -1   7    0.04    0.06
   9  -1   7   -0.01    0.04
  -9  -1  -7    0.01    0.05
   9   1   7    0.05    0.04
   9   1   7    0.03    0.05
   9   1   7    0.01    0.04
  -9   1  -7    0.03    0.06
  -9   1  -7   -0.01    0.03
   9   1   7   -0.02    0.04
   9   1   7    0.02    0.05
  10  -1   7    0.86    0.12
 -10  -1  -7    0.88    0.10
  10  -1   7    1.11    0.12
  10   1   7    0.96    0.10
  10   1   7    0.73    0.08
  10   1   7    0.82    0.11
 -10   1  -7    0.94    0.09
  10   1   7    1.14    0.11
 -10   1  -7    0.92    0.13
 -10   1  -7    0.71    0.11
 -11  -1  -7    2.16    0.18
  11  -1   7    2.37    0.19
 -11   1  -7    2.28    0.18
  11   1   7    2.29    0.19
 -11   1  -7    2.18    0.20
 -12  -1  -7    0.43    0.06
  12  -1   7    0.56    0.07
 -12   1  -7    0.35    0.06
 -12   1  -7    0.33    0.08
  12   1   7    0.49    0.06
  13  -1   7    0.02    0.03
 -13  -2   7    0.04    0.04
 -13   2   7    0.04    0.03
 -12  -2   7    0.02    0.05
 -12   2   7    0.01    0.04
 -12   2   7    0.08    0.05
  12   2  -7    0.00    0.03
 -11  -2   7    1.07    0.12
  11   2  -7    1.01    0.11
 -11   2   7    0.93    0.11
 -10  -2   7    7.79    0.52
 -10  -2   7    6.06    0.52
 -10   2   7    6.61    0.48
 -10   2   7    6.25    0.51
  10   2  -7    7.90    0.48
  10   2  -7    6.09    0.52
  -9  -2   7    6.50    0.45
  -9  -2   7    5.62    0.45
   9   2  -7    6.39    0.41
  -9   2   7    5.83    0.42
  -9   2   7    5.03    0.43
  -9   2   7    5.22    0.44
   9   2  -7    5.79    0.46
  -8  -2   7    0.78    0.11
  -8  -2   7    0.75    0.10
   8   2  -7    0.81    0.09
   8   2  -7    0.74    0.09
  -8   2   7    0.82    0.08
  -8   2   7    0.63    0.09
  -8   2   7    0.66    0.09
  -7  -2   7    1.80    0.16
  -7  -2   7    1.97    0.17
  -7   2   7    1.78    0.15
  -7   2   7    1.67    0.14
   7   2  -7    1.98    0.17
  -7   2   7    1.67    0.15
   7   2  -7    2.21    0.15
  -6  -2   7    5.68    0.44
  -6  -2   7    5.74    0.44
  -6   2   7    6.17    0.42
  -6   2   7    6.05    0.41
   6   2  -7    5.23    0.40
  -6   2   7    5.20    0.43
   6   2  -7    6.16    0.44
  -5  -2   7    2.35    0.21
  -5  -2   7    2.99    0.23
  -5  -2   7    2.85    0.22
  -5  -2   7    2.82    0.20
  -5  -2   7    2.85    0.22
   5   2  -7    2.99    0.23
  -5   2   7    3.07    0.20
   5   2  -7    2.72    0.20
  -5   2   7    3.06    0.21
  -5   2   7    2.88    0.22
  -4  -2   7    9.66    0.66
  -4  -2   7    9.54    0.75
  -4  -2   7    9.32    0.73
  -4  -2   7   10.51    0.74
  -4   2   7   10.81    0.72
   4   2  -7   10.92    0.75
  -4   2   7    9.60    0.73
  -4   2   7   10.19    0.70
   4   2  -7    9.87    0.68
  -3  -2   7   10.02    0.69
  -3  -2   7   10.20    0.68
  -3  -2   7    8.92    0.61
  -3  -2   7    8.71    0.69
  -3   2   7    7.83    0.67
  -3   2   7    9.60    0.65
   3   2  -7   10.26    0.70
  -3   2   7    8.89    0.67
   3   2  -7    9.46    0.63
  -2  -2   7    3.25    0.26
   2   2  -7    3.66    0.27
   2   2  -7    3.66    0.25
  -1  -2   7   25.24    1.72
  -1  -2   7   23.06    1.67
   1   2  -7   21.68    1.57
   0  -2   7   70.46    4.96
   0  -2   7   67.03    4.80
   0   2  -7   64.42    4.52
   1  -2   7   11.39    0.81
   1  -2   7   10.60    0.79
  -1   2  -7   10.71    0.74
   2  -2   7   31.96    2.18
   2  -2   7   27.30    2.19
   2  -2   7   31.50    2.12
   2   2   7   30.92    2.11
   2   2   7   28.42    2.06
  -2   2  -7   27.23    1.99
   3  -2   7    0.42    0.05
   3  -2   7    0.46    0.06
   3  -2   7    0.54    0.06
   3  -2   7    0.50    0.05
   3   2   7    0.42    0.04
   3   2   7    0.35    0.04
   3   2   7    0.40    0.04
  -3   2  -7    0.48    0.05
   3   2   7    0.42    0.05
   4  -2   7   32.51    2.41
   4  -2   7   31.23    2.33
   4  -2   7   31.83    2.13
   4  -2   7   35.68    2.41
   4   2   7   30.95    2.27
   4   2   7   34.19    2.27
   4   2   7   32.76    2.13
   4   2   7   30.28    2.40
  -4   2  -7   33.36    2.20
   4   2   7   36.29    2.33
   4   2   7   29.43    2.41
   5  -2   7   14.97    0.97
  -5  -2  -7   14.04    1.00
   5  -2   7   16.35    1.10
   5  -2   7   14.00    1.10
  -5   2  -7   15.48    1.00
   5   2   7   16.17    1.06
  -5   2  -7   14.13    1.04
   5   2   7   13.97    1.10
   5   2   7   14.38    0.97
   5   2   7   15.36    1.04
   5   2   7   14.05    1.09
   5   2   7   14.32    1.03
   6  -2   7    0.18    0.04
   6  -2   7    0.18    0.03
   6  -2   7    0.19    0.05
  -6  -2  -7    0.23    0.04
   6   2   7    0.14    0.04
   6   2   7    0.16    0.03
   6   2   7    0.15    0.03
   6   2   7    0.15    0.03
   6   2   7    0.17    0.03
  -6   2  -7    0.17    0.04
   6   2   7    0.15    0.04
  -6   2  -7    0.13    0.03
   7  -2   7    6.54    0.50
   7  -2   7    6.68    0.50
  -7  -2  -7    6.87    0.45
   7   2   7    6.99    0.49
   7   2   7    6.93    0.47
   7   2   7    6.85    0.46
  -7   2  -7    6.64    0.46
  -7   2  -7    5.67    0.50
   7   2   7    6.10    0.50
  -7   2  -7    6.35    0.49
  -7   2  -7    6.04    0.47
   7   2   7    6.79    0.44
   7   2   7    6.28    0.48
  -8  -2  -7   11.18    0.72
   8  -2   7   10.73    0.79
   8  -2   7   10.84    0.79
   8   2   7    9.65    0.74
  -8   2  -7   11.60    0.72
  -8   2  -7    9.01    0.79
  -8   2  -7   10.85    0.74
   8   2   7   10.42    0.70
   8   2   7    8.91    0.76
   8   2   7   11.48    0.75
   8   2   7    9.59    0.79
   8   2   7   11.37    0.78
  -8   2  -7   10.21    0.78
  -9  -2  -7   12.50    0.82
   9  -2   7   13.58    0.91
   9  -2   7   11.17    0.90
  -9   2  -7   12.05    0.85
  -9   2  -7   11.33    0.90
  -9   2  -7   13.26    0.83
   9   2   7   12.25    0.80
   9   2   7   13.13    0.86
  -9   2  -7   11.52    0.89
   9   2   7   11.04    0.85
   9   2   7   10.17    0.90
  10  -2   7    0.15    0.05
 -10  -2  -7    0.18    0.05
  10  -2   7    0.17    0.07
 -10   2  -7    0.14    0.04
 -10   2  -7    0.13    0.06
  10   2   7    0.06    0.05
  10   2   7    0.23    0.07
  10   2   7    0.09    0.04
 -10   2  -7    0.11    0.05
  10   2   7    0.13    0.06
  10   2   7    0.14    0.05
 -10   2  -7    0.07    0.05
  11  -2   7    5.84    0.40
 -11   2  -7    4.94    0.37
 -11   2  -7    5.08    0.40
  11   2   7    5.07    0.38
  11   2   7    4.68    0.38
  12  -2   7    0.39    0.07
 -12   2  -7    0.33    0.05
 -12   2  -7    0.38    0.06
 -12  -3   7    0.15    0.06
 -12   3   7    0.21    0.05
 -12   3   7    0.11    0.04
  12   3  -7    0.22    0.08
  12   3  -7    0.18    0.05
 -11  -3   7    0.17    0.07
  11   3  -7    0.20    0.06
 -11   3   7    0.22    0.05
 -11   3   7    0.22    0.05
  11   3  -7    0.30    0.05
 -10  -3   7    1.81    0.16
 -10   3   7    1.47    0.13
 -10   3   7    1.50    0.15
 -10   3   7    1.51    0.14
  10   3  -7    1.64    0.17
  10   3  -7    1.34    0.15
  10   3  -7    1.72    0.13
  -9  -3   7    2.42    0.24
  -9  -3   7    3.27    0.24
  -9   3   7    2.86    0.21
   9   3  -7    2.94    0.22
   9   3  -7    2.78    0.25
  -9   3   7    2.64    0.23
   9   3  -7    2.57    0.24
  -9   3   7    2.78    0.21
  -8  -3   7    1.21    0.11
  -8  -3   7    0.95    0.12
  -8   3   7    1.00    0.11
  -8   3   7    1.14    0.09
   8   3  -7    0.97    0.09
  -8   3   7    0.87    0.10
   8   3  -7    0.95    0.11
  -8   3   7    0.90    0.09
   8   3  -7    1.06    0.13
  -7  -3   7    0.10    0.05
  -7  -3   7    0.11    0.05
  -7   3   7    0.08    0.04
   7   3  -7    0.11    0.04
   7   3  -7    0.12    0.04
   7   3  -7    0.03    0.05
  -7   3   7    0.16    0.03
  -7   3   7    0.06    0.03
  -7   3   7    0.07    0.03
  -6  -3   7    2.69    0.23
  -6  -3   7    2.81    0.23
  -6   3   7    3.08    0.22
  -6   3   7    2.65    0.22
   6   3  -7    2.71    0.22
   6   3  -7    3.10    0.21
  -6   3   7    2.82    0.21
   6   3  -7    3.04    0.24
  -6   3   7    3.04    0.21
  -5  -3   7    9.88    0.74
  -5  -3   7    9.58    0.66
  -5  -3   7    9.22    0.73
   5   3  -7    9.82    0.67
   5   3  -7   10.87    0.75
  -5   3   7   10.58    0.69
  -5   3   7    9.83    0.71
   5   3  -7    9.13    0.70
  -4  -3   7    0.71    0.06
  -4  -3   7    0.82    0.08
   4   3  -7    0.77    0.08
   4   3  -7    0.77    0.08
  -4   3   7    0.66    0.06
   4   3  -7    0.85    0.07
  -4   3   7    0.65    0.06
  -3  -3   7   13.45    0.92
  -3  -3   7   12.59    1.03
  -3   3   7   13.47    0.99
  -3   3   7   13.49    0.97
   3   3  -7   14.53    0.94
   3   3  -7   15.96    1.04
  -2  -3   7   44.08    3.54
  -2  -3   7   45.93    3.13
   2   3  -7   54.30    3.53
   2   3  -7   51.81    3.22
  -2   3   7   41.39    3.41
  -2   3   7   49.37    3.41
  -2   3   7   47.99    3.33
  -1  -3   7   67.91    4.83
  -1  -3   7   71.81    5.45
  -1  -3   7   82.35    5.44
  -1  -3   7   69.88    5.27
  -1   3   7   72.98    5.13
   1   3  -7   78.14    4.96
   0  -3   7    6.17    0.48
   0   3   7    6.01    0.45
   0   3   7    6.11    0.45
   0   3   7    6.28    0.44
   0   3  -7    7.21    0.44
   1  -3   7   46.17    3.69
   1  -3   7   56.45    3.69
   1  -3   7   45.78    3.27
   1   3   7   49.94    3.48
   1   3   7   52.65    3.56
  -1   3  -7   48.81    3.36
   2  -3   7   18.98    1.35
   2  -3   7   16.65    1.20
   2  -3   7   17.10    1.35
   2   3   7   19.05    1.27
  -2   3  -7   17.59    1.23
   2   3   7   19.79    1.30
   3  -3   7    1.29    0.11
   3  -3   7    1.22    0.11
   3  -3   7    1.29    0.10
   3   3   7    1.41    0.10
  -3   3  -7    1.08    0.12
  -3   3  -7    1.31    0.11
  -3   3  -7    1.38    0.10
   3   3   7    1.32    0.10
   4  -3   7    9.96    0.77
   4  -3   7   11.15    0.77
   4   3   7   10.69    0.72
   4   3   7   11.51    0.74
  -4   3  -7    9.23    0.77
  -4   3  -7   10.44    0.70
   4   3   7   10.29    0.68
   4   3   7    9.43    0.72
  -4   3  -7    9.73    0.73
   5  -3   7    0.46    0.06
   5  -3   7    0.50    0.06
   5   3   7    0.49    0.06
  -5   3  -7    0.47    0.06
   5   3   7    0.50    0.06
  -5   3  -7    0.50    0.05
   5   3   7    0.44    0.06
  -5   3  -7    0.47    0.05
   5   3   7    0.43    0.05
   6  -3   7    7.78    0.58
   6  -3   7    7.82    0.59
   6   3   7    8.11    0.55
   6   3   7    7.74    0.56
  -6   3  -7    7.60    0.55
   6   3   7    8.02    0.55
   6   3   7    8.18    0.52
  -6   3  -7    7.16    0.58
   6   3   7    7.65    0.57
  -6   3  -7    8.05    0.53
   6   3   7    6.53    0.58
   7  -3   7   10.94    0.86
   7  -3   7   11.64    0.86
   7   3   7   11.26    0.80
   7   3   7   11.45    0.81
  -7   3  -7   11.52    0.84
  -7   3  -7   12.38    0.78
   7   3   7   11.39    0.84
  -7   3  -7   10.87    0.81
  -7   3  -7   10.73    0.85
   7   3   7   11.18    0.83
   7   3   7   11.39    0.75
   8  -3   7    1.24    0.14
   8  -3   7    1.24    0.14
  -8   3  -7    1.23    0.12
   8   3   7    1.41    0.12
   8   3   7    1.44    0.13
   8   3   7    1.30    0.11
  -8   3  -7    1.13    0.14
   8   3   7    1.30    0.13
  -8   3  -7    1.21    0.11
   8   3   7    1.36    0.11
  -8   3  -7    1.20    0.13
   8   3   7    1.20    0.10
   9  -3   7    0.10    0.07
   9  -3   7    0.07    0.05
   9   3   7   -0.01    0.03
  -9   3  -7    0.01    0.04
  -9   3  -7    0.03    0.05
   9   3   7   -0.03    0.06
   9   3   7    0.04    0.03
  -9   3  -7    0.00    0.04
  -9   3  -7    0.07    0.06
   9   3   7   -0.01    0.04
   9   3   7    0.01    0.05
  10  -3   7    4.06    0.31
  10   3   7    4.07    0.28
  10   3   7    3.85    0.28
 -10   3  -7    3.67    0.28
 -10   3  -7    3.49    0.30
 -10   3  -7    3.32    0.28
  10   3   7    3.63    0.26
  11  -3   7    0.44    0.08
 -11   3  -7    0.38    0.08
  11   3   7    0.41    0.06
  11   3   7    0.36    0.07
 -11   3  -7    0.45    0.06
  11   3   7    0.43    0.07
 -11   3  -7    0.44    0.06
  12  -3   7    0.39    0.07
 -12   3  -7    0.49    0.06
  12   3   7    0.31    0.05
 -12  -4   7    1.51    0.13
  12   4  -7    1.38    0.13
 -12   4   7    1.22    0.10
 -11  -4   7    0.00    0.05
  11   4  -7    0.04    0.04
  11   4  -7   -0.03    0.05
 -11   4   7   -0.03    0.04
 -10  -4   7    1.60    0.16
  10   4  -7    1.54    0.17
  10   4  -7    1.54    0.15
 -10   4   7    1.30    0.15
 -10   4   7    1.58    0.13
 -10   4   7    1.51    0.12
  10   4  -7    1.74    0.13
  -9  -4   7    2.56    0.21
  -9   4   7    2.05    0.18
   9   4  -7    2.37    0.19
  -9   4   7    2.86    0.19
   9   4  -7    2.40    0.21
   9   4  -7    2.39    0.22
  -9   4   7    2.44    0.21
   9   4  -7    2.20    0.22
  -8  -4   7    5.11    0.38
  -8   4   7    4.91    0.35
   8   4  -7    4.89    0.36
   8   4  -7    4.64    0.38
  -8   4   7    4.67    0.36
   8   4  -7    4.57    0.39
  -8   4   7    4.64    0.35
   8   4  -7    4.88    0.35
  -7  -4   7   15.09    1.06
  -7   4   7   15.51    0.99
   7   4  -7   13.27    1.06
   7   4  -7   12.83    1.00
   7   4  -7   14.91    0.96
  -7   4   7   12.88    0.99
  -7   4   7   14.49    1.02
   7   4  -7   13.41    1.06
  -6  -4   7    8.96    0.67
  -6   4   7    9.21    0.64
  -6   4   7    8.96    0.62
   6   4  -7    9.00    0.67
   6   4  -7    7.99    0.67
   6   4  -7    9.04    0.61
   6   4  -7    8.11    0.63
  -5  -4   7    0.53    0.07
   5   4  -7    0.59    0.07
   5   4  -7    0.45    0.06
   5   4  -7    0.47    0.07
   5   4  -7    0.52    0.07
  -5   4   7    0.48    0.07
  -5   4   7    0.50    0.05
  -4  -4   7   36.29    2.94
  -4   4   7   43.26    2.77
   4   4  -7   43.52    2.94
   4   4  -7   41.08    2.68
  -4   4   7   41.23    2.84
   4   4  -7   35.54    2.78
   4   4  -7   37.30    2.95
  -3  -4   7    0.35    0.05
   3   4  -7    0.33    0.06
   3   4  -7    0.24    0.05
   3   4  -7    0.43    0.06
  -3   4   7    0.45    0.04
  -3   4   7    0.52    0.04
  -2  -4   7   51.95    4.19
  -2   4   7   58.53    3.95
   2   4  -7   60.34    4.19
   2   4  -7   57.15    3.96
   2   4  -7   57.00    3.82
  -2   4   7   60.78    4.05
   2   4  -7   51.34    4.20
  -1  -4   7    0.07    0.04
  -1  -4   7    0.08    0.03
   1   4  -7    0.09    0.03
  -1   4   7    0.06    0.01
  -1   4   7    0.05    0.01
   1   4  -7    0.08    0.04
   1   4  -7    0.06    0.03
  -1   4   7    0.07    0.02
   0  -4   7   42.16    3.41
   0  -4   7   48.81    3.41
   0   4  -7   44.29    3.42
   0   4  -7   39.19    3.22
   0   4   7   51.88    3.29
   0   4  -7   48.24    3.11
   0   4   7   48.44    3.21
   1  -4   7    2.09    0.18
   1  -4   7    2.16    0.19
   1   4   7    2.42    0.16
   1   4   7    2.35    0.17
  -1   4  -7    2.33    0.18
  -1   4  -7    2.29    0.17
   2  -4   7    2.59    0.22
   2  -4   7    2.89    0.23
  -2   4  -7    2.70    0.21
   2   4   7    3.05    0.20
  -2   4  -7    2.64    0.21
  -2   4  -7    2.56    0.22
   2   4   7    3.34    0.21
   3  -4   7    6.96    0.53
   3  -4   7    6.38    0.53
   3   4   7    7.12    0.49
   3   4   7    7.57    0.51
  -3   4  -7    7.13    0.48
  -3   4  -7    6.67    0.53
  -3   4  -7    7.02    0.50
   4  -4   7    2.36    0.22
   4  -4   7    2.68    0.23
  -4   4  -7    2.56    0.23
   4   4   7    2.72    0.20
   4   4   7    2.89    0.21
  -4   4  -7    3.16    0.20
   4   4   7    3.03    0.19
   4   4   7    2.73    0.21
  -4   4  -7    2.85    0.21
   5  -4   7    0.04    0.03
   5  -4   7   -0.03    0.04
   5   4   7   -0.01    0.03
  -5   4  -7    0.00    0.04
   5   4   7    0.02    0.02
  -5   4  -7    0.03    0.03
   5   4   7    0.04    0.02
   5   4   7    0.00    0.03
  -5   4  -7   -0.01    0.03
   6  -4   7    0.70    0.11
   6  -4   7    0.84    0.10
   6   4   7    0.87    0.09
   6   4   7    0.94    0.08
  -6   4  -7    0.89    0.09
  -6   4  -7    0.76    0.11
  -6   4  -7    0.76    0.09
   6   4   7    0.86    0.09
   6   4   7    0.84    0.09
   7  -4   7    1.02    0.11
   7  -4   7    1.05    0.11
   7   4   7    1.10    0.11
   7   4   7    1.09    0.11
  -7   4  -7    1.02    0.10
  -7   4  -7    1.08    0.13
   7   4   7    1.11    0.09
   7   4   7    1.01    0.10
  -7   4  -7    1.06    0.11
   8  -4   7    1.90    0.17
   8  -4   7    1.77    0.17
   8   4   7    1.69    0.16
   8   4   7    2.12    0.16
  -8   4  -7    2.00    0.16
  -8   4  -7    1.70    0.17
   8   4   7    1.90    0.15
   8   4   7    2.20    0.17
  -8   4  -7    1.90    0.17
  -8   4  -7    1.75    0.16
   9  -4   7    7.45    0.58
   9   4   7    7.55    0.53
  -9   4  -7    6.91    0.54
   9   4   7    7.38    0.54
  -9   4  -7    7.36    0.52
   9   4   7    7.89    0.51
  -9   4  -7    7.88    0.58
  10  -4   7    1.46    0.15
 -10   4  -7    1.44    0.13
 -10   4  -7    1.39    0.15
  10   4   7    1.45    0.12
  10   4   7    1.26    0.12
  10   4   7    1.19    0.13
 -10   4  -7    1.34    0.12
  11  -4   7    2.08    0.17
  11   4   7    1.85    0.15
  11   4   7    2.11    0.17
 -11   4  -7    2.08    0.16
  11   4   7    1.93    0.15
 -11  -5   7    1.66    0.15
 -11   5   7    1.48    0.12
  11   5  -7    1.62    0.15
 -10  -5   7    0.04    0.05
  10   5  -7    0.00    0.07
 -10   5   7    0.05    0.03
  10   5  -7    0.04    0.05
 -10   5   7   -0.03    0.06
  10   5  -7   -0.02    0.04
  -9  -5   7    0.09    0.05
  -9   5   7    0.04    0.03
  -9   5   7    0.02    0.06
   9   5  -7    0.00    0.04
   9   5  -7    0.05    0.07
   9   5  -7    0.03    0.05
  -8  -5   7    4.05    0.32
  -8   5   7    3.67    0.30
   8   5  -7    3.62    0.30
  -8   5   7    3.74    0.27
   8   5  -7    3.94    0.28
   8   5  -7    3.68    0.32
  -7  -5   7    1.40    0.15
  -7   5   7    1.17    0.11
   7   5  -7    1.04    0.13
   7   5  -7    1.20    0.11
   7   5  -7    1.28    0.13
   7   5  -7    1.33    0.15
  -7   5   7    1.33    0.11
  -6  -5   7    9.41    0.73
   6   5  -7    9.09    0.69
   6   5  -7    9.24    0.73
  -6   5   7   10.69    0.67
  -6   5   7    9.64    0.70
   6   5  -7    9.05    0.73
   6   5  -7    9.75    0.66
  -5  -5   7    4.54    0.39
   5   5  -7    4.62    0.38
   5   5  -7    5.15    0.40
  -5   5   7    5.33    0.38
  -5   5   7    5.46    0.36
   5   5  -7    5.24    0.36
   5   5  -7    4.83    0.40
  -4  -5   7    0.25    0.06
  -4   5   7    0.34    0.04
   4   5  -7    0.27    0.06
   4   5  -7    0.30    0.07
   4   5  -7    0.27    0.05
   4   5  -7    0.20    0.07
  -4   5   7    0.39    0.05
  -3  -5   7    0.29    0.06
  -3   5   7    0.40    0.04
   3   5  -7    0.21    0.06
  -3   5   7    0.32    0.04
   3   5  -7    0.25    0.07
  -2  -5   7    1.96    0.19
   2   5  -7    2.28    0.17
   2   5  -7    2.19    0.19
   2   5  -7    2.20    0.20
   2   5  -7    2.48    0.19
  -2   5   7    2.42    0.17
  -1  -5   7    5.32    0.47
   1   5  -7    6.29    0.48
   1   5  -7    6.47    0.44
  -1   5   7    6.41    0.44
   1   5  -7    5.69    0.45
   1   5  -7    6.46    0.48
  -1   5   7    7.11    0.46
   0  -5   7    5.36    0.41
   0  -5   7    4.95    0.40
   0   5   7    5.75    0.38
   0   5  -7    5.33    0.37
   0   5  -7    5.28    0.39
   0   5  -7    5.22    0.41
   0   5   7    5.00    0.37
   1  -5   7    2.34    0.20
   1  -5   7    2.24    0.20
   1   5   7    2.65    0.19
  -1   5  -7    2.49    0.19
  -1   5  -7    2.26    0.21
   1   5   7    2.61    0.18
  -1   5  -7    2.49    0.19
   2  -5   7    3.13    0.27
   2  -5   7    3.32    0.27
  -2   5  -7    3.39    0.26
   2   5   7    3.76    0.26
  -2   5  -7    3.29    0.25
   2   5   7    3.63    0.24
  -2   5  -7    3.28    0.27
   3  -5   7    0.89    0.10
   3  -5   7    1.02    0.10
  -3   5  -7    1.07    0.10
   3   5   7    0.96    0.08
   3   5   7    0.94    0.09
  -3   5  -7    1.09    0.10
   4  -5   7    6.50    0.52
   4  -5   7    6.21    0.52
  -4   5  -7    6.78    0.49
  -4   5  -7    7.04    0.48
  -4   5  -7    6.91    0.52
   4   5   7    7.01    0.50
   4   5   7    7.02    0.48
   5  -5   7    0.19    0.06
   5  -5   7    0.07    0.06
  -5   5  -7    0.23    0.04
  -5   5  -7    0.26    0.04
   5   5   7    0.17    0.05
   5   5   7    0.24    0.05
   5   5   7    0.18    0.04
   5   5   7    0.15    0.04
  -5   5  -7    0.23    0.05
   6  -5   7    0.64    0.09
   6  -5   7    0.66    0.09
   6   5   7    0.77    0.09
  -6   5  -7    0.67    0.09
   6   5   7    0.76    0.08
   6   5   7    0.73    0.09
  -6   5  -7    0.68    0.09
   6   5   7    0.78    0.08
  -6   5  -7    0.70    0.10
   7  -5   7    0.31    0.06
   7  -5   7    0.29    0.07
   7   5   7    0.31    0.06
  -7   5  -7    0.34    0.05
   7   5   7    0.33    0.06
   7   5   7    0.34    0.06
  -7   5  -7    0.34    0.06
  -7   5  -7    0.34    0.08
   7   5   7    0.22    0.06
   8  -5   7    0.36    0.06
   8   5   7    0.25    0.06
   8   5   7    0.28    0.05
   8   5   7    0.40    0.06
  -8   5  -7    0.38    0.06
   8   5   7    0.27    0.06
  -8   5  -7    0.43    0.07
  -8   5  -7    0.24    0.07
   9  -5   7    0.96    0.12
  -9   5  -7    1.03    0.12
  -9   5  -7    0.91    0.09
   9   5   7    0.96    0.10
   9   5   7    0.95    0.09
   9   5   7    0.94    0.10
  -9   5  -7    0.88    0.11
  10  -5   7    0.15    0.06
  10   5   7    0.15    0.04
  10   5   7    0.16    0.05
  10   5   7    0.17    0.05
 -10   5  -7    0.19    0.04
 -10  -6   7    0.11    0.06
  10   6  -7    0.03    0.05
  -9  -6   7    0.06    0.07
   9   6  -7    0.04    0.05
  -9   6   7    0.07    0.06
   9   6  -7    0.21    0.07
   9   6  -7    0.07    0.05
  -8  -6   7    0.35    0.08
   8   6  -7    0.19    0.06
   8   6  -7    0.16    0.06
  -8   6   7    0.23    0.06
  -8   6   7    0.17    0.03
   8   6  -7    0.26    0.08
  -7  -6   7    2.37    0.21
   7   6  -7    2.36    0.21
  -7   6   7    2.53    0.17
   7   6  -7    2.14    0.19
  -7   6   7    2.65    0.20
   7   6  -7    2.28    0.21
  -6  -6   7    0.84    0.11
  -6   6   7    0.85    0.07
   6   6  -7    0.80    0.10
   6   6  -7    0.94    0.13
   6   6  -7    0.79    0.10
  -6   6   7    0.82    0.10
   6   6  -7    0.96    0.11
  -5  -6   7    4.78    0.41
   5   6  -7    4.82    0.41
  -5   6   7    5.61    0.36
   5   6  -7    5.22    0.40
   5   6  -7    5.16    0.37
   5   6  -7    5.31    0.39
  -5   6   7    5.04    0.38
  -4  -6   7    0.11    0.06
   4   6  -7    0.10    0.04
   4   6  -7    0.09    0.07
   4   6  -7    0.01    0.05
  -4   6   7    0.05    0.04
   4   6  -7    0.16    0.07
  -3  -6   7    2.54    0.24
  -3   6   7    2.98    0.22
   3   6  -7    3.08    0.24
   3   6  -7    2.66    0.21
  -3   6   7    2.99    0.20
   3   6  -7    2.34    0.22
   3   6  -7    2.48    0.24
  -2  -6   7    1.78    0.18
   2   6  -7    1.83    0.19
   2   6  -7    1.74    0.18
   2   6  -7    1.89    0.19
  -2   6   7    2.16    0.16
   2   6  -7    1.74    0.16
  -2   6   7    2.32    0.14
  -1  -6   7    5.99    0.53
   1   6  -7    6.54    0.53
   1   6  -7    7.11    0.53
   1   6  -7    6.93    0.48
   1   6  -7    7.39    0.51
  -1   6   7    7.50    0.50
  -1   6   7    6.77    0.48
   0  -6   7    7.92    0.68
   0   6  -7    8.06    0.68
   0   6  -7    8.82    0.64
   0   6  -7    9.49    0.68
   0   6  -7    9.23    0.62
   0   6   7    9.70    0.65
   0   6   7    9.24    0.63
   1  -6   7    0.41    0.06
   1  -6   7    0.37    0.07
  -1   6  -7    0.34    0.06
  -1   6  -7    0.35    0.08
  -1   6  -7    0.35    0.06
   1   6   7    0.32    0.05
   1   6   7    0.38    0.04
   2  -6   7    4.53    0.39
   2  -6   7    4.54    0.40
  -2   6  -7    5.16    0.40
  -2   6  -7    5.15    0.36
   2   6   7    5.90    0.36
  -2   6  -7    4.67    0.38
   2   6   7    5.55    0.38
   3  -6   7    4.12    0.37
   3  -6   7    4.27    0.36
  -3   6  -7    4.66    0.35
  -3   6  -7    4.89    0.33
  -3   6  -7    4.87    0.37
   3   6   7    4.85    0.33
   3   6   7    4.44    0.34
   4  -6   7    0.07    0.06
   4  -6   7    0.11    0.04
  -4   6  -7    0.06    0.07
  -4   6  -7    0.10    0.06
   4   6   7    0.02    0.04
   4   6   7    0.10    0.03
  -4   6  -7    0.23    0.06
   5  -6   7    2.04    0.19
   5  -6   7    1.90    0.20
  -5   6  -7    2.18    0.17
  -5   6  -7    2.40    0.19
   5   6   7    2.44    0.17
   5   6   7    2.21    0.18
   5   6   7    2.30    0.17
  -5   6  -7    2.21    0.19
   6  -6   7    0.04    0.04
   6   6   7    0.03    0.05
  -6   6  -7   -0.01    0.06
  -6   6  -7   -0.02    0.07
  -6   6  -7   -0.06    0.05
   6   6   7   -0.06    0.05
   6   6   7    0.04    0.04
   7  -6   7    4.38    0.37
   7   6   7    4.40    0.33
  -7   6  -7    4.66    0.33
  -7   6  -7    4.57    0.34
   7   6   7    4.95    0.32
   8  -6   7    0.04    0.07
  -8   6  -7    0.09    0.06
  -8   6  -7    0.00    0.05
  -8   6  -7    0.00    0.04
   8   6   7    0.03    0.05
   8   6   7    0.05    0.03
   9  -6   7    0.09    0.04
  -9   6  -7    0.06    0.04
   9   6   7    0.05    0.04
  -9   6  -7   -0.03    0.05
   9   6   7    0.08    0.04
  -8  -7   7    0.06    0.05
   8   7  -7    0.14    0.05
  -7  -7   7    0.54    0.08
   7   7  -7    0.46    0.07
   7   7  -7    0.26    0.08
   7   7  -7    0.33    0.06
  -7   7   7    0.42    0.06
  -6  -7   7   -0.07    0.04
   6   7  -7    0.05    0.06
   6   7  -7   -0.03    0.05
   6   7  -7   -0.01    0.04
  -6   7   7   -0.01    0.03
  -5  -7   7    3.17    0.28
   5   7  -7    3.50    0.28
  -5   7   7    3.32    0.26
   5   7  -7    3.42    0.25
   5   7  -7    3.32    0.27
  -4  -7   7    0.90    0.11
   4   7  -7    1.05    0.11
  -4   7   7    0.91    0.10
   4   7  -7    0.99    0.13
   4   7  -7    1.08    0.12
  -3  -7   7    0.06    0.05
  -3   7   7    0.02    0.04
   3   7  -7    0.09    0.07
   3   7  -7    0.16    0.04
   3   7  -7    0.18    0.07
  -2  -7   7    0.09    0.05
   2   7  -7    0.10    0.04
  -2   7   7    0.15    0.04
   2   7  -7    0.04    0.07
   2   7  -7    0.12    0.07
   2   7  -7    0.00    0.06
   1   7  -7    0.08    0.05
  -1   7   7    0.09    0.01
   1   7  -7    0.07    0.07
  -1   7   7   -0.01    0.04
   1   7  -7    0.07    0.06
   1   7  -7    0.01    0.04
   0   7   7    1.07    0.08
   0   7  -7    1.14    0.11
   0   7  -7    0.94    0.12
   0   7   7    1.05    0.10
   0   7  -7    1.28    0.13
   0   7  -7    1.09    0.10
  -1   7  -7    0.37    0.08
   1   7   7    0.38    0.04
   1   7   7    0.27    0.06
  -1   7  -7    0.42    0.07
  -1   7  -7    0.44    0.07
  -1   7  -7    0.39    0.06
  -2   7  -7    4.17    0.29
  -2   7  -7    4.19    0.32
  -2   7  -7    3.94    0.30
   2   7   7    3.71    0.30
   2   7   7    3.84    0.28
   3   7   7    0.07    0.03
  -3   7  -7    0.00    0.06
   3   7   7   -0.01    0.05
  -3   7  -7    0.01    0.07
  -3   7  -7    0.03    0.06
   4   7   7    1.72    0.13
  -4   7  -7    1.49    0.13
  -4   7  -7    1.78    0.15
  -4   7  -7    1.44    0.14
   4   7   7    1.45    0.13
   4   7   7    1.68    0.12
  -5   7  -7    0.04    0.04
   5   7   7    0.05    0.05
  -5   7  -7    0.07    0.04
   5   7   7    0.00    0.05
   5   7   7    0.07    0.03
  -5   7  -7    0.04    0.04
  -6   7  -7    0.13    0.04
   6   7   7    0.10    0.04
   6   7   7    0.15    0.04
  -6   7  -7    0.15    0.06
   6   7   7    0.18    0.03
  -6   7  -7    0.04    0.05
   7   7   7    0.26    0.04
   7   7   7    0.39    0.05
  -7   7  -7    0.35    0.05
  -7   7  -7    0.44    0.06
   8   7   7    0.06    0.03
   8   7   7    0.12    0.03
  -5  -8   7    0.13    0.05
   5   8  -7    0.05    0.05
  -5   8   7    0.18    0.04
   5   8  -7    0.23    0.04
   4   8  -7    1.20    0.11
  -4   8   7    1.14    0.11
   4   8  -7    1.24    0.13
   3   8  -7    0.79    0.09
   3   8  -7    0.73    0.07
   3   8  -7    0.65    0.08
  -3   8   7    0.64    0.07
   2   8  -7    0.75    0.08
   2   8  -7    0.70    0.09
  -2   8   7    0.67    0.08
   1   8  -7    0.13    0.05
   1   8  -7    0.23    0.07
  -1   8   7    0.10    0.05
   1   8  -7    0.14    0.05
   0   8  -7    4.02    0.27
   0   8   7    3.36    0.27
   0   8  -7    3.81    0.29
   0   8  -7    3.46    0.28
   1   8   7    1.84    0.16
  -1   8  -7    2.34    0.17
  -1   8  -7    1.86    0.17
  -1   8  -7    2.09    0.16
   2   8   7    2.81    0.24
  -2   8  -7    2.94    0.22
  -2   8  -7    3.48    0.24
  -2   8  -7    3.07    0.24
  -3   8  -7    2.16    0.17
  -3   8  -7    1.91    0.16
  -3   8  -7    1.87    0.15
   3   8   7    1.97    0.14
   3   8   7    1.83    0.16
   4   8   7    1.07    0.11
  -4   8  -7    1.20    0.10
  -4   8  -7    1.43    0.12
   4   8   7    1.38    0.10
   5   8   7    0.16    0.04
 -13   0   8    0.29    0.06
 -12   0   8    0.37    0.06
 -11   0   8    3.17    0.24
  11   0  -8    3.15    0.23
 -11   0   8    3.09    0.24
 -10   0   8    0.44    0.05
  10   0  -8    0.28    0.05
 -10   0   8    0.25    0.05
 -10   0   8    0.29    0.06
   9   0  -8   11.50    0.92
  -9   0   8   12.44    0.91
  -9   0   8   14.01    0.92
   9   0  -8   12.17    0.84
  -9   0   8   12.06    0.87
  -9   0   8   11.37    0.89
   8   0  -8   11.32    0.87
   8   0  -8   11.97    0.79
  -8   0   8   11.02    0.84
  -8   0   8   11.37    0.82
  -8   0   8   11.39    0.86
  -8   0   8   12.45    0.87
  -7   0   8    1.94    0.16
  -7   0   8    1.97    0.16
  -7   0   8    2.07    0.16
  -7   0   8    2.20    0.17
   7   0  -8    2.09    0.15
   7   0  -8    2.06    0.17
  -6   0   8    2.51    0.19
  -6   0   8    2.30    0.17
   6   0  -8    2.41    0.19
  -6   0   8    2.48    0.19
  -6   0   8    2.32    0.18
   6   0  -8    2.28    0.17
  -5   0   8  102.09    6.74
   5   0  -8   92.36    6.93
  -5   0   8  110.74    7.18
  -5   0   8   95.66    7.62
  -5   0   8  111.95    7.45
   5   0  -8   98.80    7.60
  -5   0   8  111.09    7.36
  -4   0   8    1.85    0.12
   4   0  -8    1.76    0.14
   4   0  -8    1.50    0.12
  -4   0   8    1.83    0.14
  -4   0   8    1.63    0.13
  -3   0   8    4.39    0.30
  -3   0   8    3.98    0.31
   3   0  -8    3.99    0.31
  -2   0   8    1.57    0.12
   2   0  -8    1.68    0.13
  -1   0   8  195.41   13.27
   1   0  -8  176.90   13.69
   0   0   8  851.51   58.98
   0   0   8  803.54   60.86
   1   0   8    0.56    0.05
   2   0   8    0.32    0.04
   2   0   8    0.31    0.04
   3   0   8    5.67    0.40
   3   0   8    6.07    0.45
   3   0   8    5.64    0.45
   3   0   8    6.03    0.42
  -3   0  -8    6.42    0.44
  -3   0  -8    5.59    0.41
   3   0   8    6.86    0.44
  -4   0  -8    9.55    0.68
   4   0   8   10.13    0.67
   4   0   8    9.71    0.65
   4   0   8    9.66    0.69
  -4   0  -8    8.61    0.63
   4   0   8    8.85    0.61
   4   0   8    8.53    0.69
   5   0   8    4.69    0.32
   5   0   8    4.21    0.30
   5   0   8    4.46    0.32
  -5   0  -8    3.95    0.31
   5   0   8    4.76    0.34
   5   0   8    4.39    0.34
  -5   0  -8    4.61    0.34
   5   0   8    4.81    0.33
   6   0   8    1.90    0.17
  -6   0  -8    1.98    0.16
   6   0   8    2.14    0.15
  -6   0  -8    1.92    0.14
   6   0   8    1.95    0.16
   6   0   8    2.01    0.16
   6   0   8    1.97    0.16
   6   0   8    1.81    0.14
   7   0   8   30.20    2.06
  -7   0  -8   30.53    2.29
   7   0   8   29.63    2.20
   7   0   8   32.50    2.33
   7   0   8   31.34    2.33
   7   0   8   32.24    2.26
  -7   0  -8   33.81    2.13
  -8   0  -8    0.09    0.05
   8   0   8    0.06    0.05
  -8   0  -8    0.01    0.04
   8   0   8    0.10    0.04
   8   0   8    0.01    0.05
   8   0   8   -0.03    0.04
   9   0   8    3.97    0.28
   9   0   8    3.32    0.28
   9   0   8    3.19    0.25
  -9   0  -8    3.33    0.25
 -10   0  -8    0.26    0.06
  10   0   8    0.24    0.05
  10   0   8    0.24    0.06
  11   0   8    1.77    0.16
 -11   0  -8    1.78    0.15
  12   0   8    0.33    0.05
 -12   0  -8    0.20    0.06
 -13   1   8    0.34    0.06
 -12  -1   8    0.08    0.04
  12   1  -8    0.11    0.04
 -12   1   8    0.06    0.04
 -11  -1   8    5.61    0.41
 -11   1   8    4.98    0.39
  11   1  -8    5.44    0.38
 -10  -1   8   -0.01    0.05
 -10  -1   8    0.00    0.05
 -10  -1   8    0.02    0.05
 -10   1   8    0.03    0.05
  10   1  -8   -0.01    0.03
  10   1  -8    0.01    0.04
 -10   1   8    0.10    0.06
 -10   1   8    0.05    0.06
  -9  -1   8    1.53    0.14
  -9  -1   8    1.91    0.16
  -9  -1   8    1.97    0.16
  -9   1   8    1.55    0.15
  -9   1   8    1.78    0.14
   9   1  -8    1.75    0.17
   9   1  -8    1.99    0.14
  -9   1   8    1.68    0.15
  -9   1   8    1.66    0.14
  -8  -1   8    3.07    0.24
  -8  -1   8    3.37    0.27
  -8  -1   8    3.42    0.26
  -8  -1   8    2.90    0.26
  -8   1   8    3.44    0.24
  -8   1   8    3.09    0.25
  -8   1   8    3.18    0.26
   8   1  -8    3.16    0.27
   8   1  -8    3.52    0.24
  -8   1   8    3.36    0.25
  -7  -1   8   13.74    1.01
  -7  -1   8   12.31    0.96
  -7  -1   8   14.21    1.02
  -7  -1   8   12.70    0.99
  -7   1   8   13.39    1.02
   7   1  -8   14.31    1.03
   7   1  -8   14.40    0.93
  -7   1   8   14.57    0.96
  -7   1   8   14.30    0.99
  -7   1   8   13.49    1.01
  -6  -1   8    2.08    0.14
  -6  -1   8    1.89    0.15
  -6  -1   8    1.95    0.15
  -6  -1   8    1.76    0.15
  -6   1   8    1.57    0.14
  -6   1   8    1.59    0.14
   6   1  -8    1.88    0.15
  -6   1   8    1.86    0.13
   6   1  -8    1.65    0.13
  -6   1   8    1.94    0.14
  -5  -1   8    1.77    0.13
  -5  -1   8    1.78    0.13
  -5  -1   8    1.75    0.14
  -5  -1   8    1.77    0.14
  -5  -1   8    1.88    0.15
  -5   1   8    1.71    0.13
  -5   1   8    1.57    0.13
   5   1  -8    1.70    0.13
  -5   1   8    1.58    0.14
   5   1  -8    1.85    0.14
  -4  -1   8    6.89    0.47
  -4  -1   8    8.19    0.52
  -4  -1   8    7.19    0.53
  -4  -1   8    6.98    0.53
  -4  -1   8    7.08    0.50
   4   1  -8    7.73    0.54
  -4   1   8    7.02    0.50
  -4   1   8    6.46    0.47
  -4   1   8    7.68    0.52
  -4   1   8    6.63    0.52
   4   1  -8    6.79    0.49
  -3  -1   8   41.37    3.19
  -3  -1   8   41.59    2.83
  -3  -1   8   46.19    3.09
  -3  -1   8   44.30    3.13
   3   1  -8   40.09    2.91
  -3   1   8   39.32    3.12
  -3   1   8   46.17    3.08
  -3   1   8   46.03    3.01
   3   1  -8   44.14    3.19
  -2   1   8   27.10    1.95
   2   1  -8   29.43    2.02
  -2   1   8   26.70    1.95
   2   1  -8   26.01    1.84
  -1  -1   8   38.74    2.89
  -1  -1   8   39.52    2.80
   0  -1   8   15.55    1.07
   0  -1   8   14.30    1.10
   1  -1   8  139.75    9.71
   1  -1   8  142.42    9.41
  -1   1  -8  114.54    8.86
   1   1   8  131.18    9.40
   2  -1   8    4.65    0.30
   2  -1   8    4.21    0.30
   2  -1   8    3.92    0.27
   2  -1   8    3.83    0.30
   2   1   8    3.98    0.28
   2   1   8    4.17    0.29
   2   1   8    3.53    0.30
  -2   1  -8    3.89    0.28
   3  -1   8   35.44    2.77
   3  -1   8   40.56    2.68
   3  -1   8   38.02    2.76
   3  -1   8   34.35    2.45
   3   1   8   34.13    2.76
   3   1   8   35.95    2.45
  -3   1  -8   37.65    2.52
   3   1   8   38.85    2.61
   3   1   8   41.92    2.67
  -4  -1  -8   26.88    2.01
   4  -1   8   29.69    1.96
   4  -1   8   33.27    2.21
   4  -1   8   29.41    2.22
   4  -1   8   31.15    2.14
   4  -1   8   27.53    2.09
   4   1   8   28.87    2.21
   4   1   8   31.91    2.09
  -4   1  -8   30.76    2.02
   4   1   8   29.58    2.09
   4   1   8   27.41    2.21
   4   1   8   32.44    2.14
   4   1   8   30.30    1.96
  -5  -1  -8    1.83    0.15
   5  -1   8    1.98    0.15
   5  -1   8    2.38    0.17
   5  -1   8    2.06    0.17
   5  -1   8    2.17    0.16
   5  -1   8    2.29    0.18
   5   1   8    2.11    0.16
   5   1   8    2.13    0.17
  -5   1  -8    2.24    0.17
  -5   1  -8    2.05    0.16
   5   1   8    2.28    0.16
   5   1   8    2.01    0.15
   5   1   8    1.97    0.17
   5   1   8    2.43    0.17
  -6  -1  -8   17.87    1.22
   6  -1   8   17.59    1.19
   6  -1   8   16.07    1.26
   6  -1   8   17.52    1.34
   6  -1   8   16.54    1.30
   6  -1   8   18.57    1.34
   6   1   8   17.89    1.34
   6   1   8   19.33    1.27
   6   1   8   17.81    1.26
   6   1   8   18.58    1.30
   6   1   8   17.80    1.34
  -6   1  -8   19.10    1.32
   6   1   8   18.50    1.19
  -6   1  -8   19.73    1.23
   7  -1   8    0.08    0.04
   7  -1   8   -0.01    0.02
  -7  -1  -8   -0.04    0.03
   7  -1   8    0.03    0.05
   7   1   8    0.04    0.03
   7   1   8    0.03    0.04
   7   1   8    0.02    0.04
  -7   1  -8    0.09    0.03
   7   1   8    0.03    0.03
   7   1   8   -0.01    0.03
  -7   1  -8    0.00    0.03
   7   1   8   -0.01    0.03
  -8  -1  -8   25.21    1.67
   8  -1   8   26.50    1.83
   8  -1   8   23.92    1.62
   8  -1   8   23.59    1.83
   8   1   8   25.01    1.83
   8   1   8   22.13    1.83
   8   1   8   26.06    1.73
   8   1   8   24.51    1.62
  -8   1  -8   24.45    1.80
   8   1   8   23.03    1.72
  -8   1  -8   26.40    1.67
  -9  -1  -8    2.21    0.17
   9  -1   8    1.86    0.19
   9  -1   8    2.31    0.19
  -9   1  -8    2.20    0.16
   9   1   8    2.04    0.16
   9   1   8    2.23    0.18
  -9   1  -8    1.94    0.18
   9   1   8    2.22    0.18
   9   1   8    1.80    0.18
   9   1   8    1.93    0.17
  10  -1   8    1.07    0.11
 -10  -1  -8    1.13    0.10
  10  -1   8    1.43    0.13
  10   1   8    0.98    0.13
 -10   1  -8    1.25    0.11
  10   1   8    1.26    0.11
 -10   1  -8    1.03    0.12
  10   1   8    1.03    0.10
  10   1   8    1.00    0.10
 -11  -1  -8    0.07    0.05
  11  -1   8    0.05    0.06
  11   1   8    0.08    0.04
 -11   1  -8    0.08    0.07
 -11   1  -8    0.10    0.06
  12  -1   8    0.92    0.09
  12   1   8    0.83    0.08
 -13   2   8    0.00    0.04
 -12  -2   8    0.02    0.04
  12   2  -8    0.00    0.03
 -12   2   8    0.01    0.04
 -12   2   8    0.02    0.05
 -11  -2   8    0.06    0.06
 -11   2   8    0.02    0.05
  11   2  -8    0.06    0.04
 -10  -2   8    0.04    0.06
 -10  -2   8    0.05    0.07
  10   2  -8    0.04    0.04
  10   2  -8    0.02    0.05
 -10   2   8   -0.03    0.05
 -10   2   8    0.06    0.06
 -10   2   8   -0.04    0.05
  -9  -2   8    0.47    0.07
  -9  -2   8    0.28    0.08
  -9   2   8    0.22    0.05
   9   2  -8    0.35    0.08
  -9   2   8    0.25    0.06
  -9   2   8    0.24    0.05
   9   2  -8    0.37    0.06
  -8  -2   8    1.26    0.15
  -8  -2   8    1.37    0.13
  -8   2   8    1.10    0.12
  -8   2   8    1.36    0.12
   8   2  -8    1.28    0.13
   8   2  -8    1.26    0.11
  -8   2   8    1.50    0.11
  -7  -2   8    0.20    0.04
  -7  -2   8    0.31    0.05
  -7  -2   8    0.17    0.06
   7   2  -8    0.22    0.05
  -7   2   8    0.14    0.04
  -7   2   8    0.16    0.04
   7   2  -8    0.24    0.06
  -7   2   8    0.14    0.04
  -6  -2   8    0.37    0.05
  -6  -2   8    0.46    0.07
  -6  -2   8    0.39    0.05
  -6  -2   8    0.44    0.05
  -6   2   8    0.51    0.06
  -6   2   8    0.46    0.05
   6   2  -8    0.48    0.06
  -6   2   8    0.43    0.05
   6   2  -8    0.42    0.05
  -5  -2   8    0.30    0.06
  -5  -2   8    0.26    0.04
  -5  -2   8    0.23    0.03
  -5  -2   8    0.30    0.05
  -5  -2   8    0.33    0.04
  -5   2   8    0.30    0.03
  -5   2   8    0.35    0.04
  -5   2   8    0.34    0.04
   5   2  -8    0.33    0.05
   5   2  -8    0.34    0.04
  -4  -2   8    2.82    0.22
  -4  -2   8    2.65    0.22
  -4  -2   8    2.89    0.20
  -4  -2   8    2.56    0.20
  -4  -2   8    2.94    0.22
  -4   2   8    3.18    0.20
  -4   2   8    2.48    0.21
   4   2  -8    3.05    0.23
   4   2  -8    2.59    0.20
  -4   2   8    3.20    0.21
  -3  -2   8    3.64    0.29
  -3  -2   8    3.67    0.25
  -3  -2   8    4.12    0.28
  -3  -2   8    3.69    0.27
  -3   2   8    3.30    0.27
  -3   2   8    4.07    0.26
   3   2  -8    3.58    0.26
  -3   2   8    3.73    0.27
   3   2  -8    4.31    0.29
  -2  -2   8   63.77    4.36
  -2  -2   8   65.04    4.93
   2   2  -8   65.52    4.49
   2   2  -8   72.76    4.92
  -1  -2   8   21.80    1.51
  -1  -2   8   24.60    1.71
  -1  -2   8   24.00    1.65
  -1  -2   8   21.20    1.71
   1   2  -8   23.80    1.56
   0  -2   8    8.02    0.62
   0  -2   8    8.97    0.62
   0  -2   8    8.01    0.55
   0  -2   8    8.89    0.60
   0   2  -8    7.63    0.56
   1  -2   8    1.24    0.10
   1  -2   8    0.94    0.08
   1  -2   8    0.99    0.09
   1  -2   8    1.15    0.09
   1   2   8    1.00    0.08
   1   2   8    1.06    0.07
  -1   2  -8    0.98    0.08
   2  -2   8    3.97    0.32
   2  -2   8    4.57    0.32
   2  -2   8    4.58    0.32
   2  -2   8    3.79    0.28
   2   2   8    4.56    0.30
   2   2   8    4.77    0.31
   2   2   8    3.66    0.28
  -2   2  -8    3.99    0.29
   3  -2   8    2.14    0.17
   3  -2   8    2.14    0.17
   3  -2   8    2.09    0.15
   3  -2   8    1.90    0.16
   3  -2   8    2.11    0.17
   3   2   8    2.18    0.16
   3   2   8    2.13    0.15
   3   2   8    2.32    0.16
  -3   2  -8    2.48    0.16
   4  -2   8    4.22    0.31
   4  -2   8    4.31    0.28
   4  -2   8    4.61    0.32
   4  -2   8    4.16    0.32
   4   2   8    4.01    0.30
  -4   2  -8    4.51    0.29
   4   2   8    3.60    0.31
   4   2   8    4.05    0.28
   4   2   8    4.52    0.31
   4   2   8    3.90    0.30
   5  -2   8    0.18    0.04
   5  -2   8    0.25    0.03
   5  -2   8    0.31    0.04
   5   2   8    0.20    0.03
   5   2   8    0.20    0.03
  -5   2  -8    0.21    0.04
   5   2   8    0.15    0.04
   5   2   8    0.18    0.04
   5   2   8    0.13    0.03
   5   2   8    0.23    0.03
   6  -2   8    2.12    0.18
   6  -2   8    2.30    0.16
   6  -2   8    2.22    0.18
   6   2   8    2.03    0.17
   6   2   8    1.95    0.16
   6   2   8    2.19    0.16
   6   2   8    2.23    0.17
   6   2   8    2.03    0.17
   6   2   8    2.12    0.17
  -6   2  -8    2.29    0.16
  -7  -2  -8    0.84    0.08
   7  -2   8    0.91    0.10
   7  -2   8    0.95    0.10
  -7   2  -8    0.85    0.09
   7   2   8    0.77    0.09
   7   2   8    0.71    0.08
   7   2   8    0.77    0.08
   7   2   8    0.78    0.08
   7   2   8    0.68    0.09
   7   2   8    0.78    0.07
  -7   2  -8    0.80    0.10
  -8  -2  -8    0.44    0.06
   8  -2   8    0.62    0.08
   8  -2   8    0.48    0.08
   8   2   8    0.48    0.06
  -8   2  -8    0.35    0.08
  -8   2  -8    0.54    0.07
   8   2   8    0.31    0.07
   8   2   8    0.54    0.06
   8   2   8    0.48    0.07
   8   2   8    0.49    0.07
   8   2   8    0.42    0.05
   9  -2   8    1.72    0.18
  -9  -2  -8    1.92    0.16
   9  -2   8    2.09    0.18
   9   2   8    1.94    0.16
  -9   2  -8    1.67    0.18
  -9   2  -8    1.99    0.16
   9   2   8    1.92    0.15
   9   2   8    2.10    0.16
   9   2   8    1.54    0.16
   9   2   8    2.14    0.17
  -9   2  -8    1.79    0.17
  10  -2   8    1.49    0.16
 -10  -2  -8    1.51    0.13
  10   2   8    1.71    0.15
  10   2   8    1.56    0.13
  10   2   8    1.42    0.12
 -10   2  -8    1.70    0.14
 -10   2  -8    1.24    0.14
  10   2   8    1.19    0.12
  11  -2   8    0.43    0.08
  11   2   8    0.44    0.06
  11   2   8    0.27    0.07
 -11   2  -8    0.32    0.08
 -11   2  -8    0.43    0.06
  12  -2   8    0.11    0.04
  12   2   8    0.04    0.04
 -12   2  -8    0.03    0.04
 -12  -3   8    0.00    0.05
  12   3  -8   -0.03    0.07
 -12   3   8    0.05    0.04
 -12   3   8   -0.04    0.03
 -11  -3   8    0.04    0.06
  11   3  -8    0.01    0.05
 -11   3   8    0.02    0.04
 -11   3   8    0.12    0.03
 -10  -3   8   -0.02    0.06
 -10   3   8    0.01    0.04
  10   3  -8   -0.05    0.05
 -10   3   8    0.00    0.03
 -10   3   8   -0.07    0.05
  -9  -3   8    4.63    0.43
  -9  -3   8    5.73    0.43
   9   3  -8    5.82    0.38
  -9   3   8    5.17    0.39
  -9   3   8    5.13    0.41
   9   3  -8    5.13    0.43
  -9   3   8    6.06    0.39
  -8  -3   8    2.41    0.23
  -8  -3   8    2.69    0.22
  -8   3   8    2.37    0.19
   8   3  -8    2.86    0.19
   8   3  -8    2.26    0.22
  -8   3   8    2.40    0.18
  -8   3   8    2.36    0.20
  -7  -3   8    0.14    0.07
  -7  -3   8    0.14    0.06
   7   3  -8    0.11    0.04
  -7   3   8    0.16    0.03
  -7   3   8    0.11    0.03
  -7   3   8    0.05    0.04
   7   3  -8    0.17    0.04
  -6  -3   8    3.40    0.27
  -6  -3   8    3.30    0.28
  -6   3   8    3.27    0.24
  -6   3   8    3.47    0.26
   6   3  -8    3.53    0.24
   6   3  -8    3.34    0.27
  -5  -3   8    4.53    0.35
  -5  -3   8    4.22    0.31
  -5   3   8    4.70    0.33
  -5   3   8    4.59    0.32
   5   3  -8    4.66    0.35
   5   3  -8    4.35    0.32
  -4  -3   8    3.84    0.28
  -4  -3   8    3.95    0.32
  -4   3   8    4.05    0.30
   4   3  -8    4.64    0.29
   4   3  -8    4.36    0.32
  -4   3   8    3.82    0.29
  -3  -3   8   11.37    0.80
  -3  -3   8   11.43    0.91
  -3   3   8   13.45    0.85
   3   3  -8   13.54    0.91
  -3   3   8   12.88    0.87
   3   3  -8   12.18    0.83
  -3   3   8   10.28    0.85
  -2  -3   8    1.59    0.13
  -2  -3   8    1.58    0.14
  -2  -3   8    1.65    0.12
  -2   3   8    1.71    0.12
   2   3  -8    1.49    0.12
  -2   3   8    1.50    0.12
   2   3  -8    1.79    0.14
  -1  -3   8    9.33    0.66
  -1  -3   8    8.51    0.59
  -1  -3   8    8.58    0.66
  -1  -3   8    9.21    0.65
   1   3  -8    8.61    0.60
   0  -3   8    0.16    0.04
   0  -3   8    0.15    0.03
   0  -3   8    0.12    0.03
   0  -3   8    0.16    0.04
   0   3  -8    0.06    0.02
   1  -3   8    1.04    0.09
   1  -3   8    0.86    0.08
  -1   3  -8    0.87    0.09
   1   3   8    1.16    0.07
   1   3   8    1.11    0.08
   1   3   8    1.12    0.07
   1   3   8    0.90    0.08
   2  -3   8    0.11    0.03
   2  -3   8    0.15    0.03
   2  -3   8    0.13    0.04
   2   3   8    0.08    0.02
  -2   3  -8    0.14    0.03
  -2   3  -8    0.15    0.03
   2   3   8    0.08    0.02
   3  -3   8    0.83    0.09
   3  -3   8    0.81    0.08
   3  -3   8    0.80    0.09
  -3   3  -8    0.82    0.07
  -3   3  -8    0.75    0.08
   3   3   8    0.95    0.07
   3   3   8    0.90    0.07
   3   3   8    0.90    0.07
   4  -3   8    0.04    0.02
   4  -3   8    0.09    0.03
   4  -3   8    0.07    0.04
   4   3   8    0.06    0.03
   4   3   8    0.06    0.02
  -4   3  -8    0.06    0.03
   4   3   8    0.01    0.02
  -4   3  -8    0.06    0.02
   4   3   8    0.02    0.03
  -4   3  -8    0.04    0.04
   5  -3   8    3.22    0.25
   5  -3   8    3.01    0.24
  -5   3  -8    2.60    0.24
   5   3   8    3.10    0.21
   5   3   8    3.02    0.22
  -5   3  -8    2.89    0.23
   5   3   8    3.14    0.23
  -5   3  -8    3.17    0.22
   5   3   8    3.19    0.22
   6  -3   8    5.30    0.40
   6  -3   8    5.17    0.40
  -6   3  -8    4.53    0.40
   6   3   8    5.13    0.38
   6   3   8    5.40    0.37
   6   3   8    5.29    0.35
  -6   3  -8    5.33    0.36
   6   3   8    5.00    0.37
  -6   3  -8    4.83    0.37
   7  -3   8    0.27    0.07
   7  -3   8    0.22    0.05
   7   3   8    0.29    0.05
  -7   3  -8    0.23    0.06
   7   3   8    0.31    0.06
   7   3   8    0.29    0.06
  -7   3  -8    0.28    0.05
  -7   3  -8    0.28    0.06
  -7   3  -8    0.21    0.04
   7   3   8    0.38    0.04
   8  -3   8    0.19    0.05
   8  -3   8    0.30    0.07
  -8   3  -8    0.20    0.06
   8   3   8    0.27    0.04
  -8   3  -8    0.18    0.07
  -8   3  -8    0.24    0.05
   8   3   8    0.33    0.06
   8   3   8    0.21    0.06
  -8   3  -8    0.18    0.05
   8   3   8    0.25    0.05
   9  -3   8    0.82    0.12
   9  -3   8    0.58    0.09
  -9   3  -8    0.80    0.10
  -9   3  -8    0.63    0.09
  -9   3  -8    0.85    0.10
   9   3   8    0.70    0.08
   9   3   8    0.77    0.10
   9   3   8    0.69    0.08
  -9   3  -8    0.77    0.10
  10   3   8    3.34    0.25
  10   3   8    3.06    0.23
 -10   3  -8    2.95    0.24
  10   3   8    3.32    0.25
 -10   3  -8    3.30    0.24
 -10   3  -8    3.15    0.26
  11  -3   8    0.05    0.06
 -11   3  -8    0.02    0.05
  11   3   8    0.10    0.05
 -11   3  -8    0.03    0.07
  11   3   8    0.01    0.04
  11   3   8    0.07    0.04
  12  -3   8    0.20    0.06
 -12   3  -8    0.12    0.04
  12   3   8    0.17    0.04
 -12  -4   8    0.16    0.04
 -12   4   8    0.12    0.03
 -11  -4   8    0.88    0.09
 -11   4   8    0.65    0.06
 -11   4   8    0.75    0.10
  11   4  -8    0.92    0.12
  11   4  -8    0.80    0.08
 -10  -4   8    0.39    0.08
 -10   4   8    0.39    0.05
  10   4  -8    0.38    0.06
  10   4  -8    0.38    0.09
 -10   4   8    0.42    0.07
  -9  -4   8   -0.06    0.07
   9   4  -8   -0.02    0.05
   9   4  -8    0.02    0.04
  -9   4   8    0.03    0.04
  -9   4   8    0.01    0.06
  -8  -4   8    0.10    0.07
  -8   4   8    0.04    0.05
   8   4  -8    0.09    0.05
   8   4  -8    0.05    0.05
   8   4  -8   -0.01    0.07
   8   4  -8   -0.05    0.07
  -8   4   8    0.05    0.04
  -7  -4   8   15.84    1.05
   7   4  -8   13.55    1.05
   7   4  -8   14.91    0.96
   7   4  -8   13.08    1.00
   7   4  -8   13.20    1.05
  -7   4   8   13.77    0.98
  -7   4   8   13.38    1.01
  -6  -4   8    0.78    0.09
  -6   4   8    0.91    0.07
  -6   4   8    0.82    0.08
   6   4  -8    0.70    0.10
   6   4  -8    0.84    0.11
   6   4  -8    0.74    0.08
   6   4  -8    0.77    0.11
  -5  -4   8    0.04    0.03
   5   4  -8    0.08    0.05
  -5   4   8    0.00    0.03
   5   4  -8   -0.05    0.04
  -5   4   8    0.01    0.02
   5   4  -8   -0.01    0.05
   5   4  -8    0.09    0.05
  -4  -4   8    8.07    0.65
   4   4  -8    9.39    0.59
   4   4  -8    8.29    0.62
  -4   4   8    8.70    0.62
   4   4  -8    7.89    0.65
   4   4  -8    9.78    0.66
  -4   4   8    8.04    0.60
  -3  -4   8    1.01    0.10
   3   4  -8    0.94    0.11
   3   4  -8    1.28    0.12
   3   4  -8    1.05    0.09
   3   4  -8    0.88    0.10
  -3   4   8    1.04    0.08
  -3   4   8    1.05    0.08
  -2  -4   8   10.63    0.83
   2   4  -8   11.98    0.79
   2   4  -8   12.63    0.76
   2   4  -8   11.95    0.83
   2   4  -8   10.20    0.83
  -2   4   8   11.18    0.79
  -2   4   8    9.20    0.77
  -1  -4   8    1.33    0.12
  -1  -4   8    1.24    0.12
   1   4  -8    1.13    0.12
  -1   4   8    1.33    0.10
   1   4  -8    1.14    0.10
   1   4  -8    1.16    0.11
   0  -4   8   22.00    1.65
   0  -4   8   24.81    1.65
   0   4  -8   20.96    1.65
   0   4   8   21.43    1.59
   0   4   8   19.77    1.55
   0   4  -8   24.41    1.50
   0   4  -8   22.48    1.56
   1  -4   8    3.31    0.27
   1  -4   8    3.67    0.27
  -1   4  -8    4.09    0.25
  -1   4  -8    3.93    0.26
   1   4   8    3.19    0.25
   1   4   8    3.68    0.26
   1   4   8    2.93    0.25
   2  -4   8    1.56    0.13
   2  -4   8    1.42    0.13
   2   4   8    1.37    0.10
  -2   4  -8    1.45    0.12
  -2   4  -8    1.41    0.12
   2   4   8    1.42    0.11
  -2   4  -8    1.28    0.13
   3  -4   8    0.60    0.08
   3  -4   8    0.73    0.09
   3   4   8    0.68    0.07
  -3   4  -8    0.69    0.08
  -3   4  -8    0.57    0.09
  -3   4  -8    0.73    0.07
   3   4   8    0.68    0.06
   4  -4   8    0.89    0.10
   4  -4   8    0.78    0.09
   4   4   8    0.85    0.09
  -4   4  -8    0.85    0.09
  -4   4  -8    0.84    0.09
   4   4   8    0.88    0.07
   4   4   8    0.87    0.07
  -4   4  -8    1.01    0.09
   5  -4   8    1.19    0.12
   5  -4   8    1.11    0.11
  -5   4  -8    1.17    0.11
   5   4   8    1.02    0.10
  -5   4  -8    1.26    0.10
   5   4   8    1.30    0.10
   5   4   8    1.33    0.10
   5   4   8    1.30    0.11
  -5   4  -8    1.14    0.13
   6  -4   8    0.11    0.06
   6  -4   8    0.15    0.04
   6   4   8    0.17    0.04
   6   4   8    0.13    0.04
   6   4   8    0.16    0.04
  -6   4  -8    0.12    0.04
  -6   4  -8    0.06    0.05
   6   4   8    0.09    0.04
  -6   4  -8    0.15    0.06
   7  -4   8    4.38    0.39
   7  -4   8    4.87    0.39
   7   4   8    5.27    0.34
  -7   4  -8    4.66    0.39
   7   4   8    4.69    0.37
  -7   4  -8    4.90    0.35
   7   4   8    5.42    0.35
  -7   4  -8    4.81    0.36
   7   4   8    4.84    0.36
   8  -4   8    1.35    0.14
   8  -4   8    0.88    0.12
   8   4   8    1.40    0.11
  -8   4  -8    1.11    0.14
  -8   4  -8    0.96    0.12
  -8   4  -8    1.09    0.11
   8   4   8    1.25    0.12
   8   4   8    1.21    0.10
  -8   4  -8    1.07    0.11
   8   4   8    1.31    0.12
   9  -4   8    0.25    0.08
   9   4   8    0.26    0.06
  -9   4  -8    0.16    0.06
  -9   4  -8    0.26    0.05
   9   4   8    0.22    0.05
  -9   4  -8    0.26    0.06
   9   4   8    0.22    0.06
  10  -4   8    0.09    0.05
  10   4   8    0.03    0.05
 -10   4  -8    0.04    0.04
 -10   4  -8    0.06    0.07
  10   4   8    0.04    0.04
  10   4   8    0.06    0.04
 -10   4  -8    0.00    0.04
  11  -4   8    0.31    0.07
  11   4   8    0.12    0.05
  11   4   8    0.25    0.04
 -11   4  -8    0.35    0.05
 -11  -5   8   -0.05    0.05
  11   5  -8    0.07    0.04
 -10  -5   8    0.00    0.04
  10   5  -8    0.05    0.05
  10   5  -8    0.05    0.05
 -10   5   8    0.00    0.05
 -10   5   8    0.06    0.02
  -9  -5   8    0.00    0.07
  -9   5   8    0.01    0.05
   9   5  -8    0.06    0.05
  -9   5   8    0.02    0.03
   9   5  -8    0.02    0.07
   9   5  -8    0.01    0.04
  -8  -5   8    0.16    0.08
  -8   5   8    0.00    0.03
   8   5  -8    0.07    0.07
   8   5  -8    0.00    0.08
   8   5  -8   -0.04    0.04
  -8   5   8    0.03    0.04
  -7  -5   8    0.06    0.05
   7   5  -8    0.08    0.05
   7   5  -8   -0.09    0.04
  -7   5   8    0.01    0.02
  -7   5   8    0.03    0.05
   7   5  -8    0.03    0.05
   7   5  -8    0.06    0.04
  -6  -5   8    0.84    0.12
  -6   5   8    0.53    0.08
  -6   5   8    0.51    0.06
   6   5  -8    0.68    0.10
   6   5  -8    0.74    0.08
   6   5  -8    0.89    0.12
   6   5  -8    0.70    0.10
  -5  -5   8    0.12    0.06
  -5   5   8    0.04    0.02
   5   5  -8    0.19    0.07
  -5   5   8    0.01    0.03
   5   5  -8    0.06    0.05
   5   5  -8    0.04    0.04
   5   5  -8    0.02    0.04
  -4  -5   8    3.71    0.31
   4   5  -8    3.62    0.29
  -4   5   8    3.79    0.28
   4   5  -8    3.87    0.31
  -4   5   8    3.52    0.27
   4   5  -8    4.34    0.28
   4   5  -8    3.96    0.31
  -3  -5   8    5.36    0.47
   3   5  -8    6.23    0.48
  -3   5   8    6.57    0.45
   3   5  -8    5.87    0.46
   3   5  -8    6.98    0.44
   3   5  -8    6.37    0.49
  -2  -5   8    0.16    0.05
  -2   5   8    0.14    0.01
  -2   5   8    0.15    0.02
  -2   5   8    0.21    0.03
   2   5  -8    0.13    0.04
   2   5  -8    0.15    0.06
   2   5  -8    0.09    0.04
   2   5  -8    0.18    0.06
  -1  -5   8    0.15    0.05
   1   5  -8    0.06    0.04
  -1   5   8    0.05    0.01
   1   5  -8    0.09    0.05
  -1   5   8    0.04    0.01
  -1   5   8    0.06    0.03
   1   5  -8    0.04    0.04
   1   5  -8    0.12    0.05
   0  -5   8    5.40    0.44
   0  -5   8    5.77    0.44
   0   5   8    6.21    0.42
   0   5  -8    6.46    0.40
   0   5  -8    5.44    0.44
   0   5  -8    5.58    0.41
   0   5   8    5.15    0.40
   1  -5   8    1.78    0.16
   1  -5   8    1.74    0.16
   1   5   8    1.85    0.14
  -1   5  -8    2.01    0.14
   1   5   8    1.69    0.13
  -1   5  -8    1.87    0.16
  -1   5  -8    1.67    0.14
   2  -5   8    0.59    0.08
   2  -5   8    0.70    0.09
  -2   5  -8    0.67    0.10
   2   5   8    0.67    0.07
  -2   5  -8    0.78    0.09
  -2   5  -8    0.80    0.08
   2   5   8    0.66    0.06
   3  -5   8    4.60    0.37
   3  -5   8    4.28    0.37
   3   5   8    5.07    0.35
  -3   5  -8    4.42    0.34
   3   5   8    4.91    0.33
  -3   5  -8    4.66    0.33
   4  -5   8    1.28    0.14
   4  -5   8    1.47    0.14
  -4   5  -8    1.40    0.13
  -4   5  -8    1.43    0.13
   4   5   8    1.32    0.12
   4   5   8    1.43    0.11
   4   5   8    1.50    0.11
  -4   5  -8    1.27    0.14
   5  -5   8    6.54    0.50
   5  -5   8    5.67    0.50
   5   5   8    6.69    0.46
   5   5   8    6.32    0.48
  -5   5  -8    6.37    0.47
   5   5   8    7.09    0.44
  -5   5  -8    6.68    0.46
  -5   5  -8    6.32    0.50
   6  -5   8    0.06    0.06
   6  -5   8    0.12    0.06
  -6   5  -8    0.18    0.04
  -6   5  -8    0.07    0.06
   6   5   8    0.18    0.05
  -6   5  -8    0.13    0.04
   6   5   8    0.22    0.04
   6   5   8    0.18    0.05
   7  -5   8    1.15    0.12
   7  -5   8    1.41    0.14
   7   5   8    1.07    0.11
   7   5   8    1.34    0.11
  -7   5  -8    1.33    0.13
   7   5   8    1.30    0.11
  -7   5  -8    1.36    0.13
  -7   5  -8    1.46    0.13
   7   5   8    1.16    0.11
   8  -5   8    1.08    0.13
  -8   5  -8    1.24    0.13
   8   5   8    1.01    0.10
  -8   5  -8    0.98    0.10
   8   5   8    0.85    0.10
   8   5   8    0.94    0.11
   8   5   8    1.08    0.11
  -8   5  -8    1.10    0.10
   9  -5   8    1.71    0.15
  -9   5  -8    1.68    0.15
   9   5   8    1.54    0.13
   9   5   8    1.80    0.14
  -9   5  -8    1.74    0.15
  -9   5  -8    1.79    0.15
   9   5   8    1.48    0.13
  10  -5   8   -0.02    0.04
  10   5   8    0.00    0.04
  10   5   8    0.01    0.03
  10   6  -8    0.02    0.04
  -9  -6   8    0.97    0.10
   9   6  -8    1.10    0.12
   9   6  -8    0.84    0.10
  -9   6   8    0.98    0.11
  -8  -6   8    2.83    0.24
  -8   6   8    2.85    0.23
   8   6  -8    2.98    0.24
   8   6  -8    3.27    0.26
   8   6  -8    3.06    0.23
  -7  -6   8    0.63    0.10
  -7   6   8    0.55    0.08
   7   6  -8    0.70    0.10
   7   6  -8    0.59    0.08
   7   6  -8    0.67    0.08
  -6  -6   8    5.67    0.45
   6   6  -8    5.96    0.45
   6   6  -8    5.72    0.41
   6   6  -8    5.74    0.43
  -6   6   8    5.60    0.43
  -5  -6   8    0.15    0.07
   5   6  -8    0.08    0.07
   5   6  -8    0.09    0.06
   5   6  -8    0.14    0.08
   5   6  -8    0.13    0.06
  -5   6   8    0.17    0.05
  -4  -6   8    4.02    0.34
   4   6  -8    4.61    0.33
  -4   6   8    4.29    0.32
   4   6  -8    3.74    0.34
   4   6  -8    4.47    0.31
   4   6  -8    4.31    0.34
  -3  -6   8    2.05    0.20
   3   6  -8    2.09    0.18
  -3   6   8    2.31    0.18
   3   6  -8    2.30    0.20
   3   6  -8    2.36    0.18
   3   6  -8    2.08    0.19
  -2  -6   8   13.34    1.12
   2   6  -8   13.17    1.06
   2   6  -8   16.55    1.02
   2   6  -8   15.64    1.12
   2   6  -8   14.17    1.12
  -2   6   8   16.54    1.08
  -1  -6   8    7.85    0.68
  -1   6   8   10.16    0.65
   1   6  -8    9.46    0.62
   1   6  -8    9.06    0.65
   1   6  -8    8.20    0.69
   1   6  -8    9.08    0.68
   0  -6   8    7.75    0.64
   0   6  -8    8.96    0.59
   0   6  -8    7.77    0.65
   0   6   8    8.75    0.62
   0   6  -8    8.66    0.64
   0   6  -8    8.89    0.61
   1  -6   8   12.79    1.04
   1  -6   8   12.41    1.04
  -1   6  -8   14.46    1.05
   1   6   8   14.15    0.97
   1   6   8   15.10    1.00
  -1   6  -8   14.04    0.99
  -1   6  -8   14.26    0.95
   2  -6   8    1.09    0.11
   2  -6   8    0.98    0.11
  -2   6  -8    1.22    0.14
   2   6   8    1.13    0.09
   2   6   8    0.99    0.10
  -2   6  -8    1.18    0.11
  -2   6  -8    1.40    0.12
   3  -6   8   11.38    0.96
   3  -6   8   11.27    0.96
  -3   6  -8   14.12    0.91
  -3   6  -8   14.16    0.88
  -3   6  -8   12.90    0.96
   3   6   8   12.98    0.89
   3   6   8   12.38    0.92
   4  -6   8    0.02    0.06
   4  -6   8    0.09    0.05
  -4   6  -8    0.06    0.04
  -4   6  -8    0.03    0.06
  -4   6  -8    0.10    0.05
   4   6   8    0.09    0.03
   4   6   8    0.00    0.04
   4   6   8    0.07    0.04
   5  -6   8    3.10    0.29
   5  -6   8    3.40    0.29
   5   6   8    4.11    0.26
  -5   6  -8    3.63    0.27
  -5   6  -8    3.85    0.28
  -5   6  -8    3.68    0.29
   5   6   8    3.78    0.26
   5   6   8    3.49    0.28
   6  -6   8    0.68    0.09
  -6   6  -8    0.63    0.08
  -6   6  -8    0.57    0.09
   6   6   8    0.64    0.09
  -6   6  -8    0.66    0.09
   6   6   8    0.68    0.07
   6   6   8    0.74    0.08
   7  -6   8    4.27    0.35
   7   6   8    4.87    0.31
  -7   6  -8    4.27    0.32
  -7   6  -8    4.82    0.35
   7   6   8    4.31    0.32
  -7   6  -8    4.69    0.33
   7   6   8    3.68    0.33
   8  -6   8    1.09    0.12
  -8   6  -8    1.10    0.10
  -8   6  -8    1.16    0.11
   8   6   8    1.17    0.10
  -8   6  -8    1.26    0.11
   8   6   8    1.09    0.09
   9  -6   8    0.76    0.11
  -9   6  -8    0.93    0.09
   9   6   8    0.89    0.08
   9   6   8    0.82    0.07
  -8  -7   8    0.17    0.06
   8   7  -8    0.15    0.04
  -7  -7   8    2.52    0.21
  -7   7   8    2.23    0.20
   7   7  -8    2.72    0.21
   7   7  -8    2.62    0.20
  -6  -7   8    0.37    0.08
   6   7  -8    0.25    0.05
   6   7  -8    0.29    0.06
  -6   7   8    0.30    0.06
   6   7  -8    0.25    0.07
  -5  -7   8    3.64    0.29
   5   7  -8    3.52    0.26
   5   7  -8    3.84    0.29
  -5   7   8    3.87    0.28
   5   7  -8    3.20    0.28
  -4  -7   8    0.08    0.07
   4   7  -8    0.02    0.04
   4   7  -8    0.04    0.05
   4   7  -8    0.19    0.07
  -4   7   8    0.04    0.04
  -3  -7   8    5.10    0.41
   3   7  -8    4.95    0.40
   3   7  -8    5.16    0.37
  -3   7   8    5.48    0.39
   3   7  -8    5.39    0.41
  -2  -7   8    0.83    0.12
   2   7  -8    0.85    0.09
  -2   7   8    0.91    0.09
   2   7  -8    0.80    0.10
   2   7  -8    0.95    0.12
  -1  -7   8    0.66    0.09
  -1   7   8    0.70    0.07
   1   7  -8    0.61    0.08
   1   7  -8    0.61    0.09
   1   7  -8    0.56    0.08
   1   7  -8    0.52    0.07
   0  -7   8    3.40    0.32
   0   7  -8    4.19    0.32
   0   7  -8    4.23    0.30
   0   7   8    4.12    0.31
   0   7  -8    4.49    0.33
   1  -7   8    0.20    0.07
  -1   7  -8    0.50    0.07
  -1   7  -8    0.37    0.06
   1   7   8    0.28    0.05
  -1   7  -8    0.32    0.06
   2  -7   8    0.54    0.09
  -2   7  -8    0.77    0.08
  -2   7  -8    0.82    0.09
  -2   7  -8    0.84    0.09
   2   7   8    0.65    0.08
   3  -7   8    0.36    0.06
  -3   7  -8    0.41    0.06
  -3   7  -8    0.26    0.07
   3   7   8    0.23    0.05
  -3   7  -8    0.34    0.07
   4  -7   8    4.06    0.34
  -4   7  -8    4.12    0.31
   4   7   8    3.81    0.32
   4   7   8    4.44    0.29
  -4   7  -8    4.44    0.30
  -4   7  -8    4.19    0.33
   4   7   8    4.28    0.29
   5  -7   8    0.35    0.08
  -5   7  -8    0.42    0.06
   5   7   8    0.46    0.06
  -5   7  -8    0.49    0.07
  -5   7  -8    0.50    0.08
   5   7   8    0.39    0.06
   5   7   8    0.40    0.04
   6  -7   8    4.12    0.32
  -6   7  -8    4.42    0.32
   6   7   8    4.10    0.29
  -6   7  -8    3.95    0.30
  -6   7  -8    4.22    0.29
   6   7   8    4.19    0.28
   6   7   8    3.52    0.30
   7  -7   8    0.19    0.06
  -7   7  -8    0.09    0.04
   7   7   8    0.16    0.04
  -7   7  -8    0.09    0.04
  -5  -8   8    0.08    0.06
   5   8  -8    0.01    0.03
  -4  -8   8    0.20    0.07
   4   8  -8    0.22    0.05
   4   8  -8    0.18    0.06
  -4   8   8    0.17    0.05
  -3  -8   8    0.13    0.06
   3   8  -8   -0.01    0.05
   3   8  -8    0.03    0.05
  -3   8   8    0.08    0.04
   3   8  -8    0.05    0.05
  -2  -8   8    0.03    0.04
   2   8  -8    0.14    0.05
   2   8  -8    0.15    0.04
  -2   8   8    0.12    0.04
   2   8  -8    0.05    0.05
  -1  -8   8    0.01    0.04
   1   8  -8    0.02    0.05
  -1   8   8    0.02    0.04
   1   8  -8   -0.01    0.04
   1   8  -8    0.02    0.04
   0   8  -8    0.02    0.05
   0   8   8    0.01    0.04
   0   8  -8   -0.05    0.06
   0   8  -8    0.06    0.05
  -1   8  -8    0.09    0.04
   1   8   8    0.07    0.04
  -1   8  -8    0.11    0.06
  -1   8  -8    0.13    0.06
   2   8   8   -0.05    0.04
  -2   8  -8   -0.02    0.05
  -2   8  -8    0.01    0.05
  -2   8  -8    0.04    0.06
   3   8   8    0.20    0.03
  -3   8  -8    0.19    0.05
   3   8   8    0.11    0.04
  -3   8  -8    0.15    0.05
  -4   8  -8    0.08    0.04
   4   8   8    0.13    0.03
  -4   8  -8    0.12    0.04
   5   8   8    0.65    0.07
 -13   0   9   -0.01    0.03
 -12   0   9   -0.01    0.05
 -11   0   9    0.00    0.04
 -10   0   9    0.02    0.04
 -10   0   9    0.04    0.05
 -10   0   9   -0.01    0.03
   9   0  -9    0.08    0.04
  -9   0   9    0.04    0.04
  -9   0   9    0.04    0.03
  -9   0   9    0.04    0.03
  -9   0   9    0.06    0.04
  -8   0   9    0.01    0.04
  -8   0   9   -0.03    0.05
   8   0  -9    0.02    0.03
  -8   0   9   -0.05    0.03
  -8   0   9    0.02    0.03
   8   0  -9    0.02    0.04
  -7   0   9    0.01    0.03
   7   0  -9   -0.04    0.02
   7   0  -9   -0.02    0.03
  -7   0   9    0.01    0.03
  -7   0   9    0.02    0.02
  -7   0   9    0.02    0.04
   6   0  -9    0.01    0.03
  -6   0   9    0.04    0.02
  -6   0   9   -0.04    0.03
   6   0  -9    0.02    0.02
  -6   0   9    0.00    0.02
  -6   0   9    0.01    0.02
   5   0  -9    0.03    0.02
  -5   0   9   -0.02    0.02
  -5   0   9    0.06    0.03
  -5   0   9    0.06    0.02
  -5   0   9   -0.02    0.03
  -5   0   9    0.03    0.02
   4   0  -9   -0.02    0.02
  -4   0   9    0.08    0.03
  -4   0   9    0.01    0.02
  -4   0   9    0.03    0.02
  -4   0   9    0.01    0.01
  -3   0   9    0.19    0.03
  -3   0   9    0.20    0.03
  -3   0   9    0.26    0.03
   2   0  -9    0.09    0.02
  -2   0   9    0.09    0.02
  -2   0   9    0.09    0.02
   1   0  -9    1.56    0.12
  -1   0   9    1.55    0.12
   0   0   9    0.23    0.03
   1   0   9    0.08    0.02
   1   0   9    0.04    0.02
   2   0   9    0.06    0.02
   2   0   9    0.06    0.02
  -2   0  -9    0.05    0.02
   2   0   9    0.04    0.02
   2   0   9    0.09    0.03
   3   0   9    0.11    0.02
   3   0   9    0.12    0.03
  -3   0  -9    0.10    0.02
   3   0   9    0.25    0.04
  -3   0  -9    0.12    0.03
   4   0   9    0.40    0.05
  -4   0  -9    0.20    0.04
  -4   0  -9    0.21    0.04
   4   0   9    0.33    0.03
  -5   0  -9    0.03    0.03
   5   0   9    0.00    0.02
  -5   0  -9    0.00    0.03
   5   0   9    0.02    0.03
   5   0   9    0.00    0.02
   5   0   9    0.01    0.03
   5   0   9    0.03    0.02
  -6   0  -9    0.07    0.03
  -6   0  -9    0.02    0.03
   6   0   9    0.07    0.03
   6   0   9    0.09    0.03
   6   0   9    0.07    0.03
   6   0   9    0.09    0.04
   6   0   9    0.12    0.04
   7   0   9    0.01    0.04
   7   0   9    0.00    0.05
   7   0   9    0.06    0.05
  -7   0  -9   -0.01    0.03
   7   0   9    0.15    0.04
   7   0   9    0.04    0.04
   8   0   9    0.09    0.06
   8   0   9    0.07    0.04
   8   0   9    0.11    0.04
   8   0   9    0.18    0.05
  -8   0  -9    0.11    0.05
   9   0   9   -0.04    0.03
   9   0   9    0.06    0.05
   9   0   9   -0.01    0.05
   9   0   9   -0.04    0.05
  -9   0  -9    0.00    0.05
 -10   0  -9   -0.02    0.04
  10   0   9   -0.05    0.05
 -11   0  -9    0.00    0.03
  11   0   9    0.03    0.05
  12   0   9    0.02    0.03
 -13   1   9    0.39    0.05
 -12  -1   9    0.11    0.04
 -12   1   9    0.06    0.05
 -11  -1   9   -0.08    0.06
 -11  -1   9   -0.01    0.03
  11   1  -9    0.04    0.05
 -11   1   9    0.03    0.06
 -10  -1   9    0.04    0.07
 -10  -1   9    0.05    0.04
 -10  -1   9    0.14    0.06
  10   1  -9    0.07    0.04
 -10   1   9    0.10    0.06
 -10   1   9    0.01    0.04
 -10   1   9    0.13    0.05
  10   1  -9    0.09    0.05
  -9  -1   9    0.61    0.08
  -9  -1   9    0.48    0.07
  -9  -1   9    0.52    0.08
   9   1  -9    0.69    0.08
  -9   1   9    0.56    0.07
  -9   1   9    0.69    0.09
   9   1  -9    0.55    0.08
  -9   1   9    0.64    0.08
  -8  -1   9    0.50    0.06
  -8  -1   9    0.53    0.08
  -8  -1   9    0.54    0.07
  -8  -1   9    0.65    0.08
  -8   1   9    0.52    0.07
   8   1  -9    0.63    0.08
  -8   1   9    0.45    0.07
   8   1  -9    0.52    0.06
  -8   1   9    0.48    0.07
  -7  -1   9    0.23    0.05
  -7  -1   9    0.08    0.03
  -7  -1   9    0.08    0.03
  -7  -1   9    0.06    0.05
  -7   1   9    0.06    0.04
  -7   1   9    0.01    0.03
   7   1  -9    0.13    0.04
   7   1  -9    0.14    0.04
  -7   1   9    0.05    0.04
  -6  -1   9    4.34    0.34
  -6  -1   9    4.22    0.33
  -6  -1   9    4.04    0.33
  -6  -1   9    4.35    0.31
  -6   1   9    4.95    0.33
   6   1  -9    4.33    0.34
  -6   1   9    4.84    0.31
   6   1  -9    3.98    0.30
  -6   1   9    4.45    0.33
  -5  -1   9   20.93    1.53
  -5  -1   9   22.06    1.40
  -5  -1   9   22.24    1.55
  -5  -1   9   21.22    1.58
  -5  -1   9   20.76    1.49
   5   1  -9   21.91    1.58
  -5   1   9   21.48    1.55
   5   1  -9   19.50    1.44
  -5   1   9   21.11    1.49
  -5   1   9   21.98    1.53
  -4  -1   9    2.35    0.19
  -4  -1   9    2.55    0.18
  -4  -1   9    2.32    0.16
  -4  -1   9    2.35    0.18
  -4  -1   9    2.41    0.17
  -4   1   9    2.09    0.18
   4   1  -9    2.29    0.18
  -4   1   9    2.55    0.17
  -4   1   9    2.30    0.16
   4   1  -9    2.01    0.16
  -3  -1   9   27.84    1.96
  -3  -1   9   28.94    2.22
  -3  -1   9   33.72    2.15
  -3  -1   9   30.17    2.09
  -3   1   9   32.24    2.14
  -3   1   9   31.01    2.09
   3   1  -9   30.06    2.21
   3   1  -9   28.69    2.02
  -3   1   9   27.14    1.96
  -2  -1   9   21.74    1.58
  -2  -1   9   25.07    1.63
  -2  -1   9   20.79    1.68
  -2  -1   9   21.87    1.49
   2   1  -9   24.13    1.68
   2   1  -9   22.05    1.53
  -2   1   9   24.04    1.58
  -2   1   9   19.94    1.62
  -2   1   9   24.71    1.62
  -1  -1   9   59.08    4.02
  -1  -1   9   68.33    4.39
  -1  -1   9   63.10    4.53
   1   1  -9   55.78    4.14
   0  -1   9   35.29    2.22
   0  -1   9   28.85    2.03
   0  -1   9   32.34    2.29
   0   1   9   29.43    2.21
   0   1   9   34.13    2.16
   0   1   9   30.01    2.21
   0   1  -9   27.47    2.09
   1  -1   9    5.33    0.36
   1  -1   9    5.03    0.37
   1  -1   9    4.85    0.37
   1  -1   9    4.89    0.35
   1  -1   9    4.75    0.33
   1   1   9    4.62    0.34
  -1   1  -9    4.89    0.34
   1   1   9    4.84    0.35
   2  -1   9   49.50    3.91
   2  -1   9   53.15    3.90
   2  -1   9   56.67    3.79
   2  -1   9   50.98    3.69
   2  -1   9   50.79    3.46
   2   1   9   60.66    3.78
   2   1   9   49.30    3.46
  -2   1  -9   51.68    3.56
   2   1   9   54.16    3.69
   3  -1   9   50.77    3.32
   3  -1   9   43.63    3.23
   3  -1   9   44.91    3.43
   3  -1   9   44.18    3.04
   3  -1   9   47.78    3.42
   3   1   9   41.78    3.42
   3   1   9   51.78    3.32
   3   1   9   48.52    3.23
  -3   1  -9   44.71    3.12
   3   1   9   46.21    3.03
   4  -1   9   16.39    1.09
   4  -1   9   16.54    1.23
   4  -1   9   15.48    1.16
   4  -1   9   17.65    1.20
   4  -1   9   16.75    1.23
  -4   1  -9   17.65    1.12
   4   1   9   15.44    1.23
   4   1   9   18.00    1.19
   4   1   9   16.34    1.16
   4   1   9   14.92    1.23
   4   1   9   17.02    1.09
   4   1   9   16.87    1.16
  -5  -1  -9    0.39    0.05
   5  -1   9    0.55    0.07
   5  -1   9    0.43    0.06
   5  -1   9    0.44    0.06
   5  -1   9    0.52    0.07
   5  -1   9    0.45    0.05
   5   1   9    0.37    0.05
  -5   1  -9    0.49    0.06
   5   1   9    0.39    0.05
   5   1   9    0.42    0.06
  -5   1  -9    0.47    0.06
   5   1   9    0.37    0.04
   5   1   9    0.43    0.06
   5   1   9    0.52    0.05
   6  -1   9    2.08    0.16
   6  -1   9    1.92    0.17
   6  -1   9    2.10    0.18
  -6  -1  -9    2.01    0.16
   6  -1   9    1.99    0.16
   6  -1   9    2.13    0.17
   6   1   9    2.22    0.15
   6   1   9    2.24    0.17
   6   1   9    2.26    0.17
   6   1   9    2.20    0.17
  -6   1  -9    2.08    0.18
   6   1   9    2.24    0.16
  -6   1  -9    2.19    0.16
   6   1   9    2.03    0.17
   7  -1   9    1.11    0.11
   7  -1   9    1.30    0.12
   7  -1   9    1.27    0.10
  -7  -1  -9    1.22    0.10
   7  -1   9    1.18    0.13
   7   1   9    1.11    0.12
   7   1   9    1.30    0.12
  -7   1  -9    1.30    0.11
   7   1   9    1.25    0.11
  -7   1  -9    1.18    0.13
   7   1   9    1.47    0.12
   7   1   9    1.29    0.11
   7   1   9    1.26    0.11
  -8  -1  -9    9.61    0.67
   8  -1   9    9.85    0.66
   8  -1   9   11.35    0.74
   8  -1   9    8.92    0.74
  -8   1  -9    9.26    0.73
   8   1   9    9.06    0.72
   8   1   9   10.98    0.71
   8   1   9   10.13    0.66
  -8   1  -9   10.94    0.68
   8   1   9    8.39    0.74
   8   1   9    9.54    0.69
   8   1   9    9.88    0.73
  -9  -1  -9    2.62    0.19
   9  -1   9    2.27    0.21
   9  -1   9    2.52    0.20
   9   1   9    2.49    0.19
  -9   1  -9    2.49    0.19
   9   1   9    2.26    0.18
   9   1   9    1.97    0.20
   9   1   9    2.49    0.20
  10  -1   9    2.72    0.22
 -10  -1  -9    2.55    0.20
  10   1   9    2.34    0.20
 -10   1  -9    2.55    0.20
  10   1   9    2.40    0.19
  10   1   9    2.78    0.21
 -11  -1  -9    0.33    0.06
  11  -1   9    0.41    0.07
  11   1   9    0.28    0.04
 -11   1  -9    0.25    0.05
  11   1   9    0.25    0.05
  12  -1   9   -0.01    0.04
 -13   2   9    0.03    0.04
 -12  -2   9    0.52    0.06
 -12   2   9    0.43    0.06
 -12   2   9    0.55    0.05
  12   2  -9    0.59    0.08
 -11  -2   9    4.06    0.32
  11   2  -9    4.20    0.30
 -11   2   9    4.35    0.31
 -10  -2   9    1.84    0.19
 -10  -2   9    2.36    0.18
 -10   2   9    2.30    0.17
  10   2  -9    2.18    0.16
 -10   2   9    1.86    0.18
  10   2  -9    1.91    0.18
  -9  -2   9    0.40    0.07
  -9  -2   9    0.28    0.08
  -9   2   9    0.32    0.05
  -9   2   9    0.27    0.06
   9   2  -9    0.24    0.07
  -8  -2   9    3.92    0.32
  -8  -2   9    4.88    0.34
  -8  -2   9    3.98    0.34
  -8   2   9    4.36    0.31
   8   2  -9    4.33    0.34
  -8   2   9    4.30    0.33
   8   2  -9    4.42    0.31
  -7  -2   9   26.37    2.07
  -7  -2   9   28.92    2.17
  -7  -2   9   29.47    2.20
  -7   2   9   29.54    2.07
   7   2  -9   28.80    2.20
   7   2  -9   32.68    2.01
  -7   2   9   32.11    2.13
  -6  -2   9    3.29    0.25
  -6  -2   9    3.18    0.26
  -6  -2   9    2.97    0.25
  -6  -2   9    2.96    0.24
  -6   2   9    3.37    0.23
   6   2  -9    3.18    0.23
   6   2  -9    3.42    0.26
  -6   2   9    3.41    0.24
  -5  -2   9    2.41    0.19
  -5  -2   9    2.33    0.19
  -5  -2   9    2.26    0.19
  -5  -2   9    2.09    0.18
  -5  -2   9    2.31    0.17
   5   2  -9    2.46    0.17
  -5   2   9    2.53    0.18
   5   2  -9    2.49    0.19
  -5   2   9    2.29    0.17
  -4  -2   9   10.14    0.73
  -4  -2   9    9.17    0.71
  -4  -2   9    9.76    0.75
  -4  -2   9   10.04    0.67
   4   2  -9    9.92    0.69
  -4   2   9   10.69    0.72
  -4   2   9   10.58    0.70
   4   2  -9   10.24    0.75
  -3  -2   9   82.99    6.04
  -3  -2   9   91.91    6.20
  -3  -2   9   84.79    5.67
  -3  -2   9   88.23    6.41
  -3   2   9   76.10    6.19
  -3   2   9   87.62    6.19
  -3   2   9   77.61    6.04
  -3   2   9   92.16    6.04
   3   2  -9   96.71    6.40
   3   2  -9   90.30    5.83
  -2  -2   9    9.69    0.66
  -2  -2   9    9.92    0.70
  -2  -2   9    9.27    0.74
   2   2  -9   10.33    0.75
   2   2  -9   10.83    0.68
  -1  -2   9    3.00    0.21
  -1  -2   9    2.59    0.20
  -1  -2   9    2.71    0.21
  -1  -2   9    2.68    0.19
   1   2  -9    2.77    0.19
   0  -2   9   22.25    1.70
   0  -2   9   21.73    1.60
   0  -2   9   25.66    1.70
   0  -2   9   23.78    1.65
   0  -2   9   21.79    1.51
   0   2  -9   22.73    1.55
   1  -2   9   17.40    1.31
   1  -2   9   20.12    1.31
   1  -2   9   17.31    1.16
   1  -2   9   15.74    1.23
   1  -2   9   17.85    1.27
  -1   2  -9   18.90    1.19
   1   2   9   16.24    1.26
   1   2   9   17.87    1.26
   1   2   9   17.73    1.23
   2  -2   9   81.90    6.23
   2  -2   9   88.21    6.62
   2  -2   9   91.97    6.40
   2  -2   9   91.41    5.86
   2  -2   9   97.11    6.60
   2   2   9   80.11    5.85
  -2   2  -9   86.70    6.02
   2   2   9   93.42    6.23
   2   2   9   95.69    6.39
   3  -2   9    4.21    0.31
   3  -2   9    4.02    0.31
   3  -2   9    3.87    0.27
   3  -2   9    4.19    0.30
   3  -2   9    3.76    0.29
   3   2   9    4.45    0.29
   3   2   9    4.30    0.30
   3   2   9    3.70    0.27
  -3   2  -9    3.80    0.28
   4  -2   9   -0.03    0.03
   4  -2   9    0.05    0.03
   4  -2   9    0.09    0.04
   4  -2   9    0.06    0.03
   4  -2   9    0.03    0.03
   4   2   9    0.01    0.02
   4   2   9    0.03    0.02
   4   2   9    0.02    0.02
   4   2   9    0.04    0.02
  -4   2  -9    0.00    0.02
   5  -2   9   20.92    1.38
   5  -2   9   21.04    1.56
   5  -2   9   21.89    1.56
   5   2   9   21.24    1.51
   5   2   9   21.27    1.47
   5   2   9   19.04    1.47
  -5   2  -9   21.85    1.42
   5   2   9   20.86    1.38
   6  -2   9    5.36    0.40
   6  -2   9    4.97    0.35
   6  -2   9    5.14    0.40
   6   2   9    5.24    0.39
   6   2   9    5.49    0.35
  -6   2  -9    5.11    0.37
  -6   2  -9    5.09    0.40
   6   2   9    5.04    0.38
   6   2   9    5.26    0.37
   7  -2   9    7.05    0.53
   7  -2   9    6.57    0.47
   7  -2   9    6.65    0.53
  -7   2  -9    7.66    0.49
   7   2   9    6.87    0.49
   7   2   9    7.11    0.50
  -7   2  -9    6.91    0.52
   7   2   9    6.75    0.52
   7   2   9    6.54    0.51
   7   2   9    7.31    0.47
   8  -2   9    0.87    0.11
   8  -2   9    0.78    0.11
  -8   2  -9    0.75    0.10
   8   2   9    0.85    0.08
  -8   2  -9    0.83    0.10
   8   2   9    0.81    0.07
   8   2   9    0.72    0.09
   8   2   9    0.72    0.10
   8   2   9    0.76    0.09
   9  -2   9    2.56    0.24
   9  -2   9    3.31    0.25
   9   2   9    2.79    0.21
  -9   2  -9    2.51    0.25
   9   2   9    3.05    0.22
   9   2   9    3.02    0.23
  -9   2  -9    2.82    0.22
  10  -2   9    0.90    0.11
 -10   2  -9    0.74    0.09
 -10   2  -9    0.75    0.08
  10   2   9    0.73    0.08
  10   2   9    0.69    0.08
  11  -2   9    0.89    0.09
  11   2   9    0.84    0.08
  11   2   9    0.84    0.08
 -11   2  -9    0.74    0.08
 -11   2  -9    0.69    0.10
  12  -2   9    2.25    0.17
  12   2   9    1.85    0.15
 -12   2  -9    1.83    0.17
 -12  -3   9    0.01    0.04
 -12   3   9    0.03    0.02
 -11  -3   9    1.45    0.12
 -11   3   9    1.30    0.10
  11   3  -9    1.24    0.11
 -11   3   9    1.11    0.13
 -10  -3   9    0.05    0.06
  10   3  -9    0.06    0.04
 -10   3   9    0.01    0.03
 -10   3   9    0.03    0.06
  -9  -3   9    1.11    0.12
  -9  -3   9    0.88    0.12
  -9   3   9    0.90    0.11
   9   3  -9    0.98    0.13
  -9   3   9    0.90    0.09
   9   3  -9    1.24    0.11
  -8  -3   9    4.33    0.32
  -8  -3   9    3.83    0.32
  -8   3   9    4.00    0.29
   8   3  -9    3.89    0.33
  -8   3   9    3.90    0.31
  -7  -3   9    0.59    0.10
  -7  -3   9    0.56    0.08
  -7   3   9    0.54    0.06
  -7   3   9    0.58    0.07
   7   3  -9    0.64    0.08
   7   3  -9    0.71    0.07
  -6  -3   9    5.74    0.45
   6   3  -9    6.08    0.41
  -6   3   9    6.26    0.42
   6   3  -9    5.49    0.46
  -6   3   9    6.03    0.44
  -5  -3   9    2.37    0.18
  -5  -3   9    2.43    0.20
  -5   3   9    2.44    0.18
   5   3  -9    2.61    0.21
  -5   3   9    2.33    0.18
   5   3  -9    2.50    0.18
  -4  -3   9   36.87    2.55
  -4  -3   9   38.13    2.88
  -4   3   9   39.05    2.78
   4   3  -9   40.76    2.88
   4   3  -9   42.05    2.62
  -4   3   9   36.56    2.71
  -3  -3   9    4.29    0.36
  -3  -3   9    4.66    0.32
  -3  -3   9    4.78    0.36
  -3   3   9    4.35    0.34
   3   3  -9    5.34    0.37
   3   3  -9    5.30    0.33
  -2  -3   9   52.58    3.78
  -2  -3   9   43.90    3.56
  -2  -3   9   50.87    3.35
  -2  -3   9   47.52    3.66
   2   3  -9   57.35    3.78
   2   3  -9   54.78    3.44
  -1  -3   9    2.89    0.23
  -1  -3   9    3.22    0.23
  -1  -3   9    2.67    0.22
  -1  -3   9    2.88    0.21
  -1  -3   9    3.12    0.24
   1   3  -9    3.08    0.21
   0  -3   9    0.57    0.08
   0  -3   9    0.59    0.07
   0  -3   9    0.64    0.06
   0  -3   9    0.59    0.07
   1  -3   9    0.08    0.04
   1  -3   9    0.01    0.03
   1  -3   9    0.05    0.03
   1  -3   9    0.02    0.02
   1   3   9    0.03    0.01
  -1   3  -9    0.05    0.02
   1   3   9    0.03    0.01
   2  -3   9    3.28    0.23
   2  -3   9    3.59    0.27
   2  -3   9    3.41    0.26
  -2   3  -9    3.48    0.24
   2   3   9    3.27    0.24
   2   3   9    3.39    0.25
   3  -3   9    7.87    0.58
   3  -3   9    7.63    0.58
   3  -3   9    7.53    0.52
   3   3   9    7.87    0.54
   3   3   9    8.15    0.56
  -3   3  -9    7.58    0.53
   3   3   9    7.46    0.51
   4  -3   9   26.61    1.94
   4  -3   9   25.96    1.94
   4  -3   9   24.57    1.72
  -4   3  -9   24.19    1.83
  -4   3  -9   27.18    1.77
   4   3   9   26.49    1.71
   4   3   9   27.57    1.87
   4   3   9   26.37    1.82
   5  -3   9    1.22    0.11
   5  -3   9    1.23    0.12
   5  -3   9    1.48    0.12
  -5   3  -9    1.09    0.11
   5   3   9    1.33    0.11
   5   3   9    1.39    0.10
  -5   3  -9    1.38    0.11
   5   3   9    1.04    0.10
   5   3   9    1.21    0.10
   6  -3   9   10.91    0.81
   6  -3   9   10.59    0.81
   6   3   9   10.27    0.76
   6   3   9   11.75    0.75
   6   3   9   10.95    0.78
  -6   3  -9    9.53    0.81
   6   3   9   10.76    0.71
  -6   3  -9   11.10    0.74
  -6   3  -9   10.43    0.76
   7  -3   9    0.89    0.11
   7  -3   9    0.85    0.11
  -7   3  -9    0.86    0.09
   7   3   9    0.99    0.09
   7   3   9    1.00    0.09
   7   3   9    0.85    0.10
  -7   3  -9    0.87    0.10
  -7   3  -9    0.76    0.10
  -7   3  -9    0.78    0.12
   7   3   9    0.90    0.09
   8  -3   9    9.10    0.79
   8  -3   9   11.31    0.79
  -8   3  -9   10.66    0.72
   8   3   9   10.87    0.70
   8   3   9   10.70    0.74
   8   3   9   10.04    0.76
  -8   3  -9    9.46    0.79
  -8   3  -9    9.40    0.78
   8   3   9   12.14    0.74
   9  -3   9    2.21    0.19
  -9   3  -9    2.19    0.17
   9   3   9    2.02    0.17
   9   3   9    2.06    0.17
  -9   3  -9    1.80    0.19
   9   3   9    2.04    0.17
  10  -3   9   12.06    0.89
  10   3   9   11.78    0.79
 -10   3  -9   11.80    0.82
  10   3   9   12.35    0.85
 -10   3  -9   11.43    0.90
  10   3   9   11.80    0.84
  11  -3   9    0.03    0.06
  11   3   9    0.08    0.04
 -11   3  -9    0.09    0.06
 -11   3  -9    0.09    0.04
  11   3   9    0.14    0.05
 -11  -4   9   -0.04    0.05
 -11   4   9    0.02    0.02
 -11   4   9    0.00    0.04
  11   4  -9    0.16    0.07
 -10  -4   9    0.53    0.08
 -10   4   9    0.49    0.07
  10   4  -9    0.50    0.07
 -10   4   9    0.57    0.06
  10   4  -9    0.59    0.09
  -9  -4   9    1.60    0.15
   9   4  -9    1.36    0.16
  -9   4   9    1.21    0.13
  -9   4   9    1.46    0.11
   9   4  -9    1.39    0.12
  -8  -4   9    0.59    0.09
  -8   4   9    0.52    0.06
   8   4  -9    0.55    0.07
   8   4  -9    0.56    0.08
   8   4  -9    0.37    0.09
  -8   4   9    0.51    0.07
  -7  -4   9    0.50    0.08
  -7   4   9    0.22    0.04
   7   4  -9    0.46    0.07
   7   4  -9    0.35    0.08
  -7   4   9    0.31    0.06
   7   4  -9    0.40    0.07
  -6  -4   9    3.13    0.25
  -6   4   9    2.92    0.21
   6   4  -9    3.11    0.22
  -6   4   9    2.90    0.23
   6   4  -9    2.97    0.25
  -5  -4   9    3.24    0.24
  -5   4   9    2.97    0.22
   5   4  -9    2.51    0.23
   5   4  -9    3.09    0.25
  -5   4   9    2.93    0.21
   5   4  -9    3.07    0.22
  -4  -4   9    0.00    0.04
   4   4  -9    0.03    0.03
   4   4  -9    0.02    0.04
  -4   4   9    0.03    0.01
  -4   4   9    0.02    0.03
   4   4  -9    0.02    0.05
  -4   4   9    0.03    0.01
  -3  -4   9    8.76    0.60
  -3  -4   9    9.21    0.68
   3   4  -9    9.75    0.62
  -3   4   9    9.06    0.64
   3   4  -9    7.77    0.64
   3   4  -9    9.22    0.68
  -2  -4   9   14.24    1.06
  -2  -4   9   15.79    1.20
   2   4  -9   16.59    1.20
   2   4  -9   15.57    1.13
  -2   4   9   17.67    1.15
   2   4  -9   16.43    1.09
  -1  -4   9   53.14    4.03
  -1  -4   9   49.92    3.56
   1   4  -9   52.50    4.03
  -1   4   9   59.03    3.88
   1   4  -9   54.28    3.81
   1   4  -9   57.92    3.67
   0  -4   9    4.80    0.36
   0  -4   9    5.12    0.37
   0  -4   9    4.09    0.32
   0   4  -9    4.21    0.36
   0   4   9    5.43    0.34
   0   4  -9    4.22    0.34
   0   4  -9    4.72    0.33
   1  -4   9   19.24    1.49
   1  -4   9   19.87    1.49
  -1   4  -9   19.42    1.41
   1   4   9   21.41    1.43
  -1   4  -9   20.14    1.36
   2  -4   9    0.99    0.10
   2  -4   9    1.13    0.10
  -2   4  -9    0.95    0.10
  -2   4  -9    0.87    0.11
  -2   4  -9    0.99    0.09
   2   4   9    1.04    0.08
   2   4   9    1.05    0.09
   3  -4   9   12.92    0.96
   3  -4   9   13.07    0.95
  -3   4  -9   10.90    0.95
  -3   4  -9   11.89    0.90
  -3   4  -9   13.07    0.87
   3   4   9   13.75    0.89
   3   4   9   12.42    0.84
   3   4   9   13.76    0.92
   4  -4   9    0.19    0.05
   4  -4   9    0.15    0.05
  -4   4  -9    0.14    0.04
   4   4   9    0.16    0.03
  -4   4  -9    0.15    0.04
  -4   4  -9    0.11    0.05
   4   4   9    0.18    0.03
   4   4   9    0.11    0.04
   5  -4   9    9.34    0.76
   5  -4   9   10.04    0.76
   5   4   9   10.84    0.71
  -5   4  -9   10.36    0.70
   5   4   9   10.79    0.67
  -5   4  -9    9.25    0.76
   5   4   9   10.58    0.74
  -5   4  -9    9.51    0.72
   6  -4   9    1.03    0.11
   6  -4   9    0.80    0.09
  -6   4  -9    0.91    0.09
   6   4   9    0.74    0.08
  -6   4  -9    0.94    0.09
   6   4   9    0.73    0.08
   6   4   9    0.87    0.08
   6   4   9    0.73    0.09
  -6   4  -9    0.70    0.10
   7  -4   9   12.15    0.86
   7  -4   9    9.97    0.86
   7   4   9   11.13    0.83
   7   4   9   12.60    0.80
   7   4   9   12.39    0.76
  -7   4  -9   10.64    0.86
  -7   4  -9   10.99    0.81
  -7   4  -9   11.26    0.79
   8  -4   9    0.18    0.07
  -8   4  -9    0.22    0.05
  -8   4  -9    0.17    0.07
   8   4   9    0.11    0.05
   8   4   9    0.06    0.05
  -8   4  -9    0.13    0.07
   8   4   9    0.13    0.04
   8   4   9    0.13    0.05
  -8   4  -9    0.14    0.06
   9  -4   9    6.31    0.46
   9   4   9    6.46    0.41
  -9   4  -9    5.49    0.44
   9   4   9    5.55    0.43
   9   4   9    6.28    0.43
  -9   4  -9    6.08    0.47
  -9   4  -9    5.66    0.42
  10  -4   9    0.31    0.06
 -10   4  -9    0.28    0.06
  10   4   9    0.30    0.05
 -10   4  -9    0.18    0.06
  10   4   9    0.26    0.05
 -10   4  -9    0.18    0.05
  10   4   9    0.23    0.05
  11  -4   9    0.36    0.05
  11   4   9    0.27    0.05
 -11   4  -9    0.31    0.05
  11   4   9    0.34    0.05
 -11  -5   9    0.01    0.03
 -10  -5   9    0.14    0.05
  10   5  -9    0.12    0.04
 -10   5   9    0.07    0.04
  10   5  -9    0.02    0.07
  -9  -5   9    0.87    0.11
   9   5  -9    0.75    0.08
   9   5  -9    0.72    0.10
  -9   5   9    0.73    0.06
  -9   5   9    0.65    0.09
  -8  -5   9    0.12    0.07
   8   5  -9    0.23    0.06
   8   5  -9    0.20    0.05
   8   5  -9    0.15    0.06
  -8   5   9    0.09    0.02
  -8   5   9    0.14    0.06
  -7  -5   9    0.84    0.12
   7   5  -9    0.91    0.13
  -7   5   9    0.76    0.06
  -7   5   9    0.83    0.09
   7   5  -9    0.88    0.10
   7   5  -9    0.78    0.10
   7   5  -9    0.74    0.11
  -6  -5   9    0.53    0.07
   6   5  -9    0.53    0.08
   6   5  -9    0.55    0.09
  -6   5   9    0.34    0.06
   6   5  -9    0.50    0.07
   6   5  -9    0.59    0.09
  -6   5   9    0.34    0.04
  -5  -5   9    1.91    0.17
   5   5  -9    1.69    0.16
   5   5  -9    1.88    0.17
  -5   5   9    1.80    0.15
   5   5  -9    1.61    0.15
   5   5  -9    1.56    0.15
  -4  -5   9    1.32    0.13
   4   5  -9    1.33    0.14
   4   5  -9    1.40    0.14
   4   5  -9    1.14    0.14
   4   5  -9    1.25    0.11
  -4   5   9    1.33    0.11
  -3  -5   9    1.42    0.13
   3   5  -9    1.45    0.14
   3   5  -9    1.48    0.12
   3   5  -9    1.49    0.15
   3   5  -9    1.34    0.13
  -2  -5   9    5.33    0.42
   2   5  -9    5.27    0.43
  -2   5   9    5.79    0.40
   2   5  -9    5.49    0.38
   2   5  -9    5.73    0.40
   2   5  -9    4.95    0.42
  -1  -5   9    1.53    0.14
   1   5  -9    1.68    0.13
   1   5  -9    1.40    0.15
   1   5  -9    1.46    0.15
  -1   5   9    1.78    0.12
   1   5  -9    1.51    0.13
   0  -5   9    3.18    0.26
   0  -5   9    3.08    0.26
   0   5  -9    3.06    0.27
   0   5  -9    3.00    0.24
   0   5  -9    3.27    0.24
   0   5   9    3.74    0.24
   1  -5   9    0.15    0.05
   1  -5   9    0.11    0.04
  -1   5  -9    0.06    0.03
   1   5   9    0.07    0.02
  -1   5  -9    0.09    0.05
  -1   5  -9    0.18    0.04
   2  -5   9    1.79    0.17
   2  -5   9    1.80    0.16
  -2   5  -9    1.77    0.15
  -2   5  -9    1.99    0.16
   2   5   9    1.84    0.14
   2   5   9    2.17    0.15
   2   5   9    2.05    0.14
  -2   5  -9    1.67    0.17
   3  -5   9    2.28    0.21
   3  -5   9    2.58    0.21
   3   5   9    2.44    0.19
  -3   5  -9    2.80    0.20
  -3   5  -9    2.58    0.19
   3   5   9    2.41    0.18
   4  -5   9    0.96    0.11
   4  -5   9    0.86    0.12
  -4   5  -9    1.13    0.11
   4   5   9    0.99    0.10
   4   5   9    1.01    0.08
   4   5   9    1.19    0.09
  -4   5  -9    1.03    0.10
   5  -5   9    0.17    0.06
   5  -5   9    0.15    0.06
   5   5   9    0.15    0.04
  -5   5  -9    0.00    0.06
   5   5   9    0.12    0.05
  -5   5  -9    0.21    0.05
  -5   5  -9    0.20    0.06
   5   5   9    0.20    0.04
   6  -5   9    6.61    0.57
   6  -5   9    7.53    0.57
  -6   5  -9    7.36    0.53
   6   5   9    7.92    0.52
  -6   5  -9    7.33    0.57
  -6   5  -9    7.30    0.52
   6   5   9    7.69    0.50
   6   5   9    7.12    0.54
   7  -5   9    0.60    0.09
  -7   5  -9    0.52    0.08
  -7   5  -9    0.50    0.09
  -7   5  -9    0.57    0.08
   7   5   9    0.68    0.07
   7   5   9    0.62    0.07
   7   5   9    0.47    0.07
   8  -5   9    2.20    0.19
  -8   5  -9    1.91    0.16
   8   5   9    2.17    0.16
  -8   5  -9    1.92    0.17
   8   5   9    2.23    0.16
  -8   5  -9    1.89    0.19
   8   5   9    1.75    0.17
   9  -5   9    0.22    0.05
   9   5   9    0.17    0.04
  -9   5  -9    0.15    0.04
   9   5   9    0.17    0.03
  -9   5  -9    0.13    0.04
  -9   5  -9    0.22    0.07
  10  -5   9    0.03    0.04
  10   5   9    0.03    0.03
  10   5   9    0.01    0.03
  -9  -6   9    0.90    0.09
   9   6  -9    0.71    0.10
   9   6  -9    0.99    0.10
  -8  -6   9    0.72    0.09
   8   6  -9    0.45    0.07
   8   6  -9    0.62    0.10
  -8   6   9    0.72    0.09
   8   6  -9    0.69    0.10
  -7  -6   9    0.49    0.07
   7   6  -9    0.42    0.06
   7   6  -9    0.46    0.08
   7   6  -9    0.52    0.09
  -7   6   9    0.43    0.06
  -6  -6   9    0.24    0.08
   6   6  -9    0.15    0.06
   6   6  -9    0.24    0.08
   6   6  -9    0.25    0.08
  -6   6   9    0.25    0.05
  -5  -6   9    6.76    0.52
   5   6  -9    6.76    0.48
  -5   6   9    7.23    0.50
   5   6  -9    6.99    0.52
   5   6  -9    6.30    0.53
   5   6  -9    6.64    0.50
  -4  -6   9    0.12    0.07
   4   6  -9    0.10    0.04
   4   6  -9    0.14    0.05
   4   6  -9    0.07    0.05
  -4   6   9    0.11    0.04
   4   6  -9    0.09    0.07
  -3  -6   9    0.72    0.10
   3   6  -9    0.65    0.09
   3   6  -9    0.72    0.10
  -3   6   9    0.86    0.08
   3   6  -9    0.57    0.08
   3   6  -9    0.55    0.09
  -2  -6   9    0.68    0.09
   2   6  -9    0.59    0.09
   2   6  -9    0.87    0.11
   2   6  -9    0.92    0.12
   2   6  -9    0.79    0.08
  -2   6   9    0.60    0.08
  -1  -6   9    0.72    0.09
   1   6  -9    0.85    0.12
  -1   6   9    0.86    0.07
   1   6  -9    0.56    0.08
   1   6  -9    0.59    0.09
   1   6  -9    0.63    0.09
   0  -6   9    0.11    0.04
   0   6  -9    0.05    0.05
   0   6  -9    0.02    0.06
   0   6   9    0.01    0.03
   0   6  -9    0.11    0.04
   0   6  -9    0.09    0.05
   1  -6   9    1.28    0.14
  -1   6  -9    1.34    0.15
  -1   6  -9    1.36    0.12
   1   6   9    1.62    0.12
  -1   6  -9    1.18    0.12
   2  -6   9    1.23    0.14
   2  -6   9    1.06    0.13
  -2   6  -9    1.28    0.12
  -2   6  -9    1.47    0.11
  -2   6  -9    1.27    0.14
   2   6   9    1.17    0.11
   3  -6   9    0.15    0.06
   3  -6   9    0.08    0.06
   3   6   9    0.12    0.02
  -3   6  -9    0.24    0.05
   3   6   9    0.08    0.02
   3   6   9    0.06    0.04
  -3   6  -9    0.20    0.05
  -3   6  -9    0.09    0.07
   4  -6   9    0.33    0.08
   4  -6   9    0.39    0.07
  -4   6  -9    0.42    0.07
   4   6   9    0.47    0.06
   4   6   9    0.46    0.05
   4   6   9    0.36    0.06
  -4   6  -9    0.49    0.09
  -4   6  -9    0.41    0.07
   5  -6   9    0.06    0.06
   5   6   9    0.02    0.04
  -5   6  -9    0.00    0.04
  -5   6  -9    0.03    0.07
   5   6   9    0.02    0.05
  -5   6  -9    0.02    0.04
   5   6   9    0.06    0.03
   6  -6   9    0.40    0.08
  -6   6  -9    0.57    0.09
   6   6   9    0.50    0.05
  -6   6  -9    0.50    0.08
   6   6   9    0.44    0.06
   6   6   9    0.69    0.08
  -6   6  -9    0.62    0.07
   7  -6   9    0.04    0.06
  -7   6  -9   -0.10    0.07
  -7   6  -9    0.05    0.06
  -7   6  -9    0.01    0.04
   7   6   9    0.06    0.05
   7   6   9    0.05    0.05
   7   6   9    0.07    0.03
   8  -6   9    0.25    0.07
  -8   6  -9    0.26    0.05
   8   6   9    0.26    0.05
   8   6   9    0.36    0.04
  -8   6  -9    0.34    0.05
   8   6   9    0.35    0.05
  -8   6  -9    0.32    0.07
  -9   6  -9    0.12    0.05
   9   6   9    0.14    0.03
  -7  -7   9    0.16    0.07
   7   7  -9    0.08    0.06
  -7   7   9    0.06    0.04
   7   7  -9    0.06    0.05
  -6  -7   9    0.11    0.05
  -6   7   9    0.04    0.03
   6   7  -9    0.00    0.04
   6   7  -9    0.08    0.05
   6   7  -9    0.03    0.07
  -5  -7   9    0.21    0.07
   5   7  -9    0.16    0.06
   5   7  -9    0.11    0.04
   5   7  -9    0.21    0.07
  -5   7   9    0.15    0.04
  -4  -7   9    0.10    0.07
  -4   7   9    0.08    0.04
   4   7  -9    0.08    0.07
   4   7  -9    0.06    0.05
   4   7  -9    0.03    0.04
  -3  -7   9    0.20    0.07
   3   7  -9    0.30    0.08
   3   7  -9    0.23    0.06
  -3   7   9    0.12    0.04
   3   7  -9    0.27    0.06
  -2  -7   9    0.65    0.09
  -2   7   9    0.64    0.08
   2   7  -9    0.81    0.12
   2   7  -9    0.66    0.09
   2   7  -9    0.80    0.10
  -1  -7   9    0.01    0.06
  -1   7   9    0.05    0.04
   1   7  -9    0.20    0.06
   1   7  -9    0.24    0.07
   1   7  -9    0.04    0.07
   0  -7   9    0.22    0.05
   0   7  -9    0.25    0.06
   0   7  -9    0.36    0.05
   0   7   9    0.21    0.04
   0   7  -9    0.23    0.08
   1  -7   9    1.80    0.17
  -1   7  -9    1.94    0.15
  -1   7  -9    1.90    0.18
   1   7   9    1.82    0.15
  -1   7  -9    2.00    0.17
   2  -7   9   -0.01    0.06
  -2   7  -9    0.02    0.04
  -2   7  -9    0.04    0.05
   2   7   9   -0.05    0.03
  -2   7  -9    0.08    0.05
   3  -7   9    1.35    0.13
  -3   7  -9    1.42    0.12
   3   7   9    1.24    0.12
  -3   7  -9    1.33    0.12
  -3   7  -9    1.50    0.14
   3   7   9    1.18    0.10
   4  -7   9   -0.03    0.06
  -4   7  -9    0.00    0.06
  -4   7  -9    0.03    0.04
   4   7   9    0.08    0.04
   4   7   9    0.03    0.04
  -4   7  -9    0.04    0.06
   5  -7   9    0.23    0.07
  -5   7  -9    0.05    0.06
  -5   7  -9    0.11    0.04
  -5   7  -9    0.11    0.06
   5   7   9    0.15    0.04
   5   7   9    0.13    0.04
   6  -7   9    0.04    0.04
  -6   7  -9    0.06    0.04
   6   7   9    0.13    0.04
  -6   7  -9    0.12    0.06
   6   7   9    0.06    0.03
   7  -7   9    0.05    0.04
   7   7   9    0.05    0.03
  -7   7  -9   -0.01    0.04
   5   8  -9   -0.09    0.04
  -4  -8   9    2.50    0.20
   4   8  -9    2.15    0.18
   4   8  -9    2.22    0.18
  -3  -8   9    0.07    0.06
   3   8  -9   -0.01    0.04
  -3   8   9    0.03    0.04
   3   8  -9    0.01    0.05
  -2  -8   9    1.53    0.15
   2   8  -9    1.71    0.15
   2   8  -9    1.52    0.12
   2   8  -9    1.65    0.14
  -2   8   9    1.34    0.12
  -1  -8   9    0.09    0.05
   1   8  -9    0.06    0.04
  -1   8   9    0.07    0.04
   1   8  -9    0.06    0.05
   1   8  -9    0.03    0.05
   0  -8   9    0.39    0.06
   0   8  -9    0.45    0.06
   0   8  -9    0.61    0.07
   0   8   9    0.38    0.06
   0   8  -9    0.54    0.07
   1  -8   9   -0.03    0.06
  -1   8  -9   -0.03    0.05
   1   8   9   -0.01    0.02
  -1   8  -9    0.08    0.04
  -1   8  -9    0.02    0.05
   2  -8   9    0.88    0.10
  -2   8  -9    1.06    0.09
   2   8   9    0.92    0.08
  -2   8  -9    1.02    0.10
   2   8   9    0.77    0.09
   3  -8   9   -0.06    0.06
   3   8   9    0.01    0.02
   3   8   9    0.01    0.02
  -3   8  -9    0.03    0.04
  -3   8  -9   -0.06    0.04
   4   8   9    1.52    0.11
  -4   8  -9    1.31    0.11
 -13   0  10    0.39    0.06
 -12   0  10    0.38    0.06
 -11   0  10    0.06    0.05
 -10   0  10   11.58    0.82
  -9   0  10    6.05    0.49
  -9   0  10    5.90    0.48
  -9   0  10    7.08    0.46
  -8   0  10    3.98    0.30
  -8   0  10    3.68    0.31
  -8   0  10    3.98    0.31
  -8   0  10    4.24    0.29
  -7   0  10    0.79    0.07
  -7   0  10    0.86    0.08
  -7   0  10    0.75    0.09
  -7   0  10    0.79    0.09
  -6   0  10    6.37    0.44
  -6   0  10    5.59    0.44
  -6   0  10    5.47    0.45
  -6   0  10    6.58    0.43
  -5   0  10    9.01    0.57
  -5   0  10    8.71    0.62
  -5   0  10    7.79    0.63
  -5   0  10    8.73    0.60
  -4   0  10   39.88    2.69
  -4   0  10   36.66    2.46
  -4   0  10   35.10    2.72
  -4   0  10   39.03    2.62
  -3   0  10   17.15    1.20
  -3   0  10   18.11    1.23
  -3   0  10   16.20    1.12
  -2   0  10    2.38    0.16
  -2   0  10    2.12    0.17
  -1   0  10  247.50   16.91
  -1   0  10  267.86   18.47
  -1   0  10  262.09   18.02
   0   0  10   22.48    1.46
   0   0  10   19.88    1.55
   0   0  10   20.66    1.38
   1   0  10  264.96   17.66
   1   0  10  237.66   16.17
   1   0  10  258.96   17.22
   1   0  10  229.27   18.22
   2   0  10    3.72    0.27
   2   0  10    4.20    0.28
   2   0  10    3.70    0.25
   2   0  10    3.65    0.29
   3   0  10  202.99   16.18
   3   0  10  245.24   15.63
   3   0  10  208.07   16.12
   3   0  10  223.70   15.24
   3   0  10  216.21   14.31
   4   0  10    6.58    0.52
   4   0  10    7.61    0.51
  -4   0 -10    6.62    0.48
   4   0  10    6.74    0.52
   4   0  10    7.56    0.49
   4   0  10    6.89    0.46
   5   0  10   21.48    1.67
  -5   0 -10   22.44    1.52
   5   0  10   20.39    1.67
   5   0  10   23.91    1.48
   5   0  10   22.96    1.57
   5   0  10   24.07    1.62
   6   0  10   42.31    2.79
   6   0  10   39.35    2.62
   6   0  10   36.35    2.95
  -6   0 -10   39.23    2.70
   6   0  10   42.71    2.87
   7   0  10   51.55    3.75
   7   0  10   51.31    3.87
   7   0  10   54.18    3.65
  -7   0 -10   51.87    3.53
   7   0  10   52.93    3.43
   8   0  10    8.15    0.66
  -8   0 -10    9.04    0.60
   8   0  10    9.31    0.59
   8   0  10    8.16    0.62
   8   0  10    8.76    0.65
   9   0  10    4.19    0.30
   9   0  10    4.09    0.28
  -9   0 -10    4.29    0.29
   9   0  10    4.37    0.32
   9   0  10    3.33    0.32
  10   0  10    0.28    0.07
  10   0  10    0.30    0.06
 -10   0 -10    0.25    0.06
  10   0  10    0.31    0.05
 -11   0 -10    1.30    0.11
  11   0  10    1.29    0.11
 -13   1  10    0.32    0.04
 -12  -1  10    0.17    0.06
 -12   1  10    0.28    0.05
 -11  -1  10    0.22    0.06
 -11   1  10    0.31    0.05
 -10  -1  10    0.39    0.09
 -10  -1  10    0.48    0.07
 -10  -1  10    0.48    0.06
 -10   1  10    0.52    0.07
 -10   1  10    0.46    0.07
  10   1 -10    0.40    0.06
  -9  -1  10    1.10    0.10
  -9  -1  10    0.72    0.11
  -9  -1  10    1.21    0.10
   9   1 -10    0.83    0.10
  -9   1  10    0.95    0.11
  -9   1  10    1.23    0.10
  -8  -1  10    2.06    0.15
  -8  -1  10    1.81    0.16
  -8  -1  10    1.66    0.16
  -8  -1  10    1.96    0.15
   8   1 -10    1.69    0.14
  -8   1  10    1.76    0.15
   8   1 -10    1.69    0.16
  -8   1  10    1.97    0.15
  -7  -1  10    2.02    0.18
  -7  -1  10    2.24    0.19
  -7  -1  10    2.41    0.18
  -7  -1  10    2.40    0.20
  -7   1  10    2.35    0.17
  -7   1  10    2.29    0.19
   7   1 -10    2.13    0.19
  -7   1  10    2.53    0.19
   7   1 -10    2.49    0.17
  -6  -1  10    0.10    0.03
  -6  -1  10    0.08    0.03
  -6  -1  10    0.13    0.04
  -6  -1  10    0.09    0.04
  -6   1  10    0.04    0.03
   6   1 -10    0.24    0.04
  -6   1  10    0.07    0.03
   6   1 -10    0.13    0.03
  -6   1  10    0.09    0.03
  -5  -1  10    0.19    0.03
  -5  -1  10    0.19    0.04
  -5  -1  10    0.19    0.04
  -5  -1  10    0.17    0.03
  -5  -1  10    0.23    0.03
  -5   1  10    0.25    0.03
   5   1 -10    0.14    0.04
  -5   1  10    0.20    0.03
  -5   1  10    0.26    0.03
   5   1 -10    0.18    0.03
  -4  -1  10    7.39    0.50
  -4  -1  10    7.64    0.57
  -4  -1  10    8.07    0.54
  -4  -1  10    7.89    0.55
  -4   1  10    7.23    0.50
  -4   1  10    8.14    0.53
   4   1 -10    6.67    0.52
  -4   1  10    8.12    0.55
   4   1 -10    7.24    0.57
  -3  -1  10   61.47    4.24
  -3  -1  10   58.16    4.50
  -3  -1  10   64.71    4.35
  -3  -1  10   61.50    3.99
   3   1 -10   59.20    4.49
  -3   1  10   58.39    3.98
   3   1 -10   59.36    4.10
  -3   1  10   62.50    4.35
  -3   1  10   63.47    4.24
  -2  -1  10   76.52    4.96
  -2  -1  10   81.83    5.41
  -2  -1  10   68.62    5.60
  -2  -1  10   75.82    5.28
  -2   1  10   80.32    5.41
   2   1 -10   71.08    5.10
  -2   1  10   79.81    5.27
  -2   1  10   71.40    4.95
   2   1 -10   77.25    5.58
  -1  -1  10    0.08    0.02
  -1  -1  10    0.10    0.02
  -1  -1  10    0.20    0.03
  -1   1  10    0.14    0.02
  -1   1  10    0.14    0.02
  -1   1  10    0.12    0.02
   1   1 -10    0.11    0.02
   0  -1  10   26.57    1.83
   0  -1  10   26.94    1.77
   0  -1  10   25.60    1.62
   0  -1  10   23.29    1.83
   0  -1  10   25.66    1.72
   0   1 -10   22.88    1.66
   0   1  10   25.42    1.76
   0   1  10   25.02    1.72
   0   1  10   21.21    1.76
   1  -1  10   12.47    0.87
   1  -1  10   12.66    0.99
   1  -1  10   13.74    0.93
   1  -1  10   14.09    0.96
   1  -1  10   14.50    0.99
   1   1  10   14.64    0.95
   1   1  10   14.17    0.93
  -1   1 -10   11.57    0.90
   1   1  10   12.05    0.87
   2  -1  10    2.81    0.20
   2  -1  10    2.72    0.18
   2  -1  10    2.66    0.20
   2  -1  10    2.68    0.19
   2  -1  10    2.56    0.20
  -2   1 -10    2.67    0.18
   2   1  10    2.56    0.20
   2   1  10    2.49    0.18
   2   1  10    2.41    0.19
   3  -1  10   16.74    1.12
   3  -1  10   14.70    1.08
   3  -1  10   14.73    1.02
   3  -1  10   15.55    1.15
   3  -1  10   14.81    1.15
   3   1  10   16.76    1.08
  -3   1 -10   14.74    1.05
   3   1  10   15.74    1.02
   4  -1  10    0.05    0.02
   4  -1  10    0.12    0.03
   4  -1  10    0.08    0.04
   4  -1  10    0.07    0.03
   4  -1  10    0.10    0.04
   4   1  10    0.06    0.02
  -4   1 -10    0.05    0.03
   4   1  10    0.06    0.02
   4   1  10    0.02    0.03
   5  -1  10    4.02    0.30
   5  -1  10    4.28    0.32
   5  -1  10    4.27    0.32
   5  -1  10    4.49    0.29
   5  -1  10    4.20    0.33
   5   1  10    4.38    0.29
  -5   1 -10    4.45    0.30
   5   1  10    4.05    0.31
   5   1  10    4.27    0.30
   5   1  10    3.55    0.32
  -5   1 -10    4.06    0.32
   5   1  10    4.73    0.32
   6  -1  10    7.22    0.48
   6  -1  10    7.61    0.54
   6  -1  10    7.58    0.51
   6  -1  10    7.01    0.53
   6  -1  10    7.06    0.55
   6   1  10    7.42    0.51
   6   1  10    6.15    0.54
   6   1  10    7.07    0.54
   6   1  10    7.18    0.52
  -6   1 -10    7.00    0.54
  -6   1 -10    7.60    0.50
   6   1  10    7.28    0.48
   6   1  10    7.39    0.53
   7  -1  10    0.25    0.05
   7  -1  10    0.13    0.05
   7  -1  10    0.15    0.06
   7  -1  10    0.14    0.05
   7   1  10    0.20    0.04
   7   1  10    0.11    0.04
   7   1  10    0.17    0.04
  -7   1 -10    0.09    0.05
   7   1  10    0.15    0.04
  -7   1 -10    0.20    0.04
   7   1  10    0.17    0.04
   8  -1  10    0.67    0.09
   8  -1  10    0.69    0.09
   8  -1  10    0.85    0.10
  -8  -1 -10    0.83    0.08
  -8   1 -10    0.79    0.08
   8   1  10    0.77    0.07
   8   1  10    0.59    0.09
   8   1  10    0.61    0.08
   8   1  10    0.58    0.08
   8   1  10    0.78    0.08
   9  -1  10    0.43    0.08
   9  -1  10    0.45    0.07
   9  -1  10    0.96    0.11
  -9  -1 -10    0.51    0.07
   9   1  10    0.66    0.07
   9   1  10    0.71    0.07
   9   1  10    0.74    0.10
  -9   1 -10    0.62    0.08
  10  -1  10    2.54    0.20
  10   1  10    2.29    0.19
  10   1  10    2.41    0.19
 -10   1 -10    2.50    0.19
  11  -1  10    0.44    0.06
  11   1  10    0.43    0.06
  11   1  10    0.29    0.06
 -11   1 -10    0.33    0.06
  12   1  10   -0.04    0.03
 -12   2  10    1.38    0.11
 -11  -2  10    0.01    0.03
 -11   2  10    0.00    0.06
 -11   2  10    0.00    0.03
  11   2 -10    0.01    0.03
 -11   2  10    0.01    0.04
 -10  -2  10    1.47    0.14
 -10  -2  10    1.38    0.14
 -10   2  10    1.49    0.15
  10   2 -10    1.30    0.12
 -10   2  10    1.79    0.13
  -9  -2  10    0.53    0.07
  -9  -2  10    0.60    0.09
  -9  -2  10    0.61    0.08
  -9   2  10    0.65    0.07
   9   2 -10    0.62    0.08
   9   2 -10    0.47    0.08
  -9   2  10    0.53    0.08
  -8  -2  10    7.88    0.68
  -8  -2  10    8.64    0.64
  -8  -2  10    9.58    0.68
   8   2 -10    8.46    0.69
  -8   2  10    9.85    0.64
   8   2 -10    9.03    0.62
  -8   2  10    9.46    0.66
  -7  -2  10    1.67    0.16
  -7  -2  10    1.99    0.16
  -7  -2  10    1.98    0.18
  -7  -2  10    2.09    0.16
  -7   2  10    1.85    0.15
   7   2 -10    2.02    0.17
   7   2 -10    2.08    0.15
  -7   2  10    1.78    0.16
  -6  -2  10    4.37    0.33
  -6  -2  10    4.03    0.34
  -6  -2  10    4.32    0.29
  -6  -2  10    4.05    0.33
  -6  -2  10    3.85    0.31
  -6   2  10    4.33    0.30
   6   2 -10    4.51    0.30
   6   2 -10    4.07    0.33
  -6   2  10    4.75    0.32
  -5  -2  10    0.50    0.06
  -5  -2  10    0.66    0.06
  -5  -2  10    0.54    0.07
  -5  -2  10    0.62    0.07
  -5   2  10    0.51    0.05
   5   2 -10    0.64    0.06
  -5   2  10    0.58    0.06
   5   2 -10    0.61    0.07
  -4  -2  10    0.33    0.05
  -4  -2  10    0.34    0.04
  -4  -2  10    0.27    0.04
  -4  -2  10    0.26    0.04
  -4   2  10    0.37    0.03
  -4   2  10    0.34    0.04
   4   2 -10    0.33    0.04
  -3  -2  10    0.06    0.04
  -3  -2  10    0.09    0.03
  -3  -2  10    0.11    0.02
   3   2 -10    0.08    0.03
   3   2 -10    0.10    0.02
  -3   2  10    0.08    0.01
  -3   2  10    0.08    0.01
  -3   2  10    0.05    0.01
  -2  -2  10    1.15    0.10
  -2  -2  10    1.22    0.09
  -2  -2  10    1.26    0.09
  -2  -2  10    1.29    0.11
   2   2 -10    1.39    0.11
  -2   2  10    1.10    0.08
   2   2 -10    1.24    0.09
  -1  -2  10    9.61    0.64
  -1  -2  10    9.32    0.68
  -1  -2  10    9.36    0.72
  -1  -2  10    9.90    0.72
  -1  -2  10    9.70    0.70
   1   2 -10   10.27    0.66
   0  -2  10    4.44    0.31
   0  -2  10    4.27    0.30
   0  -2  10    3.75    0.29
   0  -2  10    3.82    0.31
   0  -2  10    4.01    0.27
   0   2 -10    4.12    0.28
   1  -2  10    9.60    0.71
   1  -2  10    9.47    0.67
   1  -2  10   10.18    0.71
   1  -2  10   10.02    0.69
   1  -2  10    9.56    0.63
   1   2  10    9.12    0.63
   1   2  10   10.07    0.66
  -1   2 -10    9.72    0.65
   1   2  10   10.18    0.68
   1   2  10    8.60    0.68
   1   2  10    8.53    0.66
   2  -2  10    2.55    0.20
   2  -2  10    2.55    0.19
   2  -2  10    2.50    0.18
   2  -2  10    2.74    0.20
   2   2  10    2.63    0.19
   2   2  10    2.52    0.18
   2   2  10    2.23    0.17
  -2   2 -10    2.54    0.18
   3  -2  10    0.46    0.07
   3  -2  10    0.49    0.06
   3  -2  10    0.46    0.06
   3  -2  10    0.48    0.06
   3  -2  10    0.40    0.06
   3   2  10    0.53    0.05
   3   2  10    0.57    0.05
   3   2  10    0.43    0.04
  -3   2 -10    0.46    0.05
   4  -2  10   12.12    0.79
   4  -2  10   11.95    0.87
   4  -2  10   11.77    0.90
   4  -2  10   10.74    0.84
   4  -2  10   12.32    0.89
   4   2  10   12.40    0.84
  -4   2 -10   12.83    0.82
   4   2  10   12.78    0.87
   4   2  10   12.14    0.79
   4   2  10   10.87    0.84
   5  -2  10    1.07    0.10
   5  -2  10    0.97    0.11
   5  -2  10    1.01    0.10
   5  -2  10    0.89    0.09
   5   2  10    1.02    0.08
   5   2  10    0.90    0.09
   5   2  10    1.09    0.09
  -5   2 -10    1.01    0.09
   5   2  10    1.09    0.10
   6  -2  10    0.21    0.06
   6  -2  10    0.14    0.05
   6  -2  10    0.28    0.05
  -6   2 -10    0.25    0.05
   6   2  10    0.22    0.04
   6   2  10    0.21    0.04
   6   2  10    0.22    0.04
  -6   2 -10    0.11    0.04
   6   2  10    0.28    0.05
   7  -2  10    8.19    0.60
   7  -2  10    8.32    0.68
   7  -2  10    9.20    0.68
   7   2  10    9.18    0.66
  -7   2 -10    8.04    0.67
  -7   2 -10    9.39    0.62
   7   2  10    9.63    0.63
   7   2  10    9.20    0.60
   7   2  10    9.11    0.64
   8  -2  10    0.07    0.05
   8  -2  10    0.12    0.06
   8   2  10    0.03    0.05
   8   2  10    0.10    0.04
   8   2  10    0.21    0.06
  -8   2 -10    0.08    0.06
  -8   2 -10    0.06    0.04
   8   2  10    0.06    0.05
   9  -2  10   11.14    0.95
   9  -2  10   13.56    0.95
   9   2  10   12.69    0.84
  -9   2 -10   12.67    0.87
   9   2  10   13.10    0.89
  10  -2  10    0.80    0.09
 -10   2 -10    0.80    0.10
  10   2  10    0.78    0.10
  10   2  10    0.73    0.08
  11  -2  10    1.80    0.14
 -11   2 -10    1.49    0.15
  11   2  10    1.79    0.14
 -11   2 -10    1.74    0.14
 -12   3  10    0.13    0.03
 -11  -3  10   -0.02    0.04
 -11   3  10    0.00    0.04
  11   3 -10    0.02    0.03
 -11   3  10    0.05    0.03
 -10  -3  10    0.04    0.05
 -10   3  10    0.06    0.06
 -10   3  10    0.04    0.04
  10   3 -10    0.03    0.04
  -9  -3  10    0.12    0.06
  -9   3  10    0.23    0.06
   9   3 -10    0.18    0.07
  -9   3  10    0.24    0.04
   9   3 -10    0.14    0.06
  -8  -3  10    0.37    0.07
  -8   3  10    0.37    0.06
   8   3 -10    0.26    0.06
   8   3 -10    0.29    0.06
  -8   3  10    0.50    0.05
  -7  -3  10    1.00    0.11
   7   3 -10    0.71    0.11
  -7   3  10    0.83    0.09
  -7   3  10    1.08    0.08
   7   3 -10    1.02    0.10
  -6  -3  10    0.07    0.04
  -6  -3  10    0.15    0.05
   6   3 -10    0.14    0.05
  -6   3  10    0.06    0.03
   6   3 -10    0.03    0.04
  -6   3  10    0.05    0.02
  -5  -3  10    0.50    0.07
  -5  -3  10    0.41    0.05
  -5  -3  10    0.45    0.06
  -5   3  10    0.58    0.04
   5   3 -10    0.44    0.06
  -5   3  10    0.64    0.06
   5   3 -10    0.51    0.07
  -4  -3  10    2.85    0.23
  -4  -3  10    2.74    0.20
  -4  -3  10    2.63    0.22
  -4  -3  10    2.43    0.21
  -4   3  10    3.19    0.21
   4   3 -10    2.98    0.23
   4   3 -10    2.89    0.21
  -3  -3  10    3.03    0.24
  -3  -3  10    3.52    0.26
  -3  -3  10    3.30    0.26
  -3  -3  10    3.23    0.23
   3   3 -10    3.37    0.23
   3   3 -10    3.42    0.26
  -2  -3  10    6.46    0.48
  -2  -3  10    6.32    0.43
  -2  -3  10    6.28    0.47
  -2  -3  10    5.73    0.45
   2   3 -10    6.91    0.49
   2   3 -10    6.44    0.44
  -1  -3  10   30.27    2.18
  -1  -3  10   30.79    2.18
  -1  -3  10   29.09    1.93
  -1  -3  10   25.09    2.05
   1   3 -10   31.82    1.98
   0  -3  10    2.52    0.19
   0  -3  10    2.50    0.18
   0  -3  10    2.26    0.19
   0  -3  10    2.38    0.19
   0  -3  10    2.36    0.17
   0   3 -10    2.38    0.17
   1  -3  10   16.08    1.29
   1  -3  10   18.09    1.33
   1  -3  10   18.98    1.37
   1  -3  10   19.76    1.37
   1  -3  10   18.49    1.21
  -1   3 -10   18.74    1.25
   1   3  10   19.07    1.32
   2  -3  10    3.41    0.26
   2  -3  10    3.24    0.23
   2  -3  10    3.52    0.26
   2   3  10    3.25    0.22
   2   3  10    3.13    0.24
  -2   3 -10    3.42    0.24
   2   3  10    3.55    0.25
   2   3  10    3.46    0.24
   3  -3  10    5.46    0.39
   3  -3  10    5.86    0.44
   3  -3  10    6.04    0.44
   3   3  10    5.67    0.40
  -3   3 -10    5.92    0.40
   3   3  10    5.87    0.42
   3   3  10    5.49    0.38
   4  -3  10    3.32    0.26
   4  -3  10    3.29    0.23
   4  -3  10    3.41    0.26
  -4   3 -10    3.29    0.24
   4   3  10    3.25    0.23
   4   3  10    3.43    0.24
   4   3  10    3.33    0.25
   5  -3  10    1.06    0.09
   5  -3  10    1.12    0.12
   5  -3  10    1.34    0.12
  -5   3 -10    1.24    0.10
   5   3  10    1.19    0.09
   5   3  10    1.04    0.09
   5   3  10    1.00    0.10
   6  -3  10    2.42    0.21
   6  -3  10    2.11    0.21
   6   3  10    2.66    0.18
  -6   3 -10    2.50    0.19
   6   3  10    2.32    0.18
   6   3  10    2.52    0.18
   6   3  10    2.17    0.19
   7  -3  10    1.20    0.13
   7  -3  10    1.54    0.14
  -7   3 -10    1.26    0.13
   7   3  10    1.18    0.12
  -7   3 -10    1.51    0.13
   7   3  10    1.09    0.12
   7   3  10    1.27    0.11
   7   3  10    1.44    0.12
   8  -3  10    0.86    0.12
   8  -3  10    0.56    0.09
  -8   3 -10    0.62    0.10
   8   3  10    0.71    0.08
   8   3  10    0.78    0.08
  -8   3 -10    0.74    0.10
   8   3  10    0.76    0.09
  -8   3 -10    0.88    0.12
   8   3  10    0.69    0.09
   9  -3  10    0.40    0.08
   9   3  10    0.39    0.07
   9   3  10    0.46    0.05
  -9   3 -10    0.33    0.06
   9   3  10    0.36    0.06
   9   3  10    0.38    0.06
  -9   3 -10    0.18    0.08
  10  -3  10    0.04    0.06
 -10   3 -10    0.02    0.06
 -10   3 -10    0.06    0.07
  10   3  10    0.00    0.04
  10   3  10    0.06    0.04
  11  -3  10    0.12    0.05
 -11   3 -10    0.03    0.06
  11   3  10    0.10    0.04
  11   3  10    0.12    0.05
 -11  -4  10    0.43    0.06
  11   4 -10    0.42    0.07
 -10  -4  10    0.13    0.04
 -10   4  10    0.08    0.03
  10   4 -10    0.15    0.06
 -10   4  10    0.03    0.05
  -9  -4  10    3.34    0.25
  -9   4  10    2.86    0.24
  -9   4  10    2.91    0.22
   9   4 -10    3.14    0.23
  -8  -4  10    0.04    0.06
  -8   4  10   -0.01    0.05
  -8   4  10    0.03    0.02
   8   4 -10    0.03    0.05
   8   4 -10    0.05    0.04
  -7  -4  10    0.10    0.06
   7   4 -10    0.14    0.04
  -7   4  10    0.12    0.04
   7   4 -10    0.11    0.05
  -7   4  10    0.11    0.02
  -6  -4  10    0.18    0.06
   6   4 -10    0.18    0.07
  -6   4  10    0.13    0.02
  -6   4  10    0.15    0.04
   6   4 -10    0.23    0.04
  -5  -4  10    2.60    0.21
  -5  -4  10    2.33    0.18
   5   4 -10    2.32    0.21
   5   4 -10    2.48    0.19
  -5   4  10    2.50    0.19
  -4  -4  10    2.28    0.19
  -4  -4  10    2.18    0.17
   4   4 -10    2.27    0.20
   4   4 -10    2.40    0.18
  -4   4  10    2.45    0.18
  -3  -4  10    2.97    0.24
  -3  -4  10    3.51    0.28
   3   4 -10    3.59    0.28
   3   4 -10    3.76    0.25
  -3   4  10    3.53    0.25
  -2  -4  10    1.43    0.13
  -2  -4  10    1.50    0.12
   2   4 -10    1.72    0.14
  -2   4  10    1.23    0.11
   2   4 -10    1.67    0.12
  -1  -4  10    1.00    0.10
  -1  -4  10    1.12    0.11
   1   4 -10    1.21    0.10
   0  -4  10    6.98    0.52
   0  -4  10    7.53    0.52
   0  -4  10    6.27    0.46
   0   4 -10    7.16    0.47
   0   4 -10    6.68    0.50
   0   4  10    6.62    0.49
   1  -4  10    5.22    0.39
   1  -4  10    6.31    0.45
   1  -4  10    5.88    0.45
  -1   4 -10    5.65    0.41
   1   4  10    5.72    0.42
  -1   4 -10    6.16    0.42
   2  -4  10    1.12    0.10
   2  -4  10    1.31    0.12
   2  -4  10    1.15    0.11
   2   4  10    1.07    0.10
  -2   4 -10    1.30    0.11
  -2   4 -10    1.23    0.10
   3  -4  10    8.61    0.63
   3  -4  10    8.04    0.63
  -3   4 -10    8.56    0.59
  -3   4 -10    8.49    0.57
   3   4  10    8.25    0.60
   3   4  10    7.98    0.55
   3   4  10    8.19    0.58
   4  -4  10    1.86    0.15
   4  -4  10    1.60    0.16
  -4   4 -10    1.86    0.14
  -4   4 -10    1.64    0.14
   4   4  10    1.72    0.12
   4   4  10    1.64    0.14
   4   4  10    1.59    0.12
  -4   4 -10    1.41    0.16
   5  -4  10    0.99    0.12
   5  -4  10    1.16    0.12
   5   4  10    1.12    0.09
  -5   4 -10    1.04    0.10
   5   4  10    1.06    0.10
  -5   4 -10    0.88    0.11
  -5   4 -10    0.86    0.11
   5   4  10    1.17    0.09
   6  -4  10    0.02    0.06
   6  -4  10    0.10    0.06
   6   4  10    0.00    0.04
  -6   4 -10    0.01    0.05
  -6   4 -10    0.08    0.06
  -6   4 -10    0.00    0.05
   6   4  10    0.03    0.03
   6   4  10    0.06    0.03
   7  -4  10    0.93    0.12
   7  -4  10    1.24    0.13
  -7   4 -10    0.93    0.11
  -7   4 -10    0.97    0.10
   7   4  10    0.97    0.10
  -7   4 -10    0.98    0.10
   7   4  10    0.94    0.09
  -7   4 -10    0.79    0.11
   7   4  10    0.73    0.11
   8  -4  10    0.15    0.07
  -8   4 -10    0.12    0.05
   8   4  10    0.18    0.06
   8   4  10    0.13    0.05
   8   4  10    0.15    0.05
   8   4  10    0.10    0.04
  -8   4 -10    0.11    0.06
   9  -4  10    0.34    0.08
   9   4  10    0.29    0.06
   9   4  10    0.41    0.06
  -9   4 -10    0.32    0.06
  -9   4 -10    0.18    0.08
   9   4  10    0.36    0.07
   9   4  10    0.38    0.05
  10  -4  10    0.64    0.09
 -10   4 -10    0.40    0.07
  10   4  10    0.51    0.06
 -10   4 -10    0.51    0.07
  10   4  10    0.50    0.07
 -10  -5  10    0.03    0.05
  10   5 -10    0.01    0.07
  -9  -5  10    2.33    0.19
   9   5 -10    2.25    0.18
  -9   5  10    2.01    0.18
   9   5 -10    2.20    0.20
  -8  -5  10    2.57    0.21
   8   5 -10    2.17    0.22
  -8   5  10    2.34    0.19
   8   5 -10    2.29    0.19
  -7  -5  10   -0.03    0.07
   7   5 -10   -0.06    0.07
   7   5 -10    0.01    0.04
  -7   5  10    0.06    0.05
  -6  -5  10    2.11    0.17
  -6   5  10    1.88    0.16
   6   5 -10    1.71    0.18
   6   5 -10    1.77    0.16
   6   5 -10    1.87    0.19
  -5  -5  10    7.50    0.54
   5   5 -10    6.36    0.54
   5   5 -10    7.19    0.49
  -5   5  10    7.20    0.52
   5   5 -10    6.86    0.52
   5   5 -10    7.19    0.55
  -4  -5  10    1.55    0.15
   4   5 -10    1.57    0.13
   4   5 -10    1.38    0.15
  -4   5  10    1.42    0.12
   4   5 -10    1.44    0.14
   4   5 -10    1.36    0.13
  -3  -5  10    1.38    0.13
   3   5 -10    1.41    0.14
  -3   5  10    1.38    0.11
   3   5 -10    1.34    0.15
   3   5 -10    1.37    0.12
   3   5 -10    1.41    0.15
  -2  -5  10   15.20    1.14
   2   5 -10   15.14    1.04
  -2   5  10   15.95    1.09
   2   5 -10   13.73    1.14
   2   5 -10   16.09    1.08
   2   5 -10   15.25    1.14
  -1  -5  10    2.04    0.17
   1   5 -10    1.91    0.18
  -1   5  10    1.82    0.15
   1   5 -10    1.89    0.18
   1   5 -10    1.94    0.15
   1   5 -10    1.89    0.16
   0  -5  10   11.66    0.90
   0   5 -10   11.38    0.90
   0   5 -10   12.58    0.82
   0   5 -10   11.68    0.85
   0   5  10   12.66    0.86
   1  -5  10    0.05    0.05
   1  -5  10    0.01    0.04
   1   5  10    0.00    0.02
  -1   5 -10    0.04    0.03
  -1   5 -10    0.05    0.04
   2  -5  10    7.69    0.63
   2  -5  10    8.51    0.63
   2   5  10    8.54    0.60
  -2   5 -10    7.90    0.63
  -2   5 -10    8.52    0.59
  -2   5 -10    8.22    0.57
   3  -5  10    1.13    0.12
   3  -5  10    1.01    0.12
  -3   5 -10    1.18    0.11
   3   5  10    1.07    0.09
   3   5  10    0.89    0.07
  -3   5 -10    1.13    0.11
  -3   5 -10    1.10    0.13
   3   5  10    1.02    0.07
   3   5  10    1.01    0.08
   4  -5  10    1.15    0.13
   4  -5  10    1.36    0.13
  -4   5 -10    1.39    0.13
  -4   5 -10    1.24    0.11
   4   5  10    1.15    0.11
   4   5  10    1.31    0.10
   4   5  10    1.22    0.09
   5  -5  10    6.85    0.49
   5  -5  10    5.65    0.49
  -5   5 -10    5.71    0.44
  -5   5 -10    6.35    0.46
   5   5  10    6.90    0.44
  -5   5 -10    5.92    0.49
   5   5  10    6.09    0.47
   5   5  10    6.84    0.43
   6  -5  10    3.03    0.29
   6  -5  10    3.80    0.29
  -6   5 -10    3.41    0.29
  -6   5 -10    3.69    0.27
   6   5  10    2.97    0.26
   6   5  10    3.49    0.25
   6   5  10    3.61    0.25
  -6   5 -10    3.84    0.26
   7  -5  10    0.95    0.11
   7   5  10    1.09    0.09
   7   5  10    0.88    0.10
   7   5  10    0.92    0.09
  -7   5 -10    0.98    0.10
  -7   5 -10    0.95    0.10
  -7   5 -10    1.05    0.13
   8  -5  10    0.42    0.08
   8   5  10    0.37    0.04
  -8   5 -10    0.40    0.08
  -8   5 -10    0.37    0.06
   8   5  10    0.32    0.05
   8   5  10    0.36    0.06
  -8   5 -10    0.21    0.06
   9  -5  10    0.88    0.09
  -9   5 -10    0.84    0.08
   9   5  10    0.93    0.08
   9   5  10    0.85    0.07
  -9   5 -10    0.61    0.08
  -9  -6  10    0.87    0.09
   9   6 -10    0.76    0.09
  -8  -6  10    0.45    0.06
   8   6 -10    0.33    0.05
   8   6 -10    0.40    0.07
  -8   6  10    0.25    0.06
  -7  -6  10    0.55    0.08
  -7   6  10    0.56    0.07
   7   6 -10    0.56    0.09
   7   6 -10    0.42    0.09
   7   6 -10    0.57    0.07
  -6  -6  10    0.13    0.07
   6   6 -10    0.08    0.05
  -6   6  10    0.06    0.04
   6   6 -10    0.06    0.05
   6   6 -10    0.05    0.05
  -5  -6  10    2.74    0.23
   5   6 -10    2.62    0.20
  -5   6  10    2.31    0.20
   5   6 -10    2.69    0.23
   5   6 -10    2.34    0.22
  -4  -6  10    2.99    0.24
  -4   6  10    2.66    0.21
   4   6 -10    2.88    0.24
   4   6 -10    2.55    0.24
   4   6 -10    2.54    0.23
   4   6 -10    2.74    0.20
  -3  -6  10    8.23    0.61
   3   6 -10    8.49    0.61
   3   6 -10    8.21    0.55
  -3   6  10    7.95    0.57
   3   6 -10    7.06    0.57
   3   6 -10    7.38    0.61
  -2  -6  10    0.19    0.05
   2   6 -10    0.23    0.07
   2   6 -10    0.20    0.05
   2   6 -10    0.23    0.05
   2   6 -10    0.08    0.07
  -2   6  10    0.16    0.03
  -1  -6  10   16.17    1.27
   1   6 -10   17.71    1.16
   1   6 -10   17.52    1.21
   1   6 -10   17.42    1.28
   1   6 -10   14.98    1.28
  -1   6  10   18.35    1.22
   0  -6  10    0.35    0.07
   0   6 -10    0.33    0.06
   0   6  10    0.34    0.05
   0   6 -10    0.28    0.07
   0   6 -10    0.18    0.07
   0   6 -10    0.38    0.06
   1  -6  10    9.31    0.69
   1   6  10    9.59    0.66
  -1   6 -10    8.82    0.66
  -1   6 -10    9.00    0.70
  -1   6 -10    8.86    0.63
   2  -6  10    0.01    0.06
   2  -6  10    0.04    0.04
  -2   6 -10    0.06    0.05
   2   6  10    0.01    0.03
  -2   6 -10    0.07    0.04
  -2   6 -10   -0.04    0.07
   3  -6  10    0.96    0.13
   3  -6  10    1.14    0.13
   3   6  10    1.12    0.09
  -3   6 -10    1.08    0.11
   3   6  10    1.25    0.10
  -3   6 -10    1.07    0.10
  -3   6 -10    1.14    0.12
   4  -6  10    3.11    0.26
  -4   6 -10    3.34    0.25
   4   6  10    3.24    0.22
  -4   6 -10    3.22    0.27
  -4   6 -10    3.14    0.23
   4   6  10    2.98    0.24
   5  -6  10    1.86    0.17
  -5   6 -10    1.95    0.18
   5   6  10    1.67    0.15
   5   6  10    1.94    0.14
  -5   6 -10    1.91    0.15
  -5   6 -10    1.90    0.17
   6  -6  10    3.17    0.25
  -6   6 -10    3.05    0.23
   6   6  10    2.86    0.21
  -6   6 -10    2.94    0.23
   6   6  10    2.86    0.23
  -6   6 -10    3.18    0.24
   6   6  10    2.67    0.20
   7  -6  10    0.26    0.05
  -7   6 -10    0.19    0.05
   7   6  10    0.21    0.03
   7   6  10    0.10    0.05
   7   6  10    0.17    0.05
  -7   6 -10    0.20    0.06
  -7   6 -10    0.22    0.05
   8  -6  10    0.51    0.08
  -8   6 -10    0.57    0.07
   8   6  10    0.52    0.06
  -7  -7  10    0.07    0.06
   7   7 -10   -0.02    0.04
  -6  -7  10    1.28    0.12
   6   7 -10    1.49    0.14
   6   7 -10    1.28    0.11
   6   7 -10    1.36    0.12
  -6   7  10    1.19    0.11
  -5  -7  10    0.28    0.07
  -5   7  10    0.18    0.04
   5   7 -10    0.27    0.08
   5   7 -10    0.23    0.05
   5   7 -10    0.21    0.07
  -4  -7  10    1.83    0.17
  -4   7  10    1.45    0.14
   4   7 -10    1.64    0.16
   4   7 -10    1.69    0.14
   4   7 -10    1.86    0.17
  -3  -7  10   -0.04    0.06
   3   7 -10    0.05    0.07
  -3   7  10    0.02    0.03
   3   7 -10    0.05    0.06
   3   7 -10    0.06    0.07
  -2  -7  10    6.18    0.47
   2   7 -10    6.39    0.48
   2   7 -10    6.10    0.43
   2   7 -10    5.98    0.45
  -2   7  10    5.91    0.45
  -1  -7  10    0.07    0.06
   1   7 -10    0.04    0.05
   1   7 -10    0.08    0.06
   1   7 -10    0.00    0.04
  -1   7  10    0.00    0.03
   0  -7  10    0.05    0.05
   0   7 -10    0.09    0.04
   0   7 -10    0.09    0.07
   0   7  10    0.07    0.03
   0   7 -10    0.09    0.07
   1  -7  10    0.70    0.09
  -1   7 -10    0.84    0.11
  -1   7 -10    0.83    0.09
  -1   7 -10    0.79    0.11
   1   7  10    0.61    0.07
   2  -7  10    0.00    0.04
  -2   7 -10    0.03    0.05
  -2   7 -10    0.04    0.04
   2   7  10    0.04    0.02
  -2   7 -10    0.11    0.06
   2   7  10   -0.02    0.03
   3  -7  10    0.04    0.06
   3   7  10    0.12    0.04
  -3   7 -10    0.10    0.04
   3   7  10    0.07    0.04
  -3   7 -10    0.08    0.07
  -3   7 -10    0.12    0.04
   4  -7  10    0.66    0.08
  -4   7 -10    0.48    0.08
   4   7  10    0.61    0.06
  -4   7 -10    0.56    0.07
   4   7  10    0.55    0.07
  -4   7 -10    0.52    0.08
   5  -7  10    0.54    0.07
   5   7  10    0.55    0.07
  -5   7 -10    0.56    0.07
  -5   7 -10    0.37    0.06
  -5   7 -10    0.57    0.07
   5   7  10    0.56    0.06
   6  -7  10    0.06    0.04
  -6   7 -10    0.04    0.04
  -6   7 -10    0.05    0.04
   6   7  10    0.00    0.02
  -4  -8  10    0.21    0.05
   4   8 -10    0.22    0.04
  -3  -8  10    1.24    0.12
   3   8 -10    1.01    0.11
   3   8 -10    1.06    0.10
  -2  -8  10    0.03    0.06
   2   8 -10    0.12    0.06
   2   8 -10    0.10    0.05
  -2   8  10    0.06    0.02
  -1  -8  10    0.30    0.06
   1   8 -10    0.38    0.05
   1   8 -10    0.29    0.06
  -1   8  10    0.27    0.04
   0  -8  10    0.46    0.06
   0   8 -10    0.35    0.07
   0   8  10    0.47    0.05
   0   8 -10    0.55    0.07
   1  -8  10    1.11    0.11
   1   8  10    1.03    0.08
   1   8  10    1.04    0.09
  -1   8 -10    1.25    0.11
   2  -8  10   -0.01    0.04
   2   8  10    0.03    0.03
  -2   8 -10    0.05    0.04
  -2   8 -10    0.04    0.04
   3  -8  10    0.50    0.07
  -3   8 -10    0.59    0.06
   3   8  10    0.50    0.05
 -12   0  11    0.00    0.05
 -11   0  11    0.04    0.04
 -10   0  11   -0.02    0.05
 -10   0  11   -0.05    0.04
 -10   0  11    0.04    0.06
  -9   0  11    0.01    0.05
  -9   0  11    0.01    0.04
  -9   0  11   -0.01    0.06
  -8   0  11   -0.02    0.05
  -8   0  11    0.03    0.05
  -8   0  11   -0.01    0.04
  -7   0  11    0.07    0.04
  -7   0  11    0.12    0.05
  -7   0  11    0.05    0.03
  -6   0  11   -0.03    0.03
  -6   0  11   -0.01    0.03
  -6   0  11    0.02    0.03
  -5   0  11    0.05    0.03
  -5   0  11    0.07    0.03
  -5   0  11    0.06    0.02
  -5   0  11    0.00    0.03
  -4   0  11    0.48    0.05
  -4   0  11    0.50    0.05
  -3   0  11    0.06    0.02
  -3   0  11    0.14    0.02
  -3   0  11    0.13    0.02
  -2   0  11    0.06    0.02
  -2   0  11    0.01    0.01
  -2   0  11   -0.01    0.02
  -1   0  11    0.06    0.02
  -1   0  11    0.05    0.02
  -1   0  11    0.04    0.02
   0   0  11    0.15    0.02
   0   0  11    0.13    0.02
   1   0  11    0.20    0.03
   2   0  11    0.81    0.08
   2   0  11    0.61    0.06
   2   0  11    0.97    0.07
   3   0  11    0.14    0.04
   3   0  11    0.08    0.03
   3   0  11    0.06    0.02
   3   0  11    0.05    0.01
   3   0  11    0.12    0.03
   4   0  11    0.03    0.03
   4   0  11    0.01    0.02
   4   0  11    0.00    0.03
   4   0  11    0.03    0.03
   4   0  11    0.02    0.03
   5   0  11    0.15    0.04
   5   0  11    0.16    0.03
   5   0  11    0.22    0.04
   5   0  11    0.21    0.05
  -5   0 -11    0.11    0.03
   6   0  11    0.02    0.04
   6   0  11    0.13    0.04
   6   0  11    0.01    0.04
  -6   0 -11    0.04    0.04
   6   0  11   -0.04    0.04
   6   0  11    0.04    0.05
   7   0  11   -0.05    0.06
   7   0  11    0.02    0.03
  -7   0 -11   -0.01    0.04
   7   0  11    0.01    0.05
   7   0  11    0.06    0.04
   7   0  11    0.06    0.05
   8   0  11    0.00    0.04
   8   0  11    0.01    0.05
   8   0  11    0.07    0.05
   8   0  11    0.02    0.04
  -8   0 -11   -0.01    0.03
   9   0  11   -0.03    0.03
  -9   0 -11   -0.01    0.05
   9   0  11    0.00    0.04
   9   0  11    0.00    0.04
   9   0  11    0.05    0.05
  10   0  11   -0.01    0.02
 -10   0 -11    0.02    0.05
  10   0  11   -0.02    0.05
  10   0  11   -0.08    0.05
  11   0  11    0.00    0.04
 -12  -1  11    0.08    0.04
 -12   1  11    0.05    0.04
 -11  -1  11    2.33    0.18
 -11   1  11    2.25    0.17
 -10  -1  11    0.03    0.06
 -10   1  11    0.03    0.06
 -10   1  11    0.04    0.05
  -9  -1  11    3.65    0.28
  -9  -1  11    3.29    0.30
  -9  -1  11    4.06    0.28
  -9   1  11    3.59    0.28
  -9   1  11    3.74    0.27
  -8  -1  11    2.07    0.20
  -8  -1  11    2.00    0.19
  -8  -1  11    2.31    0.18
  -8  -1  11    2.40    0.18
  -8   1  11    2.34    0.19
  -8   1  11    2.51    0.18
  -7  -1  11    3.64    0.31
  -7  -1  11    3.91    0.30
  -7  -1  11    4.37    0.29
  -7  -1  11    3.98    0.30
  -7   1  11    3.93    0.30
   7   1 -11    3.31    0.28
  -7   1  11    4.35    0.29
  -6  -1  11    0.23    0.04
  -6  -1  11    0.25    0.06
  -6  -1  11    0.20    0.03
  -6  -1  11    0.16    0.04
  -6  -1  11    0.19    0.04
   6   1 -11    0.20    0.04
  -6   1  11    0.15    0.03
  -6   1  11    0.16    0.04
   6   1 -11    0.21    0.04
  -5  -1  11    0.06    0.03
  -5  -1  11    0.05    0.03
  -5  -1  11    0.05    0.04
  -5  -1  11    0.07    0.02
   5   1 -11    0.07    0.03
   5   1 -11    0.13    0.03
  -5   1  11    0.05    0.03
  -5   1  11    0.05    0.02
  -4  -1  11    4.91    0.33
  -4  -1  11    4.88    0.34
  -4  -1  11    4.38    0.34
  -4  -1  11    4.36    0.31
  -4   1  11    4.78    0.32
  -4   1  11    4.90    0.33
  -4   1  11    4.20    0.30
   4   1 -11    4.00    0.35
  -3  -1  11    0.32    0.04
  -3  -1  11    0.27    0.03
  -3  -1  11    0.34    0.04
  -3  -1  11    0.33    0.04
  -3   1  11    0.32    0.04
  -3   1  11    0.32    0.03
  -3   1  11    0.32    0.03
   3   1 -11    0.27    0.04
  -2  -1  11    6.88    0.46
  -2  -1  11    5.76    0.46
  -2  -1  11    6.74    0.44
  -2  -1  11    5.84    0.41
  -2   1  11    6.73    0.44
  -2   1  11    5.81    0.44
  -2   1  11    6.66    0.45
   2   1 -11    5.82    0.47
  -2   1  11    5.88    0.41
  -1  -1  11   37.18    2.51
  -1  -1  11   34.20    2.66
  -1  -1  11   36.63    2.36
  -1  -1  11   41.30    2.58
  -1   1  11   30.31    2.57
  -1   1  11   39.48    2.51
  -1   1  11   39.87    2.57
  -1   1  11   36.07    2.36
   1   1 -11   33.54    2.66
  -1   1  11   32.24    2.51
   0  -1  11    0.26    0.04
   0  -1  11    0.29    0.04
   0  -1  11    0.27    0.04
   0  -1  11    0.27    0.04
   0  -1  11    0.26    0.03
   0   1  11    0.30    0.03
   0   1  11    0.32    0.03
   0   1  11    0.36    0.03
   1  -1  11    5.06    0.38
   1  -1  11    4.83    0.37
   1  -1  11    4.77    0.33
   1  -1  11    5.43    0.37
   1  -1  11    4.92    0.35
   1   1  11    5.18    0.35
   1   1  11    5.07    0.36
   1   1  11    4.66    0.33
  -1   1 -11    4.79    0.34
   2  -1  11   25.89    2.01
   2  -1  11   27.16    2.01
   2  -1  11   25.80    1.90
   2  -1  11   26.92    1.78
   2  -1  11   27.31    1.95
   2   1  11   29.01    1.90
  -2   1 -11   25.47    1.83
   2   1  11   27.32    1.78
   2   1  11   30.01    1.95
   3  -1  11    0.42    0.05
   3  -1  11    0.27    0.04
   3  -1  11    0.22    0.03
   3  -1  11    0.31    0.04
   3  -1  11    0.31    0.04
   3   1  11    0.41    0.04
   3   1  11    0.38    0.05
   3   1  11    0.41    0.04
  -3   1 -11    0.34    0.04
   4  -1  11    5.94    0.45
   4  -1  11    6.08    0.47
   4  -1  11    6.21    0.42
   4  -1  11    6.35    0.47
   4  -1  11    5.69    0.48
   4   1  11    7.14    0.46
   4   1  11    6.35    0.45
  -4   1 -11    6.02    0.43
   4   1  11    6.97    0.42
   5  -1  11    3.18    0.25
   5  -1  11    2.82    0.25
   5  -1  11    2.76    0.24
   5  -1  11    3.17    0.25
   5  -1  11    3.41    0.22
   5   1  11    3.52    0.22
  -5   1 -11    3.18    0.23
   5   1  11    3.38    0.25
   5   1  11    3.31    0.23
   6  -1  11    1.74    0.13
   6  -1  11    1.77    0.14
   6  -1  11    1.69    0.16
   6  -1  11    1.75    0.15
   6  -1  11    1.60    0.15
   6   1  11    1.68    0.15
   6   1  11    1.82    0.13
  -6   1 -11    1.81    0.14
   6   1  11    1.68    0.14
   7  -1  11    0.72    0.09
   7  -1  11    0.66    0.09
   7  -1  11    0.73    0.08
   7  -1  11    0.79    0.09
   7   1  11    0.93    0.09
  -7   1 -11    0.71    0.09
   7   1  11    0.77    0.10
   7   1  11    1.08    0.09
   8  -1  11    3.09    0.23
   8  -1  11    2.77    0.25
   8  -1  11    3.03    0.24
   8  -1  11    3.11    0.25
   8   1  11    2.83    0.25
   8   1  11    3.44    0.24
  -8   1 -11    3.31    0.24
   8   1  11    3.29    0.23
   9  -1  11    2.21    0.18
   9  -1  11    1.91    0.16
   9   1  11    1.92    0.17
  -9   1 -11    2.29    0.17
   9   1  11    2.01    0.17
  10  -1  11    0.01    0.04
 -10   1 -11    0.00    0.03
  10   1  11    0.00    0.04
  10   1  11    0.00    0.04
  11  -1  11    0.13    0.03
  11   1  11    0.14    0.04
 -11   1 -11    0.11    0.04
  11   1  11    0.10    0.04
 -12  -2  11    0.71    0.08
 -12   2  11    0.47    0.05
 -11  -2  11    0.09    0.06
 -11   2  11    0.04    0.04
 -11   2  11    0.11    0.04
 -10  -2  11    0.38    0.05
 -10  -2  11    0.31    0.06
 -10   2  11    0.30    0.05
 -10   2  11    0.31    0.07
  10   2 -11    0.30    0.05
  -9  -2  11    6.72    0.48
  -9  -2  11    5.49    0.48
  -9  -2  11    6.15    0.46
  -9   2  11    6.10    0.47
  -9   2  11    6.77    0.45
   9   2 -11    6.54    0.44
  -8  -2  11    9.92    0.71
  -8  -2  11    8.74    0.71
  -8  -2  11    9.58    0.67
   8   2 -11    9.27    0.65
  -8   2  11    9.06    0.69
  -8   2  11    9.90    0.66
  -7  -2  11    0.83    0.11
  -7  -2  11    0.79    0.09
  -7  -2  11    0.98    0.10
  -7   2  11    1.07    0.10
  -7   2  11    0.94    0.08
   7   2 -11    0.97    0.10
   7   2 -11    1.00    0.09
  -6  -2  11    1.60    0.14
  -6  -2  11    1.66    0.13
  -6  -2  11    1.57    0.15
  -6  -2  11    1.53    0.13
  -6   2  11    1.58    0.12
  -6   2  11    1.83    0.13
   6   2 -11    1.67    0.12
   6   2 -11    1.52    0.15
  -5  -2  11    5.93    0.47
  -5  -2  11    6.40    0.43
  -5  -2  11    6.38    0.46
  -5  -2  11    6.29    0.48
  -5   2  11    7.14    0.47
   5   2 -11    6.31    0.49
  -5   2  11    6.39    0.45
   5   2 -11    6.15    0.44
  -4  -2  11    3.44    0.26
  -4  -2  11    3.28    0.25
  -4  -2  11    3.46    0.24
  -4  -2  11    3.39    0.26
  -4   2  11    3.42    0.24
  -4   2  11    3.80    0.25
   4   2 -11    3.55    0.27
   4   2 -11    3.31    0.24
  -4   2  11    3.03    0.24
  -3  -2  11    0.39    0.05
  -3  -2  11    0.38    0.05
  -3  -2  11    0.48    0.05
  -3   2  11    0.36    0.03
   3   2 -11    0.34    0.05
   3   2 -11    0.31    0.05
  -3   2  11    0.38    0.04
  -2  -2  11    1.43    0.10
  -2  -2  11    1.33    0.11
  -2  -2  11    1.17    0.10
  -2  -2  11    1.28    0.11
   2   2 -11    1.11    0.10
   2   2 -11    1.40    0.11
  -1  -2  11    7.22    0.55
  -1  -2  11    6.87    0.53
  -1  -2  11    7.98    0.50
  -1  -2  11    7.29    0.56
   1   2 -11    8.35    0.52
   0  -2  11    0.43    0.05
   0  -2  11    0.43    0.05
   0  -2  11    0.41    0.06
   0  -2  11    0.41    0.05
   0  -2  11    0.44    0.05
   0   2  11    0.34    0.03
   0   2 -11    0.43    0.04
   1  -2  11    6.15    0.43
   1  -2  11    5.26    0.40
   1  -2  11    5.64    0.38
   1  -2  11    5.62    0.42
   1  -2  11    5.65    0.43
   1   2  11    5.58    0.37
   1   2  11    5.51    0.41
  -1   2 -11    6.02    0.39
   2  -2  11    2.20    0.16
   2  -2  11    2.49    0.18
   2  -2  11    2.29    0.17
   2  -2  11    2.27    0.18
   2  -2  11    2.26    0.18
   2   2  11    2.34    0.16
   2   2  11    2.06    0.15
  -2   2 -11    2.21    0.17
   2   2  11    2.32    0.17
   3  -2  11   26.96    1.98
   3  -2  11   27.66    1.98
   3  -2  11   24.82    1.87
   3  -2  11   27.18    1.76
   3  -2  11   25.65    1.92
  -3   2 -11   26.65    1.81
   3   2  11   26.09    1.75
   3   2  11   27.59    1.87
   3   2  11   28.34    1.92
   4  -2  11    9.30    0.65
   4  -2  11    8.20    0.63
   4  -2  11    8.38    0.65
   4  -2  11    8.78    0.58
   4  -2  11    8.24    0.61
   4   2  11    8.49    0.61
   4   2  11    8.70    0.57
  -4   2 -11    9.07    0.59
   4   2  11    8.57    0.63
   5  -2  11    6.05    0.49
   5  -2  11    5.91    0.46
   5  -2  11    6.57    0.44
   5  -2  11    6.58    0.49
  -5   2 -11    6.73    0.45
   5   2  11    6.79    0.43
   5   2  11    6.67    0.48
   5   2  11    6.37    0.46
   6  -2  11   11.39    0.89
   6  -2  11   11.61    0.79
   6  -2  11   11.91    0.89
   6  -2  11   11.10    0.84
   6   2  11   12.35    0.86
  -6   2 -11   10.93    0.88
   6   2  11   12.35    0.83
   6   2  11   12.63    0.79
  -6   2 -11   12.31    0.81
   7  -2  11    5.04    0.34
   7  -2  11    5.52    0.38
   7  -2  11    4.54    0.38
   7   2  11    4.43    0.37
   7   2  11    4.97    0.36
  -7   2 -11    5.22    0.35
   7   2  11    4.75    0.34
   8  -2  11   10.16    0.72
   8  -2  11    8.90    0.80
   8  -2  11   11.42    0.80
   8   2  11   11.86    0.76
  -8   2 -11   10.76    0.74
   8   2  11   11.42    0.71
   8   2  11   10.16    0.78
   9  -2  11    3.19    0.25
   9   2  11    3.04    0.24
   9   2  11    3.06    0.23
  -9   2 -11    3.16    0.24
  10  -2  11    5.97    0.44
 -10   2 -11    5.89    0.41
  10   2  11    5.57    0.40
  11  -2  11    0.47    0.06
  11   2  11    0.41    0.07
  11   2  11    0.50    0.06
 -11  -3  11    0.53    0.05
 -11   3  11    0.41    0.08
 -11   3  11    0.56    0.05
 -10  -3  11    1.12    0.10
  10   3 -11    1.05    0.10
 -10   3  11    1.06    0.11
 -10   3  11    1.08    0.09
  -9  -3  11    1.18    0.12
  -9   3  11    1.29    0.10
   9   3 -11    1.32    0.12
  -9   3  11    1.15    0.12
  -8  -3  11    9.10    0.66
  -8   3  11    9.30    0.61
   8   3 -11    8.60    0.60
   8   3 -11    7.73    0.67
  -8   3  11    8.57    0.64
  -7  -3  11    4.74    0.37
  -7  -3  11    5.59    0.39
  -7   3  11    5.27    0.35
   7   3 -11    4.72    0.35
  -7   3  11    4.99    0.37
   7   3 -11    4.47    0.39
  -6  -3  11    0.08    0.05
  -6  -3  11    0.01    0.04
  -6  -3  11    0.14    0.04
  -6   3  11    0.08    0.02
   6   3 -11    0.04    0.04
  -6   3  11    0.08    0.04
   6   3 -11    0.03    0.04
  -5  -3  11    0.55    0.07
  -5  -3  11    0.56    0.08
  -5  -3  11    0.61    0.07
   5   3 -11    0.52    0.07
  -5   3  11    0.50    0.06
   5   3 -11    0.54    0.06
  -4  -3  11    4.69    0.37
  -4  -3  11    4.73    0.39
  -4  -3  11    5.13    0.35
  -4  -3  11    5.32    0.40
   4   3 -11    5.47    0.36
  -4   3  11    5.40    0.38
   4   3 -11    5.48    0.40
  -3  -3  11    0.08    0.04
  -3  -3  11    0.04    0.04
  -3  -3  11    0.04    0.03
  -3  -3  11    0.07    0.02
  -3   3  11    0.05    0.01
   3   3 -11    0.02    0.02
   3   3 -11    0.09    0.04
  -2  -3  11    2.76    0.22
  -2  -3  11    3.18    0.22
  -2  -3  11    2.76    0.21
  -2  -3  11    2.59    0.20
   2   3 -11    2.95    0.23
   2   3 -11    2.58    0.20
  -1  -3  11    6.32    0.51
  -1  -3  11    7.36    0.46
  -1  -3  11    7.07    0.52
   0  -3  11   20.84    1.42
   0  -3  11   18.70    1.26
   0  -3  11   20.24    1.42
   0  -3  11   17.04    1.34
   0  -3  11   18.33    1.38
   0   3 -11   19.77    1.30
   1  -3  11    0.43    0.06
   1  -3  11    0.65    0.06
   1  -3  11    0.48    0.07
   1  -3  11    0.51    0.07
   1  -3  11    0.58    0.07
   1   3  11    0.47    0.04
   1   3  11    0.48    0.04
  -1   3 -11    0.62    0.06
   2  -3  11   12.62    0.99
   2  -3  11   13.06    1.02
   2  -3  11   14.36    1.05
   2  -3  11   13.69    0.93
   2  -3  11   14.65    1.05
   2   3  11   13.70    0.92
  -2   3 -11   15.31    0.96
   2   3  11   15.30    1.01
   3  -3  11    6.79    0.49
   3  -3  11    6.27    0.49
   3  -3  11    6.17    0.44
  -3   3 -11    6.60    0.45
   3   3  11    6.24    0.43
   3   3  11    6.42    0.45
   3   3  11    6.79    0.47
   4  -3  11   11.21    0.87
   4  -3  11   11.97    0.87
   4  -3  11   10.66    0.77
   4   3  11   11.42    0.77
   4   3  11   12.19    0.84
  -4   3 -11   11.74    0.80
   4   3  11   12.19    0.81
   5  -3  11    5.19    0.38
   5  -3  11    4.63    0.38
   5  -3  11    4.63    0.33
  -5   3 -11    4.79    0.34
   5   3  11    4.66    0.34
   5   3  11    5.26    0.33
   5   3  11    4.71    0.36
   6  -3  11   12.70    0.95
   6  -3  11   15.25    1.08
   6  -3  11   13.32    1.08
   6   3  11   15.17    0.95
  -6   3 -11   16.25    0.99
   6   3  11   13.91    1.04
   6   3  11   14.08    1.01
   7  -3  11   15.71    1.05
   7  -3  11   12.80    1.05
  -7   3 -11   15.19    0.96
   7   3  11   14.40    0.93
  -7   3 -11   12.75    1.03
   7   3  11   13.03    0.98
   7   3  11   13.71    1.01
   8  -3  11   14.72    1.03
   8   3  11   15.30    0.92
   8   3  11   12.23    1.00
  -8   3 -11   13.42    0.95
   8   3  11   13.22    0.97
   9  -3  11    0.89    0.11
   9   3  11    0.95    0.08
  -9   3 -11    0.81    0.09
   9   3  11    0.79    0.11
   9   3  11    0.82    0.09
  10  -3  11    0.01    0.05
  10   3  11    0.01    0.03
 -10   3 -11    0.08    0.04
 -10   3 -11    0.00    0.04
  10   3  11   -0.03    0.03
  11  -3  11    1.31    0.11
  11   3  11    1.20    0.11
 -11   3 -11    1.14    0.13
 -10  -4  11    0.05    0.05
  10   4 -11    0.09    0.04
 -10   4  11    0.07    0.05
  -9  -4  11    1.13    0.12
   9   4 -11    1.34    0.12
  -9   4  11    1.18    0.12
  -8  -4  11    2.72    0.21
  -8   4  11    2.33    0.20
   8   4 -11    2.41    0.20
  -7  -4  11    4.75    0.34
  -7   4  11    4.17    0.32
   7   4 -11    3.77    0.35
   7   4 -11    4.29    0.31
  -6  -4  11    2.45    0.20
   6   4 -11    2.28    0.18
   6   4 -11    2.15    0.20
  -6   4  11    2.53    0.19
  -5  -4  11    7.04    0.52
  -5  -4  11    7.74    0.58
   5   4 -11    7.81    0.53
   5   4 -11    7.47    0.59
  -5   4  11    8.08    0.56
  -4  -4  11    0.21    0.05
  -4  -4  11    0.11    0.04
   4   4 -11    0.17    0.06
  -4   4  11    0.22    0.03
   4   4 -11    0.14    0.04
  -3  -4  11    9.93    0.75
  -3  -4  11   12.04    0.85
  -3   4  11   10.90    0.81
   3   4 -11   11.95    0.77
   3   4 -11   11.71    0.85
  -2  -4  11   -0.01    0.03
  -2  -4  11    0.06    0.04
  -2   4  11    0.06    0.01
   2   4 -11    0.05    0.04
  -1  -4  11    3.93    0.28
  -1  -4  11    4.09    0.32
  -1   4  11    4.07    0.30
   1   4 -11    4.13    0.29
   1   4 -11    4.36    0.33
   0  -4  11    3.80    0.29
   0  -4  11    3.73    0.29
   0  -4  11    3.56    0.26
   0   4 -11    3.85    0.26
   0   4  11    3.50    0.27
   1  -4  11    1.16    0.11
   1  -4  11    1.27    0.12
   1  -4  11    1.26    0.12
  -1   4 -11    1.22    0.11
   1   4  11    1.45    0.10
   2  -4  11   17.27    1.20
   2  -4  11   19.57    1.36
   2  -4  11   18.35    1.36
   2   4  11   19.33    1.31
  -2   4 -11   17.66    1.24
   2   4  11   17.44    1.20
   3  -4  11    1.86    0.15
   3  -4  11    1.91    0.16
   3   4  11    1.71    0.12
  -3   4 -11    1.97    0.15
   3   4  11    1.72    0.14
   3   4  11    1.54    0.12
   4  -4  11    5.06    0.37
   4  -4  11    4.20    0.36
  -4   4 -11    4.36    0.33
   4   4  11    4.93    0.33
   4   4  11    4.78    0.35
   4   4  11    4.54    0.32
   5  -4  11    9.91    0.82
   5  -4  11   11.30    0.82
   5   4  11   10.87    0.76
  -5   4 -11   10.99    0.75
   5   4  11   10.68    0.79
   5   4  11   11.37    0.72
   6  -4  11    6.08    0.53
   6  -4  11    7.52    0.53
   6   4  11    7.47    0.46
  -6   4 -11    7.30    0.48
  -6   4 -11    6.13    0.52
   6   4  11    6.97    0.48
   6   4  11    6.20    0.50
   7  -4  11    0.37    0.07
   7  -4  11    0.28    0.06
   7   4  11    0.24    0.05
  -7   4 -11    0.16    0.07
  -7   4 -11    0.30    0.05
   7   4  11    0.28    0.05
  -7   4 -11    0.25    0.07
   7   4  11    0.23    0.04
   8  -4  11    2.85    0.22
   8   4  11    2.64    0.22
  -8   4 -11    2.34    0.23
   8   4  11    2.92    0.20
   8   4  11    2.95    0.20
  -8   4 -11    2.57    0.21
   9  -4  11    0.07    0.06
   9   4  11    0.08    0.05
   9   4  11    0.07    0.04
  -9   4 -11    0.03    0.04
  -9   4 -11    0.04    0.06
   9   4  11    0.04    0.04
  10  -4  11    1.94    0.14
  10   4  11    1.56    0.13
 -10   4 -11    1.62    0.15
  10   4  11    1.73    0.13
 -10  -5  11    1.10    0.10
  10   5 -11    0.86    0.11
  -9  -5  11    0.30    0.06
   9   5 -11    0.23    0.08
  -9   5  11    0.18    0.05
   9   5 -11    0.28    0.05
  -8  -5  11    0.14    0.07
   8   5 -11    0.12    0.04
  -8   5  11    0.15    0.05
   8   5 -11    0.04    0.08
  -7  -5  11    2.36    0.20
  -7   5  11    2.14    0.18
   7   5 -11    2.24    0.18
   7   5 -11    1.94    0.19
  -6  -5  11    2.02    0.16
  -6   5  11    1.65    0.14
   6   5 -11    1.74    0.14
   6   5 -11    1.72    0.18
   6   5 -11    1.53    0.16
  -5  -5  11    1.42    0.14
   5   5 -11    0.91    0.12
   5   5 -11    1.11    0.12
  -5   5  11    1.29    0.10
   5   5 -11    1.13    0.14
  -4  -5  11    4.39    0.32
  -4   5  11    4.06    0.30
   4   5 -11    3.72    0.33
   4   5 -11    3.84    0.29
   4   5 -11    3.96    0.33
  -3  -5  11    0.60    0.08
   3   5 -11    0.65    0.07
   3   5 -11    0.52    0.09
  -3   5  11    0.52    0.06
   3   5 -11    0.51    0.08
  -2  -5  11    9.39    0.66
   2   5 -11    7.66    0.63
   2   5 -11    8.55    0.60
   2   5 -11    8.38    0.66
   2   5 -11    8.24    0.66
  -2   5  11    9.57    0.62
  -1  -5  11    0.16    0.06
  -1   5  11    0.11    0.03
   1   5 -11    0.09    0.06
   1   5 -11    0.17    0.04
   1   5 -11    0.19    0.05
   1   5 -11    0.23    0.04
   0  -5  11   10.03    0.69
   0   5 -11    8.40    0.68
   0   5 -11    8.40    0.65
   0   5 -11    9.29    0.63
   1  -5  11    0.38    0.06
   1  -5  11    0.32    0.07
  -1   5 -11    0.32    0.07
  -1   5 -11    0.43    0.06
  -1   5 -11    0.34    0.05
   1   5  11    0.40    0.05
   2  -5  11    0.56    0.08
   2  -5  11    0.49    0.08
  -2   5 -11    0.43    0.08
   2   5  11    0.54    0.05
  -2   5 -11    0.39    0.07
  -2   5 -11    0.54    0.06
   2   5  11    0.61    0.06
   3  -5  11    1.19    0.12
   3  -5  11    0.93    0.12
   3   5  11    1.08    0.09
  -3   5 -11    1.02    0.09
  -3   5 -11    0.92    0.11
   3   5  11    0.98    0.08
  -3   5 -11    0.77    0.12
   4  -5  11    0.02    0.06
   4  -5  11    0.04    0.06
  -4   5 -11    0.06    0.05
   4   5  11    0.05    0.03
  -4   5 -11    0.10    0.04
   4   5  11    0.08    0.04
   5  -5  11    2.17    0.18
   5  -5  11    1.58    0.18
   5   5  11    2.00    0.14
   5   5  11    2.00    0.14
   5   5  11    1.72    0.16
  -5   5 -11    1.84    0.17
  -5   5 -11    1.92    0.15
   6  -5  11    1.09    0.12
   6   5  11    0.82    0.07
  -6   5 -11    0.95    0.10
   6   5  11    0.60    0.09
  -6   5 -11    0.79    0.12
  -6   5 -11    0.83    0.09
   6   5  11    0.97    0.09
   7  -5  11    0.07    0.05
  -7   5 -11    0.01    0.05
   7   5  11    0.07    0.03
  -7   5 -11    0.04    0.04
   7   5  11   -0.01    0.05
   7   5  11    0.05    0.04
   8  -5  11    0.06    0.06
   8   5  11    0.01    0.03
  -8   5 -11   -0.04    0.03
   8   5  11   -0.03    0.03
   8   5  11   -0.03    0.03
  -8   5 -11   -0.02    0.06
   9  -5  11   -0.01    0.04
   9   5  11    0.03    0.02
   9   5  11    0.02    0.03
  -9  -6  11   -0.01    0.03
   8   6 -11    0.98    0.10
  -8   6  11    0.93    0.09
  -7  -6  11    0.09    0.06
  -7   6  11    0.04    0.04
   7   6 -11   -0.04    0.07
   7   6 -11    0.02    0.05
  -6  -6  11   -0.04    0.07
  -6   6  11   -0.01    0.04
   6   6 -11    0.01    0.04
   6   6 -11   -0.02    0.05
  -5  -6  11    1.61    0.14
  -5   6  11    1.40    0.13
   5   6 -11    1.47    0.16
   5   6 -11    1.60    0.13
   5   6 -11    1.48    0.14
  -4  -6  11    0.08    0.07
  -4   6  11    0.04    0.03
   4   6 -11    0.01    0.05
   4   6 -11    0.05    0.05
   4   6 -11    0.04    0.07
  -3  -6  11    1.36    0.14
   3   6 -11    1.12    0.14
   3   6 -11    1.34    0.11
  -3   6  11    1.00    0.10
   3   6 -11    1.13    0.15
   3   6 -11    1.12    0.12
  -2  -6  11    0.41    0.08
  -2   6  11    0.32    0.04
   2   6 -11    0.22    0.08
   2   6 -11    0.30    0.05
   2   6 -11    0.31    0.06
   2   6 -11    0.29    0.06
  -1  -6  11    0.11    0.07
   1   6 -11    0.11    0.06
   1   6 -11    0.01    0.05
   1   6 -11    0.00    0.07
   1   6 -11    0.07    0.05
  -1   6  11    0.04    0.03
   0  -6  11    2.98    0.24
   0   6  11    2.74    0.21
   0   6 -11    2.70    0.21
   0   6 -11    2.92    0.23
   0   6 -11    2.73    0.23
   1  -6  11    0.44    0.08
  -1   6 -11    0.38    0.07
   1   6  11    0.36    0.05
  -1   6 -11    0.35    0.06
  -1   6 -11    0.46    0.07
   2  -6  11    0.03    0.04
   2  -6  11    0.00    0.04
   2   6  11    0.05    0.03
  -2   6 -11    0.02    0.05
   2   6  11    0.00    0.03
  -2   6 -11   -0.01    0.04
  -2   6 -11    0.02    0.05
   3  -6  11    1.64    0.15
  -3   6 -11    1.57    0.16
  -3   6 -11    1.58    0.13
   3   6  11    1.44    0.11
  -3   6 -11    1.37    0.13
   3   6  11    1.33    0.12
   4  -6  11    0.26    0.07
  -4   6 -11    0.08    0.06
  -4   6 -11    0.15    0.04
  -4   6 -11    0.10    0.06
   4   6  11    0.15    0.04
   4   6  11    0.19    0.04
   5  -6  11    0.09    0.07
  -5   6 -11    0.16    0.04
  -5   6 -11    0.04    0.06
   5   6  11    0.08    0.04
   5   6  11    0.05    0.04
  -5   6 -11    0.09    0.05
   6  -6  11    0.08    0.04
   6   6  11    0.01    0.03
  -6   6 -11    0.02    0.04
  -6   6 -11   -0.03    0.07
   6   6  11    0.01    0.04
  -6   6 -11    0.03    0.04
   7  -6  11    0.24    0.05
  -7   6 -11    0.17    0.06
   7   6  11    0.25    0.04
  -7   6 -11    0.23    0.05
   7   6  11    0.15    0.04
  -7   6 -11    0.14    0.04
   8  -6  11    0.02    0.05
   8   6  11    0.11    0.04
  -8   6 -11    0.01    0.06
  -7  -7  11    0.50    0.06
   7   7 -11    0.46    0.06
  -6  -7  11    0.00    0.04
  -6   7  11    0.06    0.03
   6   7 -11    0.04    0.06
  -5  -7  11    0.46    0.08
   5   7 -11    0.36    0.06
   5   7 -11    0.36    0.05
   5   7 -11    0.42    0.07
  -5   7  11    0.39    0.05
  -4  -7  11    0.01    0.06
   4   7 -11   -0.02    0.05
   4   7 -11    0.02    0.04
  -4   7  11   -0.02    0.03
   4   7 -11    0.05    0.05
  -3  -7  11    0.20    0.07
   3   7 -11    0.11    0.06
   3   7 -11    0.23    0.07
  -3   7  11    0.19    0.04
   3   7 -11    0.15    0.06
  -2  -7  11    0.88    0.11
   2   7 -11    0.69    0.09
   2   7 -11    0.67    0.10
   2   7 -11    0.84    0.12
  -2   7  11    0.88    0.08
  -1  -7  11    0.42    0.06
   1   7 -11    0.21    0.07
   1   7 -11    0.26    0.06
  -1   7  11    0.35    0.04
   1   7 -11    0.35    0.06
   0  -7  11    1.78    0.16
   0   7 -11    1.45    0.13
   0   7 -11    1.53    0.15
   0   7  11    1.52    0.12
   0   7 -11    1.57    0.15
   1  -7  11    0.62    0.09
  -1   7 -11    0.67    0.09
   1   7  11    0.60    0.06
  -1   7 -11    0.62    0.08
  -1   7 -11    0.55    0.09
   1   7  11    0.58    0.07
   2  -7  11    0.61    0.09
   2   7  11    0.57    0.06
  -2   7 -11    0.50    0.08
  -2   7 -11    0.62    0.07
  -2   7 -11    0.53    0.09
   2   7  11    0.64    0.06
   3  -7  11    0.09    0.05
  -3   7 -11    0.09    0.05
  -3   7 -11    0.04    0.04
   3   7  11    0.07    0.03
   3   7  11    0.06    0.03
  -3   7 -11    0.06    0.04
   4  -7  11    0.16    0.06
   4   7  11    0.11    0.03
  -4   7 -11    0.05    0.04
  -4   7 -11    0.11    0.04
  -4   7 -11    0.11    0.05
   4   7  11    0.06    0.04
   5  -7  11    0.11    0.04
   5   7  11    0.09    0.03
  -5   7 -11    0.12    0.06
   5   7  11    0.11    0.03
  -5   7 -11    0.12    0.04
   6  -7  11    0.03    0.05
  -6   7 -11   -0.03    0.05
   6   7  11    0.00    0.02
  -3  -8  11    1.57    0.13
   3   8 -11    1.20    0.12
  -2  -8  11    0.03    0.04
   2   8 -11    0.00    0.04
  -1  -8  11    0.84    0.10
   1   8 -11    0.75    0.08
   0  -8  11    0.30    0.05
   0   8 -11    0.32    0.05
   1  -8  11    2.44    0.20
   2  -8  11    1.60    0.15
  -2   8 -11    1.74    0.14
 -12   0  12    0.12    0.04
 -11   0  12    1.81    0.15
 -10   0  12    0.09    0.05
 -10   0  12    0.03    0.06
  -9   0  12    2.48    0.22
  -9   0  12    2.85    0.20
  -8   0  12    3.98    0.28
  -8   0  12    3.67    0.29
  -7   0  12   28.01    2.30
  -7   0  12   35.40    2.28
  -6   0  12    1.36    0.11
  -6   0  12    1.43    0.12
  -6   0  12    1.23    0.12
  -5   0  12    5.13    0.36
  -5   0  12    5.61    0.38
  -5   0  12    5.45    0.40
  -4   0  12   96.29    6.57
  -4   0  12   93.59    6.73
  -4   0  12   93.21    6.16
  -3   0  12    2.19    0.16
  -3   0  12    1.75    0.14
  -3   0  12    2.17    0.15
  -2   0  12    1.22    0.08
  -2   0  12    1.01    0.08
  -2   0  12    1.17    0.09
  -1   0  12   22.88    1.67
  -1   0  12   26.21    1.82
  -1   0  12   27.36    1.78
   0   0  12    9.06    0.60
   0   0  12    9.13    0.66
   0   0  12    9.28    0.64
   1   0  12   56.50    3.81
   1   0  12   52.29    3.58
   1   0  12   55.53    3.91
   2   0  12   35.00    2.44
   2   0  12   34.50    2.23
   2   0  12   32.72    2.37
   3   0  12   25.99    1.81
   3   0  12   25.05    1.66
   3   0  12   24.85    1.76
   4   0  12   19.04    1.29
   4   0  12   20.12    1.37
   4   0  12   19.76    1.41
   5   0  12    2.33    0.18
   5   0  12    2.35    0.17
   5   0  12    2.42    0.18
   5   0  12    2.56    0.20
   6   0  12   17.73    1.38
   6   0  12   20.02    1.23
   6   0  12   19.04    1.31
   6   0  12   17.81    1.35
   7   0  12    1.00    0.09
   7   0  12    0.98    0.10
   7   0  12    0.92    0.08
   7   0  12    0.97    0.12
   8   0  12    8.73    0.60
   8   0  12    8.70    0.56
   8   0  12    7.70    0.62
   9   0  12    0.03    0.04
   9   0  12    0.01    0.04
  10   0  12    0.80    0.10
  10   0  12    0.69    0.08
  11   0  12    0.14    0.04
 -12   1  12    0.67    0.06
 -11  -1  12   -0.04    0.05
 -11   1  12    0.00    0.03
 -10  -1  12    0.35    0.05
 -10   1  12    0.30    0.07
 -10   1  12    0.29    0.05
  -9  -1  12   -0.02    0.06
  -9  -1  12    0.06    0.05
  -9  -1  12   -0.04    0.06
  -9   1  12    0.07    0.06
  -9   1  12    0.07    0.03
  -8  -1  12    2.41    0.19
  -8  -1  12    2.30    0.21
  -8   1  12    2.68    0.21
  -8   1  12    2.73    0.19
  -7  -1  12   -0.01    0.05
  -7  -1  12    0.03    0.04
  -7  -1  12    0.01    0.05
  -7   1  12    0.02    0.03
  -7   1  12    0.02    0.04
  -6  -1  12   10.45    0.69
  -6  -1  12   10.67    0.73
  -6  -1  12   10.02    0.75
  -6  -1  12    9.34    0.77
  -6   1  12   11.12    0.75
  -6   1  12   10.46    0.72
  -5  -1  12    0.36    0.05
  -5  -1  12    0.42    0.06
  -5  -1  12    0.40    0.04
  -5  -1  12    0.60    0.06
  -5   1  12    0.48    0.06
  -5   1  12    0.54    0.05
  -4  -1  12    4.95    0.36
  -4  -1  12    5.14    0.37
  -4  -1  12    5.04    0.34
  -4   1  12    4.94    0.35
  -4   1  12    4.87    0.33
  -4   1  12    5.24    0.37
  -3  -1  12    0.83    0.08
  -3  -1  12    0.78    0.06
  -3  -1  12    0.75    0.07
  -3   1  12    0.70    0.06
  -3   1  12    0.61    0.05
  -3   1  12    0.73    0.06
  -2  -1  12   37.10    2.47
  -2  -1  12   36.14    2.53
  -2  -1  12   36.96    2.32
  -2   1  12   30.46    2.46
  -2   1  12   37.34    2.53
  -2   1  12   37.21    2.46
  -2   1  12   32.46    2.31
  -1  -1  12    0.92    0.07
  -1  -1  12    1.01    0.08
  -1   1  12    0.74    0.06
  -1   1  12    0.70    0.06
  -1   1  12    0.71    0.06
  -1   1  12    0.83    0.06
   0  -1  12    8.95    0.58
   0  -1  12    7.35    0.59
   0  -1  12    7.34    0.58
   0  -1  12    9.11    0.56
   0  -1  12    8.01    0.52
   0   1  12    8.38    0.57
   0   1  12    6.77    0.55
   0   1  12    7.98    0.55
   0   1  12    7.21    0.52
   1  -1  12    1.61    0.14
   1  -1  12    2.02    0.14
   1  -1  12    2.00    0.15
   1  -1  12    1.74    0.13
   1  -1  12    1.79    0.15
   1   1  12    2.05    0.14
   1   1  12    2.03    0.13
   1   1  12    1.62    0.13
   2  -1  12    4.75    0.33
   2  -1  12    4.24    0.34
   2  -1  12    4.48    0.31
   2  -1  12    4.14    0.35
   2  -1  12    4.71    0.34
   2   1  12    4.96    0.32
   2   1  12    4.91    0.34
   2   1  12    4.48    0.31
   3  -1  12   25.74    1.69
   3  -1  12   24.71    1.90
   3  -1  12   23.68    1.90
   3  -1  12   27.33    1.85
   3  -1  12   25.68    1.79
  -3   1 -12   23.29    1.73
   3   1  12   27.71    1.84
   3   1  12   27.00    1.68
   3   1  12   26.16    1.79
   4  -1  12    0.28    0.05
   4  -1  12    0.22    0.04
   4  -1  12    0.24    0.04
   4  -1  12    0.25    0.05
   4  -1  12    0.26    0.04
   4   1  12    0.29    0.04
   4   1  12    0.26    0.04
  -4   1 -12    0.21    0.04
   4   1  12    0.34    0.04
   5  -1  12   29.88    2.17
   5  -1  12   29.12    1.92
   5  -1  12   29.57    2.10
   5  -1  12   30.20    2.05
   5  -1  12   26.20    2.17
   5   1  12   30.21    1.92
   5   1  12   30.02    2.10
  -5   1 -12   27.93    1.98
   5   1  12   30.24    2.04
   6  -1  12    0.98    0.10
   6  -1  12    0.98    0.12
   6  -1  12    1.02    0.10
   6  -1  12    0.96    0.11
   6  -1  12    1.02    0.10
   6   1  12    0.99    0.11
  -6   1 -12    1.09    0.10
   6   1  12    1.13    0.10
   6   1  12    1.07    0.10
   7  -1  12   43.48    3.16
   7  -1  12   43.31    2.81
   7  -1  12   42.87    2.99
   7  -1  12   36.41    3.16
   7   1  12   45.14    2.81
   7   1  12   40.38    3.07
   7   1  12   47.79    2.99
   8  -1  12    0.07    0.04
   8  -1  12    0.19    0.05
   8  -1  12    0.06    0.06
   8  -1  12    0.16    0.04
   8   1  12    0.16    0.06
  -8   1 -12    0.10    0.05
   8   1  12    0.14    0.06
   8   1  12    0.07    0.06
   9  -1  12    7.92    0.54
   9  -1  12    7.99    0.59
   9  -1  12    7.43    0.57
  -9   1 -12    7.72    0.55
   9   1  12    8.31    0.57
   9   1  12    8.10    0.54
  10  -1  12    0.77    0.07
  10   1  12    0.82    0.09
 -10   1 -12    0.74    0.08
  10   1  12    0.89    0.10
  11   1  12   -0.05    0.05
  11   1  12   -0.02    0.04
 -12  -2  12    0.10    0.04
 -12   2  12    0.14    0.03
 -11  -2  12    0.21    0.05
 -11   2  12    0.19    0.04
 -11   2  12    0.13    0.06
 -10  -2  12    0.67    0.09
 -10   2  12    0.70    0.07
 -10   2  12    0.71    0.10
  -9  -2  12    0.65    0.09
  -9  -2  12    0.88    0.08
  -9   2  12    0.89    0.11
  -9   2  12    1.02    0.08
  -8  -2  12    0.86    0.09
  -8  -2  12    0.88    0.09
  -8   2  12    0.82    0.10
  -8   2  12    0.77    0.07
   8   2 -12    0.76    0.08
  -7  -2  12    1.56    0.17
  -7  -2  12    1.78    0.16
  -7  -2  12    1.91    0.15
  -7   2  12    2.11    0.16
   7   2 -12    1.64    0.17
  -7   2  12    2.20    0.14
   7   2 -12    1.84    0.15
  -6  -2  12    1.17    0.12
  -6  -2  12    1.31    0.11
  -6  -2  12    1.35    0.11
  -6  -2  12    1.45    0.11
   6   2 -12    1.18    0.11
  -6   2  12    1.32    0.11
  -6   2  12    1.20    0.10
   6   2 -12    1.15    0.11
  -5  -2  12    1.73    0.14
  -5  -2  12    1.58    0.15
  -5  -2  12    1.89    0.14
  -5  -2  12    1.60    0.13
   5   2 -12    1.43    0.15
  -5   2  12    1.85    0.12
  -5   2  12    1.91    0.13
   5   2 -12    1.35    0.13
  -4  -2  12    0.31    0.04
  -4  -2  12    0.32    0.04
  -4  -2  12    0.33    0.04
   4   2 -12    0.29    0.05
  -4   2  12    0.25    0.04
   4   2 -12    0.29    0.04
  -3  -2  12   32.68    2.17
  -3  -2  12   32.46    2.23
  -3  -2  12   31.92    2.30
  -3  -2  12   31.35    2.04
   3   2 -12   27.81    2.29
   3   2 -12   28.73    2.09
  -3   2  12   34.43    2.22
  -3   2  12   28.95    2.03
  -2  -2  12    0.19    0.03
  -2  -2  12    0.10    0.04
  -2  -2  12    0.14    0.03
  -2  -2  12    0.20    0.03
  -2   2  12    0.11    0.02
   2   2 -12    0.15    0.03
  -2   2  12    0.15    0.02
   2   2 -12    0.15    0.04
  -2   2  12    0.14    0.02
  -1  -2  12   47.83    3.13
  -1  -2  12   44.01    2.86
  -1  -2  12   42.14    3.23
  -1  -2  12   46.78    3.05
   1   2 -12   42.41    2.94
  -1   2  12   40.12    2.86
   1   2 -12   42.94    3.23
   0  -2  12    0.13    0.04
   0  -2  12    0.08    0.03
   0  -2  12    0.05    0.02
   0  -2  12    0.08    0.03
   0  -2  12    0.13    0.03
   0   2 -12    0.07    0.02
   0   2  12    0.09    0.01
   0   2  12    0.10    0.01
   1  -2  12    4.78    0.33
   1  -2  12    4.74    0.35
   1  -2  12    4.62    0.35
   1  -2  12    4.32    0.31
   1  -2  12    4.74    0.34
   1   2  12    4.21    0.30
   1   2  12    5.21    0.33
  -1   2 -12    4.15    0.32
   2  -2  12    2.09    0.16
   2  -2  12    2.11    0.17
   2  -2  12    2.12    0.15
   2  -2  12    2.14    0.17
   2  -2  12    2.10    0.18
  -2   2 -12    2.12    0.16
   2   2  12    2.30    0.16
   2   2  12    2.21    0.15
   2   2  12    2.27    0.15
   2   2  12    1.82    0.15
   3  -2  12    0.83    0.09
   3  -2  12    0.90    0.09
   3  -2  12    0.78    0.08
   3  -2  12    1.06    0.09
   3  -2  12    0.87    0.08
   3   2  12    0.78    0.07
   3   2  12    0.69    0.08
  -3   2 -12    0.83    0.08
   3   2  12    0.78    0.07
   4  -2  12    0.21    0.04
   4  -2  12    0.21    0.05
   4  -2  12    0.24    0.04
   4  -2  12    0.19    0.04
   4  -2  12    0.18    0.05
   4   2  12    0.25    0.03
   4   2  12    0.23    0.04
   4   2  12    0.23    0.03
  -4   2 -12    0.19    0.04
   5  -2  12    1.12    0.10
   5  -2  12    1.03    0.11
   5  -2  12    1.08    0.10
   5  -2  12    1.24    0.11
   5  -2  12    1.04    0.12
  -5   2 -12    1.10    0.10
   5   2  12    1.07    0.09
   5   2  12    1.01    0.10
   5   2  12    1.13    0.09
   6  -2  12   -0.04    0.05
   6  -2  12    0.00    0.03
   6  -2  12    0.02    0.05
   6  -2  12    0.01    0.03
   6   2  12    0.04    0.04
   6   2  12    0.01    0.04
  -6   2 -12    0.04    0.05
   6   2  12    0.02    0.05
   7  -2  12    4.11    0.34
   7  -2  12    4.51    0.31
   7  -2  12    3.95    0.35
   7  -2  12    4.95    0.35
   7   2  12    4.80    0.31
  -7   2 -12    4.78    0.32
   7   2  12    4.92    0.33
   7   2  12    3.99    0.35
   8  -2  12    0.94    0.12
   8  -2  12    1.13    0.10
   8  -2  12    1.35    0.12
   8   2  12    1.13    0.10
  -8   2 -12    1.26    0.11
   8   2  12    1.32    0.10
   8   2  12    1.08    0.13
   9  -2  12    1.90    0.15
  -9   2 -12    1.65    0.15
   9   2  12    1.84    0.15
   9   2  12    1.62    0.15
  10  -2  12    0.50    0.06
 -10   2 -12    0.46    0.06
  10   2  12    0.51    0.06
  10   2  12    0.52    0.06
  11   2  12    0.42    0.06
  11   2  12    0.39    0.05
 -10  -3  12    0.77    0.08
 -10   3  12    0.84    0.09
  10   3 -12    0.77    0.08
 -10   3  12    0.88    0.07
  -9  -3  12    1.33    0.12
  -9  -3  12    1.57    0.13
   9   3 -12    1.41    0.13
  -9   3  12    1.44    0.11
  -9   3  12    1.47    0.14
  -8  -3  12   -0.01    0.05
  -8  -3  12    0.02    0.05
  -8   3  12    0.09    0.02
   8   3 -12   -0.05    0.05
   8   3 -12   -0.02    0.04
  -8   3  12   -0.01    0.05
  -7  -3  12    2.36    0.21
  -7  -3  12    2.94    0.22
   7   3 -12    2.42    0.23
  -7   3  12    2.70    0.19
  -7   3  12    2.55    0.21
   7   3 -12    2.60    0.19
  -6  -3  12    0.74    0.10
  -6  -3  12    0.85    0.09
  -6  -3  12    0.59    0.07
   6   3 -12    0.66    0.10
  -6   3  12    0.63    0.08
   6   3 -12    0.60    0.07
  -5  -3  12    0.36    0.05
  -5  -3  12    0.36    0.06
  -5  -3  12    0.30    0.05
  -5   3  12    0.28    0.04
   5   3 -12    0.31    0.05
   5   3 -12    0.22    0.06
  -4  -3  12    0.67    0.08
  -4  -3  12    0.67    0.10
  -4  -3  12    0.73    0.09
  -4  -3  12    0.75    0.08
  -4   3  12    0.94    0.07
   4   3 -12    0.69    0.10
   4   3 -12    0.70    0.08
  -3  -3  12    0.71    0.08
  -3  -3  12    0.65    0.08
  -3  -3  12    0.65    0.07
  -3  -3  12    0.70    0.08
  -3   3  12    0.63    0.06
   3   3 -12    0.68    0.07
   3   3 -12    0.73    0.09
  -2  -3  12    2.83    0.22
  -2  -3  12    3.02    0.24
  -2  -3  12    2.91    0.24
  -2  -3  12    2.97    0.21
   2   3 -12    3.09    0.25
   2   3 -12    3.35    0.22
  -1  -3  12    1.03    0.09
  -1  -3  12    0.89    0.09
  -1  -3  12    0.93    0.10
  -1  -3  12    1.03    0.09
   1   3 -12    0.88    0.09
   0  -3  12    3.77    0.27
   0  -3  12    3.81    0.28
   0  -3  12    3.56    0.29
   0  -3  12    3.40    0.25
   0  -3  12    3.96    0.29
   0   3  12    3.69    0.26
   0   3 -12    3.47    0.26
   0   3  12    3.81    0.26
   1  -3  12    0.44    0.06
   1  -3  12    0.40    0.05
   1  -3  12    0.32    0.05
   1  -3  12    0.39    0.05
   1  -3  12    0.32    0.06
   1   3  12    0.43    0.03
   1   3  12    0.40    0.04
  -1   3 -12    0.44    0.05
   2  -3  12    0.14    0.04
   2  -3  12    0.10    0.04
   2  -3  12    0.10    0.05
   2  -3  12    0.24    0.04
   2  -3  12    0.07    0.04
   2   3  12    0.22    0.03
  -2   3 -12    0.07    0.04
   2   3  12    0.14    0.02
   3  -3  12   10.20    0.69
   3  -3  12   11.20    0.78
   3  -3  12    9.60    0.73
   3  -3  12   10.12    0.78
  -3   3 -12   10.99    0.71
   3   3  12    8.84    0.72
   3   3  12   11.06    0.75
   3   3  12   10.90    0.68
   3   3  12   10.35    0.72
   4  -3  12    0.02    0.04
   4  -3  12    0.01    0.04
   4  -3  12   -0.03    0.05
  -4   3 -12   -0.01    0.03
   4   3  12    0.00    0.02
   4   3  12    0.02    0.03
   4   3  12    0.04    0.02
   5  -3  12    0.04    0.03
   5  -3  12    0.02    0.05
   5  -3  12    0.00    0.05
   5   3  12    0.04    0.02
   5   3  12    0.05    0.03
   5   3  12    0.02    0.04
  -5   3 -12    0.01    0.05
   6  -3  12    0.21    0.07
   6  -3  12    0.17    0.06
   6  -3  12    0.27    0.06
   6   3  12    0.28    0.05
  -6   3 -12    0.21    0.06
   6   3  12    0.35    0.06
   7  -3  12    2.00    0.17
   7  -3  12    1.78    0.16
  -7   3 -12    1.92    0.16
   7   3  12    1.80    0.14
   7   3  12    1.95    0.14
   7   3  12    1.54    0.16
   8  -3  12    0.23    0.06
   8   3  12    0.21    0.05
   8   3  12    0.07    0.06
  -8   3 -12    0.13    0.05
   8   3  12    0.13    0.05
   9  -3  12    0.05    0.05
   9   3  12    0.01    0.06
  -9   3 -12    0.01    0.05
   9   3  12   -0.01    0.04
   9   3  12    0.05    0.05
  10  -3  12    0.08    0.04
  10   3  12    0.11    0.04
  10   3  12    0.14    0.03
 -10  -4  12    1.33    0.11
 -10   4  12    1.26    0.12
  -9  -4  12    0.02    0.04
   9   4 -12    0.07    0.05
  -9   4  12    0.05    0.05
  -8  -4  12    1.75    0.15
  -8   4  12    1.50    0.14
   8   4 -12    1.56    0.14
  -7  -4  12    1.93    0.16
  -7   4  12    1.39    0.14
   7   4 -12    1.49    0.15
   7   4 -12    1.72    0.13
  -6  -4  12   15.40    1.08
   6   4 -12   14.34    0.98
  -6   4  12   14.41    1.04
   6   4 -12   13.26    1.08
  -5  -4  12    0.69    0.09
  -5  -4  12    0.88    0.10
   5   4 -12    0.80    0.08
   5   4 -12    0.76    0.09
  -5   4  12    0.51    0.07
  -4  -4  12    0.21    0.05
  -4  -4  12    0.24    0.06
   4   4 -12    0.26    0.05
  -4   4  12    0.29    0.04
   4   4 -12    0.25    0.05
  -3  -4  12    4.30    0.29
  -3  -4  12    4.38    0.32
   3   4 -12    4.14    0.33
   3   4 -12    4.48    0.29
  -3   4  12    3.47    0.30
  -2  -4  12    1.22    0.11
  -2  -4  12    1.02    0.10
   2   4 -12    1.09    0.11
  -2   4  12    1.00    0.08
   2   4 -12    1.25    0.10
  -1  -4  12    5.18    0.38
  -1  -4  12    4.74    0.33
  -1   4  12    4.26    0.35
   1   4 -12    5.55    0.35
   1   4 -12    4.82    0.38
   0  -4  12    4.27    0.35
   0  -4  12    4.61    0.35
   0  -4  12    4.32    0.31
   0   4 -12    5.19    0.32
   0   4  12    4.17    0.32
   1  -4  12    0.05    0.05
   1  -4  12    0.01    0.03
   1  -4  12    0.01    0.03
   1   4  12    0.01    0.02
  -1   4 -12    0.02    0.03
   1   4  12    0.02    0.01
   2  -4  12    7.40    0.53
   2  -4  12    7.11    0.54
   2  -4  12    6.68    0.47
  -2   4 -12    7.28    0.49
   2   4  12    6.66    0.51
   2   4  12    6.78    0.46
   3  -4  12    3.18    0.27
   3  -4  12    3.22    0.24
   3  -4  12    3.83    0.27
   3   4  12    3.37    0.25
  -3   4 -12    3.41    0.24
   3   4  12    3.02    0.23
   4  -4  12    7.80    0.55
   4  -4  12    6.70    0.55
  -4   4 -12    7.41    0.50
   4   4  12    7.17    0.48
   4   4  12    6.79    0.52
   5  -4  12    1.78    0.16
   5  -4  12    1.53    0.15
   5   4  12    1.66    0.12
   5   4  12    1.84    0.13
  -5   4 -12    1.69    0.15
   5   4  12    1.58    0.14
   6  -4  12    4.81    0.43
   6  -4  12    6.03    0.43
   6   4  12    6.09    0.37
   6   4  12    5.00    0.41
  -6   4 -12    5.53    0.39
   6   4  12    5.43    0.39
   7  -4  12    1.35    0.14
   7   4  12    1.19    0.12
   7   4  12    1.25    0.10
  -7   4 -12    1.28    0.13
   7   4  12    1.40    0.10
   8  -4  12    1.63    0.14
   8   4  12    1.53    0.12
   8   4  12    1.21    0.13
  -8   4 -12    1.56    0.13
   8   4  12    1.58    0.11
  -8   4 -12    1.18    0.14
   9  -4  12    0.16    0.05
   9   4  12    0.11    0.05
  -9   4 -12    0.07    0.05
   9   4  12    0.13    0.03
  -9   4 -12    0.05    0.05
   9   4  12    0.02    0.03
  10  -4  12   -0.01    0.04
  10   4  12    0.03    0.03
  10   4  12   -0.01    0.02
  -9  -5  12    0.32    0.05
  -9   5  12    0.22    0.04
   9   5 -12    0.16    0.08
  -8  -5  12    0.37    0.07
  -8   5  12    0.41    0.05
   8   5 -12    0.45    0.06
  -7  -5  12    1.04    0.12
  -7   5  12    0.98    0.10
   7   5 -12    0.96    0.09
   6   5 -12    5.08    0.34
  -6   5  12    4.47    0.35
  -5  -5  12    0.14    0.07
  -5   5  12    0.16    0.04
   5   5 -12    0.18    0.05
   5   5 -12    0.16    0.04
  -4  -5  12    9.49    0.65
   4   5 -12    8.64    0.59
   4   5 -12    7.48    0.65
  -4   5  12    8.31    0.61
  -3  -5  12    0.57    0.08
   3   5 -12    0.65    0.08
   3   5 -12    0.49    0.09
  -3   5  12    0.54    0.06
  -2  -5  12    5.26    0.38
  -2   5  12    4.57    0.35
   2   5 -12    4.95    0.35
   2   5 -12    4.67    0.39
  -1  -5  12    2.09    0.18
   1   5 -12    1.85    0.19
   1   5 -12    2.00    0.16
  -1   5  12    2.09    0.15
   0  -5  12    1.97    0.17
   0   5  12    1.73    0.14
   0   5 -12    1.93    0.15
   1  -5  12    0.82    0.11
   1  -5  12    0.74    0.09
  -1   5 -12    0.90    0.08
   1   5  12    0.78    0.07
   1   5  12    0.82    0.06
   2  -5  12    1.92    0.18
   2  -5  12    2.11    0.17
  -2   5 -12    1.84    0.18
  -2   5 -12    2.10    0.15
   2   5  12    1.87    0.15
   2   5  12    1.80    0.13
   3  -5  12    0.08    0.06
   3  -5  12    0.11    0.05
   3   5  12    0.08    0.03
  -3   5 -12    0.15    0.05
  -3   5 -12    0.11    0.04
   3   5  12    0.09    0.03
   4  -5  12    1.07    0.12
   4  -5  12    0.84    0.10
  -4   5 -12    0.84    0.13
   4   5  12    0.92    0.09
   4   5  12    0.98    0.08
  -4   5 -12    1.06    0.11
   5  -5  12    0.45    0.08
  -5   5 -12    0.40    0.06
   5   5  12    0.34    0.05
   5   5  12    0.40    0.05
   6  -5  12    0.86    0.11
  -6   5 -12    0.82    0.08
   6   5  12    0.73    0.08
   6   5  12    0.80    0.08
   7  -5  12    1.84    0.16
  -7   5 -12    1.72    0.14
   7   5  12    1.32    0.14
   7   5  12    1.74    0.13
   8  -5  12    0.04    0.06
   8   5  12    0.03    0.04
   8   5  12    0.02    0.04
  -8   5 -12   -0.01    0.03
   9  -5  12    0.66    0.07
   9   5  12    0.68    0.07
  -8  -6  12    0.02    0.03
   8   6 -12    0.16    0.05
  -7  -6  12    1.86    0.16
  -7   6  12    1.61    0.14
   7   6 -12    1.80    0.17
   7   6 -12    1.67    0.14
  -6  -6  12    0.37    0.06
   6   6 -12    0.26    0.06
  -6   6  12    0.30    0.05
   6   6 -12    0.40    0.07
  -5  -6  12    1.44    0.14
  -5   6  12    1.15    0.10
   5   6 -12    1.18    0.14
   5   6 -12    1.15    0.12
  -4  -6  12    1.19    0.12
   4   6 -12    1.26    0.12
  -4   6  12    1.11    0.10
   4   6 -12    1.20    0.14
  -3  -6  12    8.01    0.57
   3   6 -12    7.01    0.52
  -3   6  12    7.29    0.54
   3   6 -12    7.37    0.57
  -2  -6  12    0.91    0.12
   2   6 -12    1.03    0.13
  -2   6  12    0.77    0.07
   2   6 -12    0.93    0.10
  -1  -6  12   10.26    0.68
   1   6 -12    8.67    0.67
   1   6 -12    7.84    0.64
   1   6 -12    8.02    0.68
   1   6 -12    9.31    0.62
  -1   6  12    9.00    0.64
   0  -6  12    0.65    0.09
   0   6 -12    0.62    0.07
   0   6 -12    0.50    0.08
   0   6  12    0.60    0.06
   0   6 -12    0.69    0.09
   0   6 -12    0.64    0.09
   1  -6  12    0.54    0.08
  -1   6 -12    0.45    0.07
  -1   6 -12    0.44    0.09
   1   6  12    0.46    0.05
  -1   6 -12    0.64    0.08
  -1   6 -12    0.59    0.08
   1   6  12    0.46    0.05
   2  -6  12    4.45    0.33
   2   6  12    3.99    0.30
   2   6  12    3.72    0.27
  -2   6 -12    4.28    0.30
  -2   6 -12    4.08    0.33
  -2   6 -12    3.97    0.31
   3  -6  12    0.57    0.08
  -3   6 -12    0.48    0.08
   3   6  12    0.63    0.06
  -3   6 -12    0.62    0.08
   3   6  12    0.49    0.06
  -3   6 -12    0.65    0.08
   4  -6  12    3.56    0.27
   4   6  12    3.14    0.25
  -4   6 -12    3.40    0.28
  -4   6 -12    3.46    0.25
  -4   6 -12    3.03    0.25
   4   6  12    3.22    0.23
   5  -6  12   -0.02    0.06
  -5   6 -12   -0.01    0.04
   5   6  12    0.02    0.03
   5   6  12    0.03    0.04
  -5   6 -12    0.06    0.04
  -5   6 -12    0.04    0.05
   6  -6  12    0.25    0.05
  -6   6 -12    0.21    0.05
   6   6  12    0.20    0.03
  -6   6 -12    0.11    0.07
   6   6  12    0.19    0.04
   7  -6  12    0.16    0.04
  -7   6 -12   -0.02    0.06
   7   6  12    0.09    0.03
  -6  -7  12    0.00    0.04
   6   7 -12   -0.01    0.06
  -5  -7  12    0.78    0.08
  -5   7  12    0.64    0.06
   5   7 -12    0.63    0.08
  -4  -7  12    0.83    0.09
   4   7 -12    0.69    0.09
   4   7 -12    0.71    0.09
  -4   7  12    0.83    0.08
  -3  -7  12    0.71    0.10
  -3   7  12    0.60    0.06
   3   7 -12    0.65    0.07
   3   7 -12    0.64    0.09
   3   7 -12    0.58    0.08
  -2  -7  12    0.73    0.09
   2   7 -12    0.67    0.09
  -2   7  12    0.73    0.07
   2   7 -12    0.81    0.12
   2   7 -12    0.54    0.09
  -1  -7  12    2.51    0.20
   1   7 -12    2.03    0.18
  -1   7  12    2.04    0.17
   1   7 -12    2.54    0.21
   1   7 -12    2.28    0.18
   0  -7  12    0.45    0.06
   0   7  12    0.35    0.04
   0   7 -12    0.40    0.06
   0   7  12    0.34    0.05
   0   7 -12    0.35    0.06
   0   7 -12    0.31    0.07
   1  -7  12    1.36    0.13
   1   7  12    1.21    0.09
  -1   7 -12    1.43    0.12
  -1   7 -12    1.39    0.14
  -1   7 -12    1.41    0.14
   1   7  12    1.29    0.11
   2  -7  12    1.25    0.12
  -2   7 -12    1.27    0.13
   2   7  12    1.14    0.09
   2   7  12    1.17    0.10
  -2   7 -12    1.10    0.10
  -2   7 -12    1.34    0.13
   3  -7  12    0.32    0.07
  -3   7 -12    0.30    0.05
  -3   7 -12    0.27    0.05
   3   7  12    0.30    0.04
   3   7  12    0.34    0.05
  -3   7 -12    0.26    0.07
   4  -7  12    0.78    0.09
   4   7  12    0.66    0.06
   4   7  12    0.61    0.06
  -4   7 -12    0.59    0.08
  -4   7 -12    0.49    0.08
   5  -7  12    1.99    0.17
   5   7  12    2.10    0.15
  -5   7 -12    2.23    0.17
   2   8 -12    0.08    0.05
  -1  -8  12    0.05    0.04
   1   8 -12    0.05    0.04
   0  -8  12    0.08    0.04
   0   8 -12    0.06    0.04
   1  -8  12    0.05    0.04
  -1   8 -12    0.07    0.05
 -12   0  13   -0.02    0.02
 -11   0  13    0.01    0.04
 -10   0  13    0.02    0.05
 -10   0  13   -0.03    0.04
  -9   0  13    0.03    0.04
  -9   0  13    0.08    0.06
  -8   0  13   -0.03    0.05
  -8   0  13    0.02    0.04
  -7   0  13    0.05    0.04
  -7   0  13    0.06    0.04
  -6   0  13    0.07    0.03
  -6   0  13    0.03    0.04
  -5   0  13    0.06    0.03
  -5   0  13    0.09    0.03
  -5   0  13    0.03    0.04
  -4   0  13    0.01    0.02
  -4   0  13    0.01    0.03
  -4   0  13    0.06    0.02
  -3   0  13    0.02    0.02
  -3   0  13    0.12    0.03
  -3   0  13    0.01    0.02
  -2   0  13    0.16    0.02
  -2   0  13    0.14    0.03
  -2   0  13    0.22    0.03
  -1   0  13    0.31    0.04
  -1   0  13    0.42    0.04
   0   0  13    0.17    0.04
   0   0  13    0.16    0.02
   0   0  13    0.14    0.03
   1   0  13    0.06    0.03
   1   0  13    0.05    0.02
   1   0  13    0.06    0.02
   2   0  13    0.06    0.03
   2   0  13    0.02    0.02
   2   0  13    0.05    0.02
   3   0  13    0.07    0.04
   3   0  13    0.07    0.03
   3   0  13    0.12    0.03
   4   0  13    0.03    0.04
   4   0  13    0.02    0.03
   4   0  13   -0.03    0.03
   5   0  13    0.05    0.03
   5   0  13    0.06    0.04
   5   0  13    0.07    0.05
   6   0  13    0.04    0.04
   6   0  13    0.03    0.04
   6   0  13    0.09    0.05
   7   0  13    0.00    0.04
   7   0  13    0.11    0.05
   7   0  13    0.09    0.06
   8   0  13    0.04    0.04
   8   0  13   -0.01    0.06
   9   0  13    0.09    0.06
   9   0  13    0.02    0.05
  10   0  13   -0.01    0.03
  10   0  13   -0.05    0.06
  11   0  13    0.05    0.04
 -12  -1  13    0.01    0.03
 -12   1  13    0.04    0.02
 -11  -1  13   -0.05    0.05
 -11   1  13    0.06    0.06
 -11   1  13    0.00    0.03
 -10  -1  13    3.30    0.25
 -10   1  13    3.81    0.25
 -10   1  13    3.13    0.27
  -9  -1  13    0.32    0.06
  -9  -1  13    0.32    0.06
  -9   1  13    0.45    0.06
  -9   1  13    0.29    0.07
  -8  -1  13    1.15    0.11
  -8  -1  13    1.04    0.11
  -8   1  13    1.30    0.10
  -8   1  13    1.16    0.12
  -7  -1  13    4.49    0.36
  -7  -1  13    4.73    0.34
  -7   1  13    4.71    0.35
  -7   1  13    4.73    0.33
  -6  -1  13    0.10    0.05
  -6  -1  13    0.10    0.04
  -6  -1  13    0.19    0.04
  -6   1  13    0.11    0.04
  -6   1  13    0.14    0.03
  -5  -1  13    1.63    0.14
  -5  -1  13    1.67    0.12
  -5  -1  13    1.50    0.13
  -5   1  13    1.61    0.13
  -5   1  13    1.61    0.12
  -4  -1  13    3.94    0.27
  -4  -1  13    3.54    0.28
  -4  -1  13    3.80    0.30
  -4   1  13    3.73    0.28
  -4   1  13    4.31    0.27
  -4   1  13    4.30    0.29
  -3  -1  13    5.67    0.39
  -3  -1  13    5.99    0.44
  -3  -1  13    5.93    0.42
  -3   1  13    6.47    0.43
  -3   1  13    5.93    0.41
  -3   1  13    5.29    0.41
  -3   1  13    6.04    0.39
  -2  -1  13    0.35    0.05
  -2  -1  13    0.42    0.05
  -2  -1  13    0.45    0.05
  -2   1  13    0.24    0.03
  -2   1  13    0.38    0.03
  -2   1  13    0.31    0.03
  -2   1  13    0.31    0.04
  -1  -1  13    1.45    0.11
  -1  -1  13    1.41    0.10
  -1  -1  13    1.31    0.10
  -1   1  13    1.07    0.09
  -1   1  13    1.28    0.09
  -1   1  13    1.21    0.09
   0  -1  13    0.13    0.03
   0  -1  13    0.18    0.03
   0   1  13    0.14    0.02
   0   1  13    0.15    0.03
   0   1  13    0.11    0.02
   1  -1  13   27.52    1.98
   1  -1  13   25.61    1.81
   1  -1  13   28.48    1.92
   1   1  13   28.19    1.97
   1   1  13   28.98    1.92
   1   1  13   26.54    1.80
   2  -1  13    2.31    0.16
   2  -1  13    2.29    0.17
   2  -1  13    2.25    0.18
   2   1  13    2.32    0.18
   2   1  13    2.18    0.16
   2   1  13    2.40    0.16
   3  -1  13    2.71    0.19
   3  -1  13    2.76    0.20
   3  -1  13    2.76    0.22
   3  -1  13    2.35    0.20
   3   1  13    2.90    0.20
   3   1  13    2.84    0.21
   3   1  13    2.72    0.19
   4  -1  13    0.17    0.05
   4  -1  13    0.14    0.03
   4  -1  13    0.11    0.03
   4  -1  13    0.14    0.04
   4  -1  13    0.12    0.04
   4   1  13    0.12    0.03
   4   1  13    0.17    0.04
   4   1  13    0.20    0.03
   5  -1  13    6.10    0.48
   5  -1  13    6.64    0.48
   5  -1  13    6.40    0.46
   5  -1  13    6.86    0.43
   5  -1  13    5.54    0.49
   5   1  13    6.19    0.47
   5   1  13    6.71    0.43
   5   1  13    6.63    0.45
   6  -1  13    0.06    0.05
   6  -1  13    0.03    0.06
   6  -1  13    0.07    0.04
   6  -1  13    0.01    0.05
   6  -1  13    0.00    0.05
   6   1  13    0.09    0.04
   6   1  13    0.06    0.05
  -6   1 -13    0.01    0.04
   6   1  13    0.06    0.04
   7  -1  13    0.81    0.09
   7  -1  13    0.86    0.08
   7  -1  13    0.81    0.10
   7   1  13    0.76    0.11
  -7   1 -13    0.69    0.09
   7   1  13    0.89    0.08
   7   1  13    0.80    0.08
   8  -1  13    2.98    0.24
   8  -1  13    3.17    0.24
   8  -1  13    3.14    0.23
   8   1  13    3.25    0.24
   8   1  13    3.35    0.23
   8   1  13    2.72    0.25
   9  -1  13    7.27    0.54
   9  -1  13    7.48    0.51
   9   1  13    7.79    0.51
   9   1  13    7.80    0.54
  10  -1  13    0.64    0.08
  10   1  13    0.71    0.09
  10   1  13    0.73    0.07
  11   1  13    0.12    0.04
  11   1  13    0.13    0.04
 -11   2  13    0.99    0.12
 -11   2  13    1.33    0.09
 -10  -2  13    1.25    0.12
 -10   2  13    1.41    0.10
 -10   2  13    1.29    0.13
  -9  -2  13   10.11    0.72
  -9   2  13    9.78    0.74
  -9   2  13   10.38    0.71
  -8  -2  13    1.45    0.13
  -8   2  13    1.42    0.11
  -8   2  13    1.45    0.13
  -7  -2  13    3.91    0.28
  -7  -2  13    3.72    0.29
  -7  -2  13    3.60    0.30
  -7   2  13    3.79    0.29
  -7   2  13    3.88    0.27
  -6  -2  13   12.08    0.90
  -6  -2  13   11.49    0.89
  -6  -2  13   12.38    0.86
  -6  -2  13   12.42    0.81
  -6   2  13   11.77    0.85
  -6   2  13   12.63    0.88
  -5  -2  13   12.51    0.82
  -5  -2  13   12.31    0.87
  -5  -2  13   12.00    0.92
  -5  -2  13   11.71    0.90
  -5   2  13   13.21    0.89
  -4  -2  13    4.94    0.36
  -4  -2  13    4.88    0.33
  -4  -2  13    5.18    0.35
   4   2 -13    4.52    0.34
  -4   2  13    5.27    0.35
   4   2 -13    4.16    0.37
  -3  -2  13    2.04    0.16
  -3  -2  13    1.91    0.14
  -3  -2  13    2.09    0.14
  -3  -2  13    1.95    0.15
  -3   2  13    1.70    0.14
   3   2 -13    1.62    0.15
   3   2 -13    1.79    0.14
  -2  -2  13   30.99    2.18
  -2  -2  13   31.95    2.31
  -2  -2  13   30.85    2.25
  -2  -2  13   33.13    2.05
  -2   2  13   29.99    2.04
   2   2 -13   29.07    2.11
  -2   2  13   33.05    2.23
  -1  -2  13    2.19    0.15
  -1  -2  13    2.15    0.15
  -1  -2  13    2.03    0.16
   1   2 -13    2.12    0.14
   1   2 -13    1.86    0.16
  -1   2  13    1.66    0.13
  -1   2  13    1.60    0.14
   0  -2  13    3.41    0.26
   0  -2  13    3.66    0.25
   0  -2  13    3.34    0.27
   0  -2  13    3.66    0.27
   0  -2  13    3.51    0.24
   0   2  13    3.23    0.23
   0   2 -13    3.11    0.24
   0   2  13    3.79    0.25
   1  -2  13    2.17    0.18
   1  -2  13    2.29    0.18
   1  -2  13    2.13    0.17
   1  -2  13    2.40    0.16
   1  -2  13    2.43    0.17
   1   2  13    1.96    0.15
  -1   2 -13    1.95    0.16
   1   2  13    2.28    0.16
   2  -2  13    5.17    0.43
   2  -2  13    5.67    0.41
   2  -2  13    5.34    0.44
   2  -2  13    5.83    0.43
   2  -2  13    6.15    0.39
   2   2  13    6.31    0.42
   2   2  13    5.83    0.38
   2   2  13    5.82    0.40
  -2   2 -13    5.61    0.40
   3  -2  13    1.55    0.13
   3  -2  13    1.51    0.14
   3  -2  13    1.60    0.12
   3  -2  13    1.36    0.14
   3  -2  13    1.52    0.13
  -3   2 -13    1.59    0.12
   3   2  13    1.72    0.11
   3   2  13    1.60    0.13
   3   2  13    1.58    0.11
   4  -2  13    5.09    0.41
   4  -2  13    5.51    0.40
   4  -2  13    5.48    0.42
   4  -2  13    5.47    0.38
   4  -2  13    4.90    0.42
  -4   2 -13    5.59    0.39
   4   2  13    5.60    0.39
   4   2  13    5.79    0.41
   4   2  13    5.94    0.37
   5  -2  13    5.70    0.38
   5  -2  13    5.26    0.40
   5  -2  13    5.14    0.42
   5  -2  13    5.65    0.42
   5  -2  13    5.03    0.42
   5   2  13    5.63    0.41
  -5   2 -13    5.40    0.39
   5   2  13    5.81    0.39
   5   2  13    5.77    0.37
   6  -2  13   24.88    1.66
   6  -2  13   23.82    1.76
   6  -2  13   25.89    1.86
   6   2  13   26.17    1.65
   6   2  13   24.82    1.81
   7  -2  13    2.98    0.26
   7  -2  13    3.26    0.24
   7  -2  13    2.88    0.25
   7  -2  13    3.47    0.26
   7   2  13    3.37    0.24
   7   2  13    3.64    0.23
   7   2  13    2.75    0.25
  -7   2 -13    3.45    0.24
   8  -2  13    4.54    0.38
   8  -2  13    4.71    0.35
   8  -2  13    5.29    0.39
   8   2  13    4.93    0.39
   8   2  13    5.33    0.37
   8   2  13    5.58    0.35
  -8   2 -13    5.30    0.36
   9  -2  13    0.83    0.08
   9   2  13    0.84    0.09
   9   2  13    0.63    0.10
   9   2  13    0.91    0.09
  -9   2 -13    0.85    0.10
  10   2  13    1.83    0.14
  10   2  13    1.87    0.14
 -11  -3  13    0.08    0.04
 -10  -3  13    2.10    0.17
  -9  -3  13    0.20    0.06
   9   3 -13    0.17    0.05
  -9   3  13    0.12    0.05
  -8  -3  13    0.03    0.03
  -8  -3  13   -0.04    0.05
   8   3 -13   -0.03    0.04
  -8   3  13    0.07    0.05
  -7  -3  13    4.45    0.32
  -7  -3  13    4.01    0.31
   7   3 -13    4.49    0.30
  -7   3  13    4.29    0.31
   7   3 -13    3.49    0.33
  -6  -3  13    0.00    0.05
  -6  -3  13    0.00    0.04
  -6  -3  13    0.02    0.05
   6   3 -13    0.03    0.05
   6   3 -13    0.00    0.03
  -6   3  13    0.04    0.03
  -5  -3  13   11.13    0.71
  -5  -3  13   11.46    0.79
  -5  -3  13   10.26    0.75
   5   3 -13   10.13    0.72
  -5   3  13   10.98    0.76
   5   3 -13    9.39    0.80
  -4  -3  13    1.34    0.12
  -4  -3  13    1.14    0.11
  -4  -3  13    1.17    0.11
  -4  -3  13    1.06    0.10
  -4   3  13    1.23    0.10
   4   3 -13    1.18    0.10
   4   3 -13    1.00    0.12
  -3  -3  13   31.79    2.41
  -3  -3  13   35.30    2.27
  -3  -3  13   32.16    2.48
  -3  -3  13   36.79    2.56
   3   3 -13   35.59    2.33
  -3   3  13   35.92    2.46
   3   3 -13   33.96    2.56
  -2  -3  13    0.70    0.08
  -2  -3  13    0.72    0.08
  -2  -3  13    0.79    0.08
  -2  -3  13    0.78    0.07
  -2   3  13    0.67    0.05
  -2   3  13    0.69    0.05
   2   3 -13    0.75    0.07
   2   3 -13    0.75    0.09
  -1  -3  13   16.37    1.16
  -1  -3  13   15.01    1.13
  -1  -3  13   14.65    1.09
  -1  -3  13   15.99    1.03
   1   3 -13   15.19    1.16
   1   3 -13   16.16    1.06
   0  -3  13    1.26    0.12
   0  -3  13    1.34    0.11
   0  -3  13    1.24    0.11
   0  -3  13    1.15    0.12
   0  -3  13    1.39    0.11
   0   3 -13    1.32    0.10
   0   3  13    1.28    0.10
   0   3  13    1.40    0.10
   1  -3  13    1.56    0.13
   1  -3  13    1.63    0.13
   1  -3  13    1.51    0.14
   1  -3  13    1.55    0.12
   1  -3  13    1.77    0.14
   1   3  13    1.67    0.12
   1   3  13    1.37    0.11
  -1   3 -13    1.59    0.13
   2  -3  13    3.09    0.24
   2  -3  13    3.38    0.24
   2  -3  13    2.94    0.22
   2  -3  13    3.05    0.22
   2  -3  13    2.94    0.25
  -2   3 -13    2.80    0.22
   2   3  13    3.16    0.22
   2   3  13    2.85    0.20
   3  -3  13    0.14    0.04
   3  -3  13    0.19    0.04
   3  -3  13    0.23    0.05
   3  -3  13    0.16    0.04
   3   3  13    0.16    0.03
  -3   3 -13    0.19    0.04
   3   3  13    0.10    0.03
   4  -3  13    0.43    0.06
   4  -3  13    0.42    0.06
   4  -3  13    0.35    0.06
   4  -3  13    0.32    0.06
   4   3  13    0.38    0.04
   4   3  13    0.47    0.06
   4   3  13    0.39    0.05
  -4   3 -13    0.34    0.06
   5  -3  13    7.50    0.53
   5  -3  13    7.29    0.61
   5  -3  13    8.20    0.60
   5   3  13    8.47    0.53
   5   3  13    7.72    0.58
   5   3  13    8.27    0.56
  -5   3 -13    7.87    0.55
   6  -3  13    4.53    0.34
   6  -3  13    4.12    0.39
   6  -3  13    5.24    0.38
   6   3  13    4.70    0.37
  -6   3 -13    5.22    0.36
   6   3  13    5.10    0.35
   6   3  13    5.42    0.34
   7  -3  13    0.02    0.05
   7   3  13    0.09    0.05
   7   3  13    0.00    0.03
  -7   3 -13   -0.03    0.05
   7   3  13   -0.01    0.04
   8  -3  13    3.26    0.25
   8   3  13    3.15    0.23
  -8   3 -13    3.05    0.23
   8   3  13    2.76    0.25
   8   3  13    3.40    0.23
   9  -3  13    3.51    0.26
   9   3  13    3.46    0.24
  -9   3 -13    3.42    0.25
   9   3  13    2.77    0.26
   9   3  13    3.36    0.23
  10   3  13    0.13    0.03
  10   3  13    0.15    0.04
  -9  -4  13    0.06    0.03
   9   4 -13   -0.01    0.05
  -9   4  13    0.05    0.04
  -8  -4  13    0.22    0.05
  -8   4  13    0.34    0.05
   8   4 -13    0.31    0.06
  -7  -4  13    0.04    0.05
  -7   4  13    0.10    0.04
   7   4 -13    0.16    0.04
  -6  -4  13    5.15    0.37
   6   4 -13    3.98    0.37
   6   4 -13    4.99    0.34
  -6   4  13    4.69    0.35
  -5  -4  13    0.22    0.06
  -5  -4  13    0.24    0.06
   5   4 -13    0.30    0.05
  -5   4  13    0.26    0.04
   5   4 -13    0.19    0.06
  -4  -4  13    6.62    0.44
  -4  -4  13    6.94    0.50
  -4   4  13    6.38    0.47
   4   4 -13    6.90    0.46
   4   4 -13    5.72    0.50
  -3  -4  13    0.50    0.07
  -3  -4  13    0.45    0.06
   3   4 -13    0.56    0.07
  -3   4  13    0.45    0.04
   3   4 -13    0.42    0.08
  -2  -4  13   27.15    1.91
  -2  -4  13   25.81    1.69
   2   4 -13   25.12    1.91
  -2   4  13   24.39    1.83
   2   4 -13   26.13    1.74
  -1  -4  13   14.78    1.02
  -1  -4  13   12.57    0.90
   1   4 -13   14.20    0.93
  -1   4  13   14.17    0.97
   1   4 -13   12.39    1.02
   0  -4  13   34.56    2.38
   0  -4  13   29.53    2.10
   0   4 -13   33.24    2.17
   0   4  13   30.96    2.29
   1  -4  13   13.26    0.89
   1  -4  13   11.42    0.79
   1  -4  13   11.00    0.90
   1   4  13   10.33    0.78
  -1   4 -13   13.05    0.82
   1   4  13   12.48    0.85
   2  -4  13    3.09    0.26
   2  -4  13    2.95    0.23
   2  -4  13    3.67    0.26
  -2   4 -13    3.10    0.24
   2   4  13    3.55    0.24
   2   4  13    3.10    0.22
   3  -4  13    2.49    0.19
   3  -4  13    2.09    0.20
   3  -4  13    2.02    0.17
  -3   4 -13    2.22    0.17
   3   4  13    2.40    0.18
   3   4  13    2.24    0.16
   4  -4  13    3.88    0.29
   4  -4  13    3.26    0.29
   4   4  13    3.68    0.27
  -4   4 -13    3.41    0.27
   4   4  13    3.63    0.25
   5  -4  13    0.49    0.06
   5  -4  13    0.38    0.08
  -5   4 -13    0.33    0.07
   5   4  13    0.42    0.06
   5   4  13    0.42    0.05
   6  -4  13    4.31    0.31
   6   4  13    3.72    0.29
  -6   4 -13    3.46    0.28
   6   4  13    3.92    0.27
   6   4  13    3.82    0.27
   7  -4  13    1.96    0.16
   7   4  13    1.65    0.16
   7   4  13    1.85    0.14
  -7   4 -13    1.95    0.16
   7   4  13    1.92    0.14
   8  -4  13    2.09    0.17
   8   4  13    2.11    0.15
  -8   4 -13    1.98    0.16
   8   4  13    2.05    0.15
   8   4  13    1.85    0.17
   9  -4  13    0.19    0.05
  -9   4 -13    0.23    0.05
   9   4  13    0.25    0.03
   9   4  13    0.31    0.04
  -9  -5  13    0.07    0.03
  -8  -5  13    0.04    0.04
   8   5 -13    0.07    0.05
  -8   5  13    0.04    0.04
  -7  -5  13    0.21    0.06
  -7   5  13    0.22    0.04
   7   5 -13    0.17    0.04
  -6  -5  13    0.62    0.08
  -6   5  13    0.55    0.07
   6   5 -13    0.63    0.08
  -5  -5  13    0.80    0.10
   5   5 -13    0.72    0.09
  -5   5  13    0.63    0.07
  -4  -5  13    0.28    0.06
   4   5 -13    0.14    0.07
   4   5 -13    0.28    0.05
  -4   5  13    0.16    0.03
  -3  -5  13    2.83    0.22
  -3   5  13    2.41    0.19
   3   5 -13    2.37    0.23
   3   5 -13    2.75    0.19
  -2  -5  13    1.11    0.12
   2   5 -13    1.03    0.10
  -2   5  13    1.09    0.08
   2   5 -13    0.87    0.11
  -1  -5  13    0.05    0.04
   1   5 -13    0.10    0.06
  -1   5  13    0.05    0.02
   1   5 -13    0.07    0.05
   0  -5  13    0.04    0.04
   0   5 -13    0.03    0.06
   0   5 -13    0.06    0.05
   0   5  13    0.08    0.02
   1  -5  13    1.49    0.13
  -1   5 -13    1.14    0.11
   1   5  13    1.26    0.10
   1   5  13    1.05    0.08
   2  -5  13    0.07    0.06
   2  -5  13    0.09    0.06
  -2   5 -13    0.05    0.04
   2   5  13    0.04    0.02
   2   5  13    0.04    0.02
   3  -5  13    0.60    0.08
   3  -5  13    0.50    0.07
   3   5  13    0.40    0.06
   3   5  13    0.60    0.06
  -3   5 -13    0.66    0.08
   4  -5  13   -0.06    0.06
  -4   5 -13    0.01    0.05
   4   5  13    0.02    0.04
   4   5  13    0.03    0.03
   5  -5  13    0.73    0.10
   5   5  13    0.52    0.08
   5   5  13    0.77    0.07
  -5   5 -13    0.74    0.08
   6  -5  13   -0.04    0.04
   6   5  13    0.06    0.04
   6   5  13   -0.06    0.04
  -6   5 -13    0.01    0.04
   7  -5  13    0.56    0.07
  -7   5 -13    0.42    0.07
   7   5  13    0.55    0.07
   7   5  13    0.58    0.07
   8  -5  13    0.12    0.05
   8   5  13    0.26    0.04
  -7  -6  13    0.03    0.03
   7   6 -13   -0.04    0.07
  -7   6  13    0.03    0.02
  -6  -6  13    0.00    0.06
  -6   6  13    0.00    0.03
   6   6 -13    0.00    0.05
   6   6 -13    0.03    0.04
  -5  -6  13    0.27    0.05
  -5   6  13    0.17    0.03
   5   6 -13    0.22    0.06
   5   6 -13    0.23    0.05
  -4  -6  13    2.27    0.19
  -4   6  13    1.98    0.16
   4   6 -13    2.04    0.16
   4   6 -13    2.09    0.20
  -3  -6  13    0.37    0.07
   3   6 -13    0.28    0.05
  -3   6  13    0.22    0.03
   3   6 -13    0.28    0.08
  -2  -6  13    1.86    0.16
   2   6 -13    1.53    0.14
   2   6 -13    1.47    0.15
  -2   6  13    1.45    0.12
  -1  -6  13    0.46    0.08
   1   6 -13    0.35    0.06
  -1   6  13    0.33    0.04
   1   6 -13    0.25    0.08
   0  -6  13    5.50    0.38
   0   6 -13    5.00    0.35
   0   6 -13    4.52    0.38
   0   6  13    4.48    0.35
   1  -6  13    0.29    0.07
  -1   6 -13    0.24    0.06
   1   6  13    0.19    0.03
  -1   6 -13    0.24    0.05
   1   6  13    0.20    0.03
   2  -6  13    4.20    0.29
  -2   6 -13    3.38    0.27
   2   6  13    3.66    0.27
   2   6  13    3.39    0.24
  -2   6 -13    3.37    0.29
   3  -6  13    1.30    0.12
   3   6  13    1.15    0.10
  -3   6 -13    1.17    0.12
   3   6  13    1.06    0.09
  -3   6 -13    1.12    0.14
   4  -6  13    0.29    0.07
  -4   6 -13    0.25    0.08
   4   6  13    0.33    0.04
  -4   6 -13    0.29    0.06
   4   6  13    0.33    0.05
   5  -6  13    0.69    0.08
  -5   6 -13    0.60    0.07
   5   6  13    0.56    0.06
   5   6  13    0.73    0.06
  -5   6 -13    0.57    0.09
   6  -6  13    0.15    0.06
  -6   6 -13    0.16    0.07
   6   6  13    0.09    0.03
   6   6  13    0.09    0.04
   7  -6  13    0.10    0.03
   7   6  13    0.09    0.03
  -5  -7  13    0.06    0.04
   5   7 -13    0.02    0.06
  -4  -7  13    0.71    0.09
   4   7 -13    0.65    0.09
  -4   7  13    0.57    0.06
  -3  -7  13    0.32    0.07
  -3   7  13    0.23    0.03
   3   7 -13    0.19    0.07
   3   7 -13    0.26    0.05
  -2  -7  13    1.92    0.15
  -2   7  13    1.33    0.12
   2   7 -13    1.64    0.13
   2   7 -13    1.58    0.14
  -1  -7  13    0.52    0.07
   1   7 -13    0.47    0.06
   1   7 -13    0.57    0.09
  -1   7  13    0.38    0.05
   0  -7  13    0.05    0.06
   0   7 -13   -0.02    0.07
   0   7  13    0.07    0.03
   0   7 -13    0.07    0.04
   1  -7  13    2.72    0.21
   1   7  13    2.17    0.18
  -1   7 -13    2.62    0.21
   2  -7  13    0.15    0.05
  -2   7 -13    0.14    0.05
  -2   7 -13    0.14    0.04
   2   7  13    0.11    0.03
   3  -7  13    0.10    0.06
   3   7  13    0.11    0.02
  -3   7 -13    0.13    0.05
   3   7  13    0.06    0.03
   4  -7  13    0.03    0.05
  -4   7 -13   -0.05    0.04
   5  -7  13    0.01    0.04
 -11   0  14    0.03    0.04
 -10   0  14    0.85    0.10
 -10   0  14    0.87    0.08
  -9   0  14    2.23    0.20
  -9   0  14    2.33    0.17
  -8   0  14   -0.01    0.04
  -8   0  14    0.00    0.04
  -7   0  14    1.29    0.13
  -6   0  14    1.71    0.14
  -6   0  14    1.55    0.13
  -5   0  14    0.63    0.08
  -5   0  14    0.56    0.07
  -5   0  14    0.64    0.07
  -4   0  14   13.23    0.94
  -4   0  14   13.58    0.97
  -4   0  14   13.61    0.89
  -3   0  14    0.05    0.03
  -3   0  14    0.04    0.02
  -3   0  14    0.06    0.02
  -2   0  14   27.53    1.94
  -2   0  14   28.51    2.00
  -2   0  14   27.55    1.83
  -1   0  14    2.96    0.22
  -1   0  14    3.08    0.23
  -1   0  14    3.09    0.21
   0   0  14   23.12    1.57
   0   0  14   23.49    1.48
   0   0  14   20.96    1.62
   1   0  14    4.36    0.31
   1   0  14    4.92    0.35
   1   0  14    4.74    0.33
   2   0  14   26.55    1.76
   2   0  14   26.35    1.92
   2   0  14   27.57    1.87
   3   0  14   10.88    0.80
   3   0  14   11.14    0.73
   3   0  14   10.82    0.77
   4   0  14    0.41    0.05
   4   0  14    0.35    0.06
   4   0  14    0.37    0.05
   5   0  14   34.70    2.25
   5   0  14   33.06    2.46
   5   0  14   35.22    2.40
   6   0  14    8.81    0.62
   6   0  14    8.40    0.65
   6   0  14    9.03    0.59
   7   0  14   19.29    1.50
   7   0  14   22.42    1.37
   7   0  14   20.49    1.45
   8   0  14    3.10    0.23
   8   0  14    3.22    0.24
   9   0  14    7.31    0.50
  10   0  14    0.27    0.05
  10   0  14    0.21    0.05
 -11  -1  14    0.12    0.03
 -11   1  14    0.17    0.03
 -10  -1  14    0.46    0.06
 -10   1  14    0.49    0.05
 -10   1  14    0.48    0.07
  -9  -1  14    3.12    0.23
  -9  -1  14    2.92    0.26
  -9   1  14    3.05    0.25
  -9   1  14    3.37    0.23
  -8  -1  14    3.38    0.32
  -8  -1  14    4.43    0.30
  -8   1  14    3.96    0.32
  -8   1  14    4.52    0.30
  -7  -1  14    0.02    0.04
  -7  -1  14    0.04    0.06
  -7   1  14    0.01    0.03
  -7   1  14   -0.01    0.04
  -6  -1  14    1.63    0.12
  -6  -1  14    1.24    0.13
  -6  -1  14    1.13    0.11
  -6   1  14    1.29    0.12
  -6   1  14    1.39    0.10
  -5  -1  14   14.80    1.13
  -5  -1  14   16.16    1.03
  -5  -1  14   15.59    1.09
  -5   1  14   15.29    1.08
  -5   1  14   15.84    1.12
  -4  -1  14    0.76    0.09
  -4  -1  14    0.63    0.07
  -4  -1  14    0.80    0.07
  -4   1  14    0.64    0.07
  -4   1  14    0.80    0.06
  -4   1  14    0.82    0.08
  -3  -1  14   28.45    1.80
  -3  -1  14   28.70    1.91
  -3   1  14   28.41    1.96
  -3   1  14   25.29    1.90
  -3   1  14   25.97    1.79
  -2  -1  14    1.19    0.11
  -2  -1  14    1.48    0.11
  -2  -1  14    1.36    0.12
  -2   1  14    1.37    0.10
  -2   1  14    1.42    0.11
  -1  -1  14   14.18    0.99
  -1  -1  14   14.84    0.93
  -1  -1  14   13.76    1.02
  -1   1  14   13.55    0.92
   0  -1  14    1.72    0.14
   0  -1  14    1.87    0.13
   0  -1  14    1.72    0.13
   0   1  14    1.66    0.12
   0   1  14    1.83    0.12
   0   1  14    1.48    0.12
   0   1  14    1.86    0.13
   1  -1  14    7.18    0.54
   1  -1  14    7.99    0.49
   1  -1  14    7.61    0.52
   1   1  14    7.44    0.54
   1   1  14    7.01    0.51
   1   1  14    7.02    0.49
   2  -1  14    1.25    0.10
   2  -1  14    1.11    0.11
   2  -1  14    1.21    0.09
   2   1  14    1.16    0.09
   2   1  14    1.08    0.10
   2   1  14    1.07    0.09
   3  -1  14    1.56    0.12
   3  -1  14    1.64    0.13
   3  -1  14    1.48    0.12
   3   1  14    1.58    0.13
   3   1  14    1.62    0.12
   3   1  14    1.51    0.12
   4  -1  14    2.61    0.19
   4  -1  14    2.28    0.21
   4  -1  14    2.77    0.19
   4   1  14    2.69    0.18
   4   1  14    2.43    0.20
   4   1  14    2.52    0.19
   5  -1  14    0.76    0.09
   5  -1  14    0.87    0.08
   5  -1  14    0.94    0.09
   5   1  14    0.91    0.09
   5   1  14    0.90    0.08
   5   1  14    0.86    0.10
   6  -1  14    7.22    0.50
   6  -1  14    6.17    0.52
   6  -1  14    7.14    0.47
   6   1  14    7.36    0.47
   6   1  14    6.93    0.50
   6   1  14    6.88    0.52
   7  -1  14    0.37    0.07
   7  -1  14    0.34    0.07
   7   1  14    0.47    0.06
   7   1  14    0.41    0.08
   7   1  14    0.42    0.06
   8  -1  14   -0.08    0.06
   8  -1  14   -0.02    0.04
   8   1  14   -0.04    0.04
   8   1  14   -0.03    0.05
   8   1  14    0.01    0.05
   9  -1  14    0.10    0.05
   9  -1  14    0.08    0.04
   9   1  14    0.06    0.04
   9   1  14    0.06    0.04
  10  -1  14    0.79    0.08
  10   1  14    0.82    0.09
  10   1  14    0.82    0.09
 -11  -2  14    0.30    0.04
 -10  -2  14    0.20    0.06
 -10   2  14    0.15    0.05
  -9  -2  14    0.40    0.06
  -9   2  14    0.57    0.05
  -9   2  14    0.51    0.08
  -8  -2  14    1.66    0.14
  -8   2  14    1.46    0.14
  -8   2  14    1.56    0.11
  -7  -2  14    0.46    0.06
  -7   2  14    0.66    0.07
  -7   2  14    0.42    0.03
  -6  -2  14    0.01    0.04
  -6  -2  14    0.01    0.04
  -6   2  14    0.03    0.03
  -5  -2  14    0.25    0.05
  -5  -2  14    0.29    0.05
  -4  -2  14    0.04    0.04
  -4  -2  14    0.06    0.04
  -4  -2  14    0.04    0.04
  -4   2  14    0.03    0.03
  -3  -2  14    5.01    0.38
  -3  -2  14    4.99    0.38
  -3  -2  14    5.35    0.35
  -3  -2  14    5.09    0.36
  -3   2  14    4.84    0.34
  -3   2  14    5.24    0.37
  -2  -2  14    1.33    0.13
  -2  -2  14    1.37    0.12
  -2  -2  14    1.43    0.11
  -2  -2  14    1.52    0.11
  -2   2  14    1.51    0.11
  -2   2  14    1.52    0.10
  -1  -2  14    7.43    0.53
  -1  -2  14    7.62    0.51
  -1  -2  14    7.19    0.54
  -1  -2  14    7.32    0.48
  -1   2  14    7.28    0.52
  -1   2  14    6.53    0.47
   0  -2  14    7.85    0.51
   0  -2  14    7.65    0.56
   0  -2  14    7.87    0.54
   0  -2  14    7.28    0.57
   0   2  14    7.27    0.50
   0   2  14    8.04    0.55
   1  -2  14    6.75    0.53
   1  -2  14    7.17    0.52
   1  -2  14    6.35    0.54
   1  -2  14    7.26    0.50
   1  -2  14    7.48    0.48
   1   2  14    6.75    0.47
   1   2  14    7.92    0.51
   2  -2  14    7.20    0.50
   2  -2  14    7.09    0.53
   2  -2  14    7.45    0.48
   2  -2  14    6.82    0.53
   2  -2  14    6.06    0.54
   2   2  14    7.93    0.52
   2   2  14    7.62    0.47
  -2   2 -14    6.68    0.49
   3  -2  14    2.30    0.19
   3  -2  14    2.28    0.17
   3  -2  14    2.38    0.18
   3  -2  14    1.91    0.18
   3  -2  14    2.19    0.17
  -3   2 -14    1.86    0.17
   3   2  14    2.42    0.16
   3   2  14    2.48    0.17
   3   2  14    2.16    0.16
   4  -2  14    0.06    0.03
   4  -2  14    0.13    0.04
   4  -2  14    0.17    0.05
   4  -2  14    0.07    0.04
   4  -2  14    0.12    0.04
   4   2  14    0.03    0.04
   4   2  14    0.10    0.02
   4   2  14    0.10    0.03
  -4   2 -14    0.02    0.04
   5  -2  14    2.28    0.17
   5  -2  14    2.23    0.18
   5  -2  14    1.93    0.19
   5  -2  14    2.18    0.18
  -5   2 -14    2.13    0.17
   5   2  14    2.33    0.16
   5   2  14    2.20    0.18
   5   2  14    2.33    0.16
   6  -2  14    0.31    0.05
   6  -2  14    0.23    0.05
   6  -2  14    0.25    0.06
   6  -2  14    0.22    0.06
   6   2  14    0.27    0.06
   6   2  14    0.31    0.04
  -6   2 -14    0.23    0.04
   6   2  14    0.24    0.05
   7  -2  14    0.68    0.07
   7  -2  14    0.60    0.09
   7  -2  14    0.81    0.08
  -7   2 -14    0.72    0.08
   7   2  14    0.73    0.09
   7   2  14    0.68    0.07
   7   2  14    0.85    0.09
   8  -2  14    3.32    0.25
   8  -2  14    2.92    0.25
   8  -2  14    3.11    0.24
   8   2  14    3.04    0.25
   8   2  14    3.65    0.24
   8   2  14    3.59    0.24
   9  -2  14    0.34    0.05
   9   2  14    0.38    0.06
   9   2  14    0.34    0.05
   9   2  14    0.38    0.07
  10   2  14    0.69    0.07
  10   2  14    0.73    0.07
 -10  -3  14   -0.01    0.03
 -10   3  14   -0.03    0.05
  -9  -3  14    0.70    0.08
  -9   3  14    0.71    0.08
  -8  -3  14    0.88    0.10
  -8   3  14    0.72    0.09
  -7  -3  14    0.16    0.03
  -7  -3  14    0.13    0.06
  -7   3  14    0.17    0.04
  -6  -3  14    0.33    0.06
  -6  -3  14    0.38    0.05
  -6  -3  14    0.43    0.05
   6   3 -14    0.34    0.05
  -6   3  14    0.36    0.05
  -5  -3  14    4.15    0.31
  -5  -3  14    4.14    0.32
  -5  -3  14    4.40    0.30
  -5   3  14    4.15    0.31
   5   3 -14    4.14    0.30
  -4  -3  14    0.12    0.04
  -4  -3  14    0.18    0.04
  -4  -3  14    0.13    0.05
  -4  -3  14    0.05    0.05
   4   3 -14    0.11    0.03
  -4   3  14    0.10    0.03
   4   3 -14    0.07    0.04
  -3  -3  14    2.14    0.17
  -3  -3  14    2.03    0.18
  -3  -3  14    2.18    0.16
  -3  -3  14    2.12    0.17
   3   3 -14    1.78    0.18
  -3   3  14    2.23    0.15
   3   3 -14    1.91    0.16
  -2  -3  14    1.12    0.09
  -2  -3  14    0.94    0.11
  -2  -3  14    0.96    0.10
  -2  -3  14    1.18    0.10
  -2   3  14    0.95    0.07
   2   3 -14    1.06    0.09
   2   3 -14    0.85    0.10
  -2   3  14    1.03    0.08
  -1  -3  14   16.54    1.20
  -1  -3  14   16.12    1.17
  -1  -3  14   17.02    1.07
  -1  -3  14   15.83    1.14
  -1   3  14   15.66    1.15
   1   3 -14   17.11    1.10
   1   3 -14   15.02    1.21
   0  -3  14    1.36    0.11
   0  -3  14    1.13    0.11
   0  -3  14    1.31    0.11
   0  -3  14    1.28    0.11
   0   3 -14    1.25    0.11
   0   3  14    1.26    0.10
   1  -3  14    0.30    0.05
   1  -3  14    0.34    0.05
   1  -3  14    0.35    0.06
   1  -3  14    0.31    0.05
   1  -3  14    0.31    0.06
  -1   3 -14    0.36    0.05
   1   3  14    0.38    0.04
   1   3  14    0.31    0.03
   2  -3  14    0.02    0.04
   2  -3  14   -0.01    0.04
   2  -3  14    0.00    0.04
   2  -3  14   -0.01    0.03
  -2   3 -14    0.04    0.04
   2   3  14    0.00    0.02
   2   3  14    0.01    0.02
   3  -3  14    5.48    0.41
   3  -3  14    4.99    0.44
   3  -3  14    5.74    0.39
   3  -3  14    6.00    0.43
   3   3  14    5.69    0.38
   3   3  14    5.90    0.42
  -3   3 -14    5.98    0.40
   4  -3  14    0.73    0.08
   4  -3  14    0.61    0.09
   4  -3  14    0.62    0.08
   4  -3  14    0.74    0.07
   4   3  14    0.72    0.07
  -4   3 -14    0.66    0.08
   4   3  14    0.78    0.08
   5  -3  14    0.53    0.07
   5  -3  14    0.49    0.08
   5  -3  14    0.63    0.08
   5  -3  14    0.55    0.07
   5   3  14    0.63    0.07
   5   3  14    0.67    0.05
   5   3  14    0.54    0.08
  -5   3 -14    0.51    0.07
   6  -3  14    0.94    0.10
   6  -3  14    0.83    0.11
   6  -3  14    0.94    0.10
   6  -3  14    0.84    0.09
   6   3  14    1.07    0.09
  -6   3 -14    0.95    0.10
   6   3  14    0.83    0.10
   6   3  14    1.02    0.08
   7  -3  14    0.31    0.05
   7   3  14    0.44    0.05
   7   3  14    0.39    0.07
  -7   3 -14    0.33    0.06
   7   3  14    0.38    0.06
   8  -3  14    0.09    0.04
   8   3  14    0.08    0.05
   8   3  14    0.09    0.03
   8   3  14    0.06    0.04
  -8   3 -14    0.05    0.04
   9   3  14    0.19    0.07
   9   3  14    0.25    0.05
   9   3  14    0.35    0.04
  -9   4  14    0.16    0.04
  -8  -4  14   -0.02    0.03
   8   4 -14    0.01    0.05
  -8   4  14    0.02    0.04
  -7  -4  14    1.08    0.11
  -7  -4  14    1.21    0.10
  -7   4  14    1.20    0.10
   7   4 -14    1.15    0.10
  -6  -4  14    5.95    0.43
  -6  -4  14    5.10    0.41
  -6   4  14    5.63    0.41
  -5  -4  14    0.99    0.10
  -5  -4  14    1.03    0.11
  -5  -4  14    1.02    0.10
  -5   4  14    1.04    0.09
   5   4 -14    0.88    0.12
   5   4 -14    1.03    0.09
  -4  -4  14    6.35    0.49
  -4  -4  14    6.79    0.46
  -4  -4  14    7.83    0.52
   4   4 -14    6.22    0.52
   4   4 -14    6.96    0.48
  -4   4  14    6.66    0.49
  -3  -4  14    0.72    0.08
  -3  -4  14    0.71    0.09
  -3  -4  14    0.83    0.10
  -3   4  14    0.81    0.06
   3   4 -14    0.74    0.10
   3   4 -14    0.90    0.09
  -2  -4  14    3.74    0.25
  -2  -4  14    3.79    0.27
   2   4 -14    3.91    0.26
  -2   4  14    3.21    0.26
   2   4 -14    3.52    0.29
  -1  -4  14    1.05    0.10
  -1  -4  14    1.05    0.10
  -1  -4  14    1.23    0.11
  -1   4  14    0.87    0.07
   1   4 -14    0.90    0.10
  -1   4  14    0.81    0.07
   1   4 -14    1.03    0.09
   0  -4  14    2.54    0.18
   0  -4  14    2.11    0.17
   0  -4  14    2.12    0.17
   0   4  14    1.83    0.16
   0   4 -14    2.11    0.19
   0   4 -14    2.61    0.18
   1  -4  14    0.40    0.06
   1  -4  14    0.42    0.06
   1  -4  14    0.40    0.06
   1  -4  14    0.31    0.06
  -1   4 -14    0.44    0.05
   1   4  14    0.27    0.04
   2  -4  14    3.94    0.32
   2  -4  14    4.44    0.31
   2  -4  14    3.85    0.27
  -2   4 -14    4.32    0.29
   2   4  14    3.69    0.29
   2   4  14    3.60    0.26
   3  -4  14    0.47    0.08
   3  -4  14    0.59    0.07
   3  -4  14    0.62    0.09
   3   4  14    0.47    0.06
  -3   4 -14    0.61    0.08
   3   4  14    0.65    0.05
   4  -4  14    2.61    0.20
   4  -4  14    2.13    0.18
  -4   4 -14    2.29    0.19
   4   4  14    2.41    0.17
   4   4  14    2.62    0.19
   5  -4  14    3.32    0.26
   5   4  14    3.18    0.23
   5   4  14    3.18    0.25
  -5   4 -14    3.39    0.24
   6  -4  14    1.89    0.16
   6   4  14    1.79    0.13
   6   4  14    1.63    0.15
  -6   4 -14    1.68    0.14
   7  -4  14    0.43    0.06
   7   4  14    0.41    0.06
   7   4  14    0.43    0.06
  -7   4 -14    0.31    0.07
   8  -4  14    0.30    0.05
  -8   4 -14    0.21    0.05
   8   4  14    0.26    0.06
   8   4  14    0.39    0.05
   9   4  14    0.77    0.07
  -8  -5  14    0.06    0.03
  -8   5  14    0.10    0.03
  -7  -5  14    1.18    0.10
  -7   5  14    1.15    0.10
   7   5 -14    1.10    0.10
  -6  -5  14    0.08    0.05
   6   5 -14    0.00    0.05
  -6   5  14    0.07    0.03
  -5  -5  14    0.28    0.06
   5   5 -14    0.38    0.06
  -5   5  14    0.40    0.05
  -4  -5  14    0.90    0.11
   4   5 -14    1.01    0.09
  -4   5  14    0.90    0.08
  -3  -5  14    2.48    0.18
   3   5 -14    2.04    0.19
  -3   5  14    1.80    0.15
   3   5 -14    2.23    0.17
  -2  -5  14    0.62    0.07
  -2   5  14    0.45    0.04
   2   5 -14    0.47    0.06
   2   5 -14    0.32    0.08
  -1  -5  14    2.78    0.21
  -1   5  14    2.26    0.18
   1   5 -14    2.79    0.19
   1   5 -14    2.40    0.22
   0  -5  14    0.50    0.07
   0   5 -14    0.48    0.06
   0   5  14    0.38    0.04
   0   5 -14    0.24    0.07
   1  -5  14    2.77    0.22
  -1   5 -14    2.83    0.20
   1   5  14    2.38    0.19
   2  -5  14    2.41    0.21
   2  -5  14    2.99    0.21
   2   5  14    2.32    0.17
   2   5  14    2.49    0.19
  -2   5 -14    2.41    0.20
   3  -5  14    6.02    0.41
   3   5  14    5.27    0.39
  -3   5 -14    5.29    0.38
   3   5  14    4.75    0.35
   4  -5  14    0.75    0.10
   4   5  14    0.68    0.07
   4   5  14    0.70    0.06
  -4   5 -14    0.59    0.08
   5  -5  14    1.95    0.15
   5   5  14    1.50    0.12
   5   5  14    1.40    0.13
  -5   5 -14    1.78    0.13
   6  -5  14    1.06    0.11
   6   5  14    1.09    0.09
  -6   5 -14    0.94    0.11
   6   5  14    0.90    0.09
  -6   5 -14    1.08    0.10
   7  -5  14    0.21    0.05
   7   5  14    0.10    0.04
   7   5  14    0.06    0.04
  -7   5 -14    0.07    0.05
  -7  -6  14    0.16    0.04
   7   6 -14    0.22    0.06
  -6  -6  14    0.34    0.05
   6   6 -14    0.29    0.07
  -6   6  14    0.22    0.03
  -5  -6  14    0.05    0.05
   5   6 -14    0.07    0.05
  -5   6  14    0.02    0.02
   5   6 -14    0.01    0.07
  -4  -6  14    1.28    0.12
  -4   6  14    0.93    0.08
   4   6 -14    1.08    0.09
   4   6 -14    0.98    0.11
  -3  -6  14   -0.02    0.06
   3   6 -14   -0.01    0.07
   3   6 -14    0.02    0.05
  -3   6  14    0.02    0.02
  -2  -6  14    4.35    0.31
   2   6 -14    4.00    0.28
  -2   6  14    3.29    0.28
   2   6 -14    3.83    0.32
  -1  -6  14    1.91    0.16
   1   6 -14    1.55    0.15
  -1   6  14    1.55    0.12
   1   6 -14    1.65    0.14
   0  -6  14    9.88    0.71
   0   6  14    8.85    0.67
   0   6 -14    9.37    0.72
   1  -6  14    2.96    0.22
  -1   6 -14    2.64    0.20
   1   6  14    2.44    0.19
  -1   6 -14    2.51    0.23
   2  -6  14    8.78    0.58
  -2   6 -14    7.51    0.53
  -2   6 -14    7.32    0.58
   2   6  14    6.90    0.55
   3  -6  14    0.26    0.07
   3   6  14    0.28    0.03
   3   6  14    0.37    0.05
  -3   6 -14    0.31    0.08
  -3   6 -14    0.30    0.05
   4  -6  14    1.63    0.13
   4   6  14    1.40    0.12
  -4   6 -14    1.34    0.12
  -4   6 -14    1.37    0.15
   4   6  14    1.35    0.10
   5  -6  14    2.98    0.22
   5   6  14    2.69    0.18
   5   6  14    2.45    0.20
  -5   6 -14    2.64    0.23
   6  -6  14    1.13    0.10
   6   6  14    0.92    0.08
  -6   6 -14    0.97    0.12
  -4  -7  14    0.05    0.03
   4   7 -14    0.10    0.04
  -3  -7  14    0.74    0.09
   3   7 -14    0.54    0.08
  -2  -7  14    0.36    0.07
   2   7 -14    0.43    0.08
  -1  -7  14    1.25    0.11
   1   7 -14    1.32    0.14
   0  -7  14    0.19    0.06
   0   7 -14    0.06    0.05
   0   7  14    0.05    0.02
   1  -7  14   -0.06    0.05
  -1   7 -14   -0.02    0.06
   1   7  14    0.02    0.02
   2  -7  14    0.31    0.05
  -2   7 -14    0.32    0.06
   3  -7  14    1.40    0.12
  -3   7 -14    1.24    0.12
 -11   0  15    0.03    0.02
 -10   0  15   -0.04    0.03
 -10   0  15    0.01    0.04
  -9   0  15    0.04    0.04
  -9   0  15    0.04    0.06
  -8   0  15    0.00    0.06
  -8   0  15    0.03    0.03
  -7   0  15   -0.02    0.05
  -7   0  15    0.01    0.03
  -6   0  15    0.15    0.05
  -6   0  15    0.13    0.03
  -5   0  15    0.06    0.04
  -5   0  15    0.04    0.04
  -5   0  15    0.05    0.03
  -4   0  15   -0.04    0.04
  -4   0  15    0.05    0.03
  -4   0  15    0.01    0.02
  -3   0  15    0.44    0.05
  -3   0  15    0.36    0.04
  -2   0  15    0.06    0.04
  -2   0  15    0.05    0.02
  -2   0  15    0.04    0.02
  -1   0  15    0.04    0.02
  -1   0  15    0.01    0.03
  -1   0  15    0.04    0.02
   0   0  15    0.06    0.02
   0   0  15    0.02    0.02
   0   0  15    0.00    0.03
   1   0  15    0.09    0.02
   1   0  15    0.08    0.03
   1   0  15    0.06    0.04
   2   0  15    0.06    0.04
   2   0  15    0.08    0.03
   2   0  15    0.05    0.03
   3   0  15    0.05    0.04
   3   0  15   -0.02    0.03
   3   0  15    0.03    0.03
   4   0  15    0.06    0.05
   4   0  15    0.12    0.04
   4   0  15    0.08    0.04
   5   0  15   -0.05    0.04
   5   0  15   -0.04    0.04
   5   0  15    0.05    0.05
   6   0  15    0.04    0.05
   6   0  15    0.13    0.05
   6   0  15    0.03    0.04
   7   0  15   -0.02    0.03
   7   0  15   -0.04    0.05
   7   0  15   -0.01    0.06
   8   0  15   -0.05    0.04
   8   0  15   -0.01    0.05
   9   0  15    0.03    0.05
   9   0  15    0.06    0.05
  10   0  15    0.04    0.05
  10   0  15   -0.05    0.03
 -11  -1  15    0.01    0.04
 -10  -1  15   -0.01    0.04
 -10   1  15    0.01    0.02
 -10   1  15    0.00    0.05
  -9  -1  15    0.50    0.09
  -9  -1  15    0.73    0.08
  -9   1  15    0.52    0.05
  -9   1  15    0.56    0.08
  -8  -1  15   -0.02    0.06
  -8  -1  15   -0.02    0.04
  -8   1  15    0.04    0.02
  -8   1  15    0.05    0.05
  -7  -1  15    6.06    0.42
  -7  -1  15    5.41    0.44
  -7   1  15    6.14    0.41
  -7   1  15    5.68    0.44
  -6  -1  15    0.28    0.05
  -6  -1  15    0.36    0.05
  -6   1  15    0.18    0.06
  -6   1  15    0.20    0.03
  -5  -1  15    3.90    0.28
  -5  -1  15    3.87    0.30
  -5  -1  15    4.26    0.29
  -5   1  15    3.97    0.28
  -5   1  15    3.84    0.30
  -4  -1  15    2.00    0.15
  -4  -1  15    1.80    0.15
  -4   1  15    1.94    0.15
  -4   1  15    1.99    0.14
  -3  -1  15   23.70    1.55
  -3  -1  15   22.93    1.70
  -3  -1  15   24.50    1.65
  -3   1  15   24.36    1.69
  -3   1  15   22.32    1.54
  -2  -1  15    1.58    0.13
  -2  -1  15    1.58    0.15
  -2  -1  15    1.87    0.13
  -2   1  15    1.76    0.14
  -2   1  15    1.83    0.12
  -1  -1  15    3.12    0.23
  -1  -1  15    3.12    0.22
  -1  -1  15    2.93    0.21
  -1   1  15    3.06    0.23
  -1   1  15    2.76    0.20
   0  -1  15    9.16    0.68
   0  -1  15    9.18    0.65
   0  -1  15    9.55    0.61
   0   1  15    9.20    0.67
   0   1  15    9.15    0.61
   1  -1  15    2.35    0.17
   1  -1  15    2.41    0.16
   1  -1  15    2.30    0.18
   1   1  15    2.31    0.18
   1   1  15    1.96    0.16
   1   1  15    2.29    0.16
   1   1  15    2.23    0.16
   2  -1  15    0.51    0.07
   2  -1  15    0.52    0.07
   2  -1  15    0.49    0.06
   2   1  15    0.55    0.05
   2   1  15    0.68    0.06
   2   1  15    0.66    0.07
   3  -1  15    3.12    0.27
   3  -1  15    3.74    0.24
   3  -1  15    3.35    0.25
   3   1  15    3.25    0.26
   3   1  15    3.75    0.24
   3   1  15    3.54    0.25
   4  -1  15    0.01    0.04
   4  -1  15    0.02    0.03
   4  -1  15    0.00    0.04
   4   1  15    0.04    0.03
   4   1  15    0.01    0.04
   4   1  15    0.01    0.03
   5  -1  15    1.56    0.13
   5  -1  15    1.33    0.15
   5  -1  15    1.57    0.12
   5   1  15    1.92    0.13
   5   1  15    1.47    0.12
   5   1  15    1.54    0.14
   6  -1  15    3.35    0.31
   6  -1  15    4.10    0.29
   6  -1  15    4.25    0.28
   6   1  15    3.83    0.29
   6   1  15    3.59    0.31
   6   1  15    4.41    0.28
   7  -1  15    0.25    0.06
   7  -1  15    0.25    0.05
   7   1  15    0.25    0.06
   7   1  15    0.27    0.05
   7   1  15    0.23    0.07
   8  -1  15    0.41    0.06
   8  -1  15    0.39    0.07
   8   1  15    0.40    0.08
   8   1  15    0.42    0.07
   8   1  15    0.47    0.06
   9  -1  15    0.10    0.06
   9  -1  15    0.25    0.05
   9   1  15    0.17    0.05
   9   1  15    0.22    0.05
  10  -1  15   -0.01    0.05
  10   1  15    0.03    0.03
  10   1  15    0.03    0.04
 -11  -2  15    0.23    0.04
 -10  -2  15    1.01    0.09
 -10   2  15    1.11    0.11
  -9  -2  15    0.16    0.04
  -9   2  15    0.25    0.06
  -8  -2  15    6.63    0.46
  -8   2  15    6.24    0.48
  -7  -2  15    0.10    0.07
  -7  -2  15    0.11    0.05
  -7   2  15    0.14    0.05
  -6  -2  15    9.42    0.61
  -6  -2  15    8.21    0.66
  -6  -2  15    9.70    0.64
  -6   2  15    8.68    0.66
  -5  -2  15    6.34    0.46
  -5  -2  15    5.84    0.48
  -5  -2  15    6.96    0.44
  -5   2  15    6.39    0.47
  -4  -2  15    5.77    0.48
  -4  -2  15    6.66    0.46
  -4  -2  15    6.83    0.44
  -4   2  15    6.52    0.47
  -3  -2  15    2.58    0.18
  -3  -2  15    2.22    0.20
  -3  -2  15    2.31    0.18
  -3   2  15    2.41    0.18
  -3   2  15    2.34    0.16
  -2  -2  15    0.06    0.04
  -2  -2  15    0.02    0.03
  -2  -2  15    0.10    0.05
  -2   2  15    0.04    0.01
  -2   2  15    0.06    0.02
  -1  -2  15    0.65    0.08
  -1  -2  15    0.72    0.07
  -1  -2  15    0.65    0.07
  -1   2  15    0.63    0.06
  -1   2  15    0.51    0.05
   0  -2  15    0.06    0.03
   0  -2  15    0.11    0.03
   0  -2  15    0.10    0.05
   0   2  15    0.10    0.03
   0   2  15    0.12    0.02
   1  -2  15    0.02    0.04
   1  -2  15    0.01    0.03
   1  -2  15    0.02    0.03
   1   2  15    0.04    0.02
   1   2  15    0.03    0.02
   2  -2  15    1.64    0.16
   2  -2  15    1.69    0.13
   2  -2  15    1.82    0.14
   2   2  15    1.90    0.14
   2   2  15    1.72    0.13
   3  -2  15    1.80    0.16
   3  -2  15    1.85    0.14
   3  -2  15    1.87    0.15
   3  -2  15    1.68    0.14
   3   2  15    1.81    0.13
   3   2  15    1.83    0.14
   4  -2  15    0.31    0.06
   4  -2  15    0.32    0.06
   4  -2  15    0.40    0.06
   4  -2  15    0.35    0.04
   4   2  15    0.36    0.03
   4   2  15    0.28    0.05
   4   2  15    0.30    0.04
   5  -2  15    0.48    0.06
   5  -2  15    0.38    0.06
   5   2  15    0.36    0.06
   5   2  15    0.41    0.05
   5   2  15    0.29    0.04
   6  -2  15    2.08    0.18
   6  -2  15    2.14    0.17
   6   2  15    2.25    0.16
   6   2  15    2.32    0.17
   6   2  15    2.09    0.18
   7  -2  15    4.59    0.35
   7  -2  15    4.48    0.33
   7   2  15    4.59    0.36
   7   2  15    5.03    0.33
   7   2  15    4.85    0.34
   8  -2  15    0.51    0.07
   8  -2  15    0.56    0.08
   8   2  15    0.46    0.06
   8   2  15    0.42    0.08
   8   2  15    0.49    0.06
   9  -2  15    2.09    0.17
   9   2  15    2.17    0.16
   9   2  15    2.33    0.16
 -10  -3  15   -0.03    0.03
  -9  -3  15    1.35    0.11
  -9   3  15    1.20    0.11
  -8  -3  15    0.24    0.05
  -8   3  15    0.26    0.05
  -7  -3  15    3.66    0.27
  -7   3  15    3.37    0.27
  -6  -3  15    0.61    0.07
  -6  -3  15    0.48    0.07
  -6   3  15    0.45    0.07
  -5  -3  15    0.96    0.10
  -5  -3  15    1.18    0.10
  -5   3  15    1.17    0.10
  -4  -3  15    1.78    0.14
  -4  -3  15    1.48    0.16
  -4  -3  15    1.68    0.15
  -4  -3  15    1.87    0.14
  -4   3  15    1.80    0.13
  -3  -3  15    4.25    0.30
  -3  -3  15    4.20    0.30
  -3  -3  15    3.83    0.28
  -3  -3  15    3.74    0.31
  -3   3  15    3.98    0.29
  -2  -3  15    4.19    0.26
  -2  -3  15    3.91    0.28
  -2  -3  15    3.18    0.29
  -2  -3  15    3.55    0.27
  -2   3  15    3.50    0.27
   2   3 -15    3.82    0.27
  -1  -3  15    6.53    0.42
  -1  -3  15    6.12    0.43
  -1  -3  15    5.67    0.44
  -1  -3  15    5.98    0.39
  -1   3  15    5.17    0.41
   1   3 -15    5.45    0.40
  -1   3  15    5.45    0.41
   0  -3  15    0.04    0.03
   0  -3  15    0.02    0.04
   0  -3  15   -0.01    0.04
   0  -3  15    0.03    0.04
   0   3  15    0.03    0.02
   0   3 -15    0.05    0.04
   1  -3  15    1.24    0.14
   1  -3  15    1.49    0.12
   1  -3  15    1.39    0.12
   1  -3  15    1.20    0.12
   1  -3  15    1.54    0.12
   1   3  15    1.37    0.11
  -1   3 -15    1.44    0.11
   1   3  15    1.45    0.10
   2  -3  15    3.48    0.29
   2  -3  15    3.34    0.30
   2  -3  15    3.66    0.27
   2  -3  15    4.11    0.26
   2  -3  15    3.85    0.29
   2   3  15    3.67    0.25
  -2   3 -15    3.96    0.27
   2   3  15    3.76    0.28
   3  -3  15    0.39    0.06
   3  -3  15    0.32    0.06
   3  -3  15    0.37    0.06
   3  -3  15    0.43    0.06
  -3   3 -15    0.45    0.06
   3   3  15    0.41    0.04
   3   3  15    0.37    0.05
   4  -3  15    6.12    0.41
   4  -3  15    4.64    0.43
   4  -3  15    5.75    0.42
   4  -3  15    6.02    0.39
   4   3  15    5.75    0.38
   4   3  15    5.75    0.42
  -4   3 -15    5.28    0.39
   5  -3  15    1.80    0.15
   5  -3  15    1.88    0.15
   5  -3  15    2.02    0.16
   5   3  15    1.75    0.15
  -5   3 -15    1.71    0.15
   5   3  15    1.71    0.13
   6  -3  15    6.66    0.52
   6  -3  15    7.09    0.54
   6  -3  15    7.25    0.49
  -6   3 -15    7.17    0.51
   6   3  15    8.27    0.49
   7  -3  15    5.05    0.40
   7  -3  15    5.20    0.39
   7   3  15    5.14    0.40
  -7   3 -15    5.26    0.38
   7   3  15    5.80    0.36
   7   3  15    5.62    0.37
   8   3  15    3.91    0.27
   8   3  15    3.94    0.26
   8   3  15    3.50    0.29
   9   3  15    0.97    0.09
  -9  -4  15    0.25    0.06
  -8  -4  15    0.33    0.06
  -8   4  15    0.36    0.05
  -7  -4  15    1.86    0.16
  -7   4  15    2.21    0.16
  -6  -4  15    0.20    0.06
  -6  -4  15    0.15    0.04
  -6   4  15    0.19    0.04
   6   4 -15    0.12    0.04
  -5  -4  15    0.10    0.04
  -5  -4  15    0.05    0.04
  -5  -4  15    0.08    0.04
  -5   4  15    0.08    0.03
   5   4 -15    0.09    0.03
  -4  -4  15    1.66    0.14
  -4  -4  15    1.95    0.15
  -4  -4  15    1.89    0.15
  -4   4  15    1.78    0.13
   4   4 -15    1.47    0.14
  -3  -4  15    0.80    0.08
  -3  -4  15    0.79    0.09
  -3  -4  15    0.81    0.09
  -3   4  15    0.71    0.06
   3   4 -15    0.63    0.07
   3   4 -15    0.54    0.08
  -2  -4  15    0.84    0.09
  -2  -4  15    0.93    0.09
  -2  -4  15    0.75    0.10
   2   4 -15    0.75    0.10
   2   4 -15    0.89    0.08
  -1  -4  15    0.00    0.05
  -1  -4  15   -0.04    0.04
  -1  -4  15    0.02    0.04
   1   4 -15    0.11    0.05
   1   4 -15    0.04    0.05
   0  -4  15    0.42    0.06
   0  -4  15    0.36    0.06
   0  -4  15    0.35    0.05
   0   4 -15    0.46    0.06
   0   4 -15    0.37    0.07
   0   4  15    0.42    0.03
   1  -4  15    8.58    0.62
   1  -4  15    8.29    0.55
   1  -4  15    8.01    0.58
   1   4  15    7.90    0.59
  -1   4 -15    8.24    0.57
   2  -4  15    0.10    0.04
   2  -4  15    0.10    0.05
   2  -4  15    0.11    0.05
   2  -4  15    0.08    0.04
  -2   4 -15    0.08    0.05
   2   4  15    0.04    0.03
   2   4  15    0.08    0.02
   3  -4  15   21.52    1.47
   3  -4  15   19.00    1.30
  -3   4 -15   19.37    1.34
   3   4  15   19.33    1.42
   3   4  15   19.44    1.29
   4  -4  15    0.50    0.07
   4  -4  15    0.49    0.07
  -4   4 -15    0.47    0.06
   4   4  15    0.50    0.06
   4   4  15    0.46    0.06
   5  -4  15    5.70    0.41
   5   4  15    5.27    0.36
  -5   4 -15    5.20    0.38
   5   4  15    5.38    0.40
   6  -4  15    0.42    0.05
   6   4  15    0.37    0.05
   6   4  15    0.50    0.06
  -6   4 -15    0.29    0.06
   7  -4  15    5.17    0.38
   7   4  15    5.02    0.34
  -7   4 -15    4.94    0.36
   8   4  15    0.43    0.05
  -7   5  15    0.83    0.07
  -6  -5  15    1.55    0.13
  -6   5  15    1.58    0.12
   6   5 -15    1.48    0.13
  -5  -5  15    0.09    0.04
  -5   5  15    0.08    0.02
   5   5 -15    0.04    0.05
  -4  -5  15    0.83    0.09
   4   5 -15    0.71    0.08
  -4   5  15    0.71    0.06
  -3  -5  15    0.12    0.06
   3   5 -15    0.06    0.05
  -3   5  15    0.03    0.01
  -2  -5  15    0.18    0.05
   2   5 -15    0.22    0.06
  -1  -5  15    2.03    0.17
   1   5 -15    1.78    0.15
   0  -5  15    2.50    0.19
   0   5 -15    2.54    0.18
   0   5  15    2.13    0.16
   0   5 -15    1.85    0.19
   1  -5  15    7.92    0.55
   1   5  15    6.99    0.52
  -1   5 -15    6.74    0.50
   2  -5  15    0.60    0.07
  -2   5 -15    0.44    0.06
   2   5  15    0.44    0.05
   3  -5  15    2.27    0.17
  -3   5 -15    2.02    0.16
   3   5  15    2.00    0.15
   3   5  15    1.81    0.14
   4  -5  15    7.11    0.50
  -4   5 -15    6.74    0.46
   4   5  15    6.14    0.43
   4   5  15    6.36    0.48
   5  -5  15    2.45    0.19
   5   5  15    2.25    0.18
   5   5  15    2.26    0.16
  -5   5 -15    2.37    0.18
   6  -5  15    1.78    0.14
   6   5  15    1.52    0.13
   6   5  15    1.74    0.12
   7   5  15    1.12    0.09
  -6  -6  15    0.00    0.03
  -5  -6  15    0.16    0.04
  -4  -6  15    0.32    0.05
  -4   6  15    0.23    0.03
   4   6 -15    0.31    0.06
  -3  -6  15    0.19    0.06
   3   6 -15    0.23    0.05
  -2  -6  15    0.58    0.09
   2   6 -15    0.78    0.08
  -1  -6  15    0.98    0.10
   1   6 -15    0.84    0.09
   0  -6  15    0.02    0.05
   0   6  15    0.00    0.01
   0   6 -15    0.00    0.04
  -1   6 -15    0.80    0.09
   1   6  15    0.67    0.06
   2  -6  15    0.45    0.06
  -2   6 -15    0.33    0.08
  -2   6 -15    0.32    0.06
   2   6  15    0.22    0.03
   3  -6  15    0.08    0.04
   3   6  15    0.00    0.02
  -3   6 -15   -0.08    0.07
  -3   6 -15    0.08    0.04
   4  -6  15    1.21    0.10
  -4   6 -15    1.31    0.14
   4   6  15    1.05    0.09
   5  -6  15    0.16    0.04
  -5   6 -15    0.02    0.05
  -3  -7  15    0.04    0.04
  -2  -7  15    0.01    0.04
   2   7 -15   -0.01    0.04
  -1  -7  15    0.15    0.05
   1   7 -15    0.11    0.05
   0  -7  15    0.47    0.07
   0   7 -15    0.50    0.07
   1  -7  15    0.56    0.07
  -1   7 -15    0.55    0.08
   2  -7  15    0.24    0.04
 -10   0  16    0.50    0.05
 -10   0  16    0.44    0.07
  -9   0  16    0.02    0.06
  -9   0  16    0.09    0.03
  -8   0  16    1.54    0.15
  -8   0  16    1.67    0.12
  -7   0  16    3.91    0.28
  -7   0  16    3.99    0.31
  -6   0  16   12.40    0.91
  -6   0  16   12.66    0.88
  -5   0  16   39.30    2.47
  -5   0  16   37.33    2.63
  -5   0  16   36.55    2.71
  -4   0  16   21.61    1.44
  -4   0  16   20.55    1.36
  -4   0  16   19.73    1.49
  -3   0  16   42.50    2.66
  -3   0  16   38.70    2.83
  -2   0  16   10.47    0.72
  -2   0  16   10.67    0.75
  -2   0  16    9.84    0.68
  -1   0  16    3.89    0.28
  -1   0  16    4.16    0.31
  -1   0  16    4.18    0.29
   0   0  16   34.48    2.44
   0   0  16   34.83    2.51
   0   0  16   35.79    2.30
   1   0  16   10.67    0.82
   1   0  16   11.53    0.74
   1   0  16   11.48    0.79
   2   0  16    0.74    0.07
   2   0  16    0.95    0.08
   2   0  16    0.69    0.09
   3   0  16    3.54    0.23
   3   0  16    3.29    0.24
   3   0  16    3.14    0.26
   4   0  16    4.08    0.29
   4   0  16    4.33    0.28
   4   0  16    3.66    0.31
   5   0  16    2.25    0.17
   5   0  16    2.01    0.19
   5   0  16    2.19    0.17
   6   0  16    0.49    0.09
   6   0  16    0.89    0.09
   6   0  16    0.62    0.07
   7   0  16    0.25    0.05
   7   0  16    0.38    0.05
   7   0  16    0.31    0.06
   8   0  16    3.62    0.25
   8   0  16    3.56    0.26
   9   0  16    0.60    0.07
   9   0  16    0.65    0.08
 -10  -1  16   -0.04    0.03
 -10   1  16    0.01    0.04
  -9  -1  16    0.26    0.04
  -9   1  16    0.21    0.05
  -8  -1  16    0.74    0.09
  -8  -1  16    0.84    0.08
  -8   1  16    0.77    0.08
  -7  -1  16    0.14    0.04
  -7  -1  16    0.10    0.06
  -7   1  16    0.18    0.05
  -6  -1  16    3.73    0.27
  -6  -1  16    3.43    0.29
  -6   1  16    3.75    0.28
  -5  -1  16    0.10    0.04
  -5  -1  16    0.08    0.05
  -5   1  16    0.02    0.04
  -4  -1  16    2.87    0.20
  -4  -1  16    2.62    0.22
  -4  -1  16    2.61    0.20
  -4   1  16    2.75    0.19
  -4   1  16    2.67    0.21
  -3  -1  16    0.24    0.04
  -3  -1  16    0.14    0.04
  -3  -1  16    0.20    0.05
  -3   1  16    0.11    0.04
  -3   1  16    0.17    0.03
  -2  -1  16    6.75    0.46
  -2  -1  16    6.65    0.44
  -2  -1  16    6.17    0.49
  -2   1  16    6.39    0.43
  -2   1  16    6.68    0.48
  -1  -1  16    0.54    0.07
  -1  -1  16    0.68    0.07
  -1  -1  16    0.55    0.07
  -1   1  16    0.68    0.07
  -1   1  16    0.51    0.05
   0  -1  16    5.09    0.35
   0  -1  16    5.01    0.34
   0  -1  16    4.68    0.37
   0   1  16    4.83    0.33
   0   1  16    5.01    0.36
   1  -1  16    3.95    0.28
   1  -1  16    3.73    0.30
   1  -1  16    3.99    0.27
   1   1  16    3.70    0.26
   1   1  16    4.09    0.29
   2  -1  16    1.32    0.11
   2  -1  16    1.61    0.11
   2  -1  16    1.28    0.13
   2   1  16    1.40    0.12
   2   1  16    1.57    0.11
   2   1  16    1.31    0.10
   3  -1  16    1.82    0.13
   3  -1  16    1.48    0.14
   3  -1  16    1.52    0.12
   3   1  16    1.75    0.12
   3   1  16    1.50    0.12
   3   1  16    1.61    0.14
   4  -1  16    4.16    0.29
   4  -1  16    4.24    0.28
   4  -1  16    3.44    0.31
   4   1  16    3.91    0.28
   4   1  16    4.20    0.27
   4   1  16    3.84    0.30
   5  -1  16    0.10    0.04
   5  -1  16    0.04    0.06
   5  -1  16    0.15    0.05
   5   1  16    0.13    0.04
   5   1  16    0.10    0.03
   5   1  16    0.08    0.05
   6  -1  16    1.43    0.14
   6  -1  16    1.57    0.13
   6  -1  16    1.63    0.13
   6   1  16    1.39    0.15
   6   1  16    1.61    0.12
   6   1  16    1.71    0.13
   7  -1  16    2.30    0.16
   7  -1  16    2.22    0.17
   7   1  16    1.93    0.18
   7   1  16    2.20    0.16
   7   1  16    2.16    0.16
   8  -1  16    3.85    0.28
   8  -1  16    3.64    0.26
   8   1  16    3.78    0.27
   8   1  16    4.09    0.26
   8   1  16    3.21    0.29
   9  -1  16    0.11    0.04
   9  -1  16    0.05    0.04
   9   1  16    0.02    0.05
   9   1  16    0.11    0.03
 -10  -2  16    0.61    0.07
  -9  -2  16    0.28    0.05
  -9   2  16    0.24    0.05
  -8  -2  16    1.53    0.13
  -8   2  16    1.60    0.14
  -7  -2  16    0.39    0.06
  -7  -2  16    0.42    0.08
  -7   2  16    0.57    0.07
  -6  -2  16    1.40    0.12
  -6  -2  16    1.16    0.13
  -6  -2  16    1.50    0.13
  -6   2  16    1.56    0.12
  -5  -2  16    0.39    0.06
  -5  -2  16    0.34    0.06
  -5  -2  16    0.34    0.06
  -5   2  16    0.26    0.05
  -4  -2  16    1.70    0.13
  -4  -2  16    1.34    0.15
  -4  -2  16    1.51    0.13
  -4   2  16    1.67    0.13
  -3  -2  16    0.37    0.06
  -3  -2  16    0.45    0.08
  -3  -2  16    0.57    0.06
  -3   2  16    0.34    0.05
  -2  -2  16   22.53    1.62
  -2  -2  16   23.47    1.57
  -2  -2  16   22.84    1.48
  -2   2  16   20.95    1.47
  -1  -2  16    0.18    0.04
  -1  -2  16    0.08    0.03
  -1  -2  16    0.09    0.05
  -1   2  16    0.09    0.03
  -1   2  16    0.08    0.02
   0  -2  16   10.65    0.72
   0  -2  16   10.59    0.68
   0  -2  16    9.60    0.75
   0   2  16    9.82    0.67
   0   2  16   10.49    0.74
   1  -2  16    0.06    0.03
   1  -2  16    0.06    0.05
   1  -2  16    0.01    0.04
   1   2  16    0.07    0.03
   1   2  16    0.08    0.02
   2  -2  16    0.87    0.08
   2  -2  16    0.80    0.09
   2  -2  16    0.81    0.08
   2   2  16    0.74    0.07
   2   2  16    0.87    0.08
   3  -2  16    0.36    0.06
   3  -2  16    0.33    0.05
   3  -2  16    0.33    0.07
   3   2  16    0.36    0.04
   3   2  16    0.36    0.05
   4  -2  16    0.13    0.04
   4  -2  16    0.11    0.06
   4  -2  16    0.11    0.05
   4   2  16    0.10    0.04
   4   2  16    0.14    0.03
   5  -2  16    2.18    0.17
   5  -2  16    2.31    0.17
   5   2  16    1.95    0.18
   5   2  16    2.39    0.16
   5   2  16    2.27    0.16
   6  -2  16    0.12    0.04
   6  -2  16    0.06    0.04
   6   2  16    0.09    0.05
   6   2  16    0.07    0.03
   6   2  16    0.07    0.04
   7  -2  16    2.91    0.23
   7  -2  16    3.02    0.21
   7   2  16    2.75    0.24
   7   2  16    2.95    0.21
   7   2  16    2.99    0.21
   8  -2  16    0.75    0.10
   8  -2  16    0.79    0.08
   8   2  16    0.70    0.09
   8   2  16    0.84    0.09
   8   2  16    0.89    0.07
   9  -2  16    0.97    0.10
   9   2  16    0.88    0.07
   9   2  16    1.12    0.09
  -9  -3  16    1.14    0.10
  -9   3  16    1.24    0.11
  -8  -3  16    0.08    0.05
  -8   3  16    0.12    0.04
  -7  -3  16    0.09    0.05
  -7   3  16    0.02    0.04
  -6  -3  16    1.02    0.10
  -6   3  16    1.20    0.10
  -5  -3  16    0.31    0.05
  -5  -3  16    0.33    0.06
  -5   3  16    0.24    0.04
  -4  -3  16    0.36    0.07
  -4  -3  16    0.44    0.06
  -4  -3  16    0.42    0.06
  -4   3  16    0.38    0.05
  -3  -3  16    0.09    0.05
  -3  -3  16    0.04    0.06
  -3  -3  16    0.08    0.04
  -3   3  16    0.10    0.02
  -2  -3  16    5.80    0.39
  -2  -3  16    5.08    0.42
  -2  -3  16    5.92    0.40
  -1  -3  16    2.24    0.20
  -1  -3  16    2.60    0.19
  -1  -3  16    2.75    0.18
  -1   3  16    2.17    0.18
   0  -3  16    0.88    0.08
   0  -3  16    1.08    0.09
   0  -3  16    0.91    0.11
   0  -3  16    0.93    0.10
   0   3  16    0.95    0.07
   1  -3  16    3.68    0.27
   1  -3  16    3.87    0.25
   1  -3  16    3.21    0.28
   1  -3  16    3.56    0.27
   1   3  16    3.46    0.26
   2  -3  16    0.91    0.08
   2  -3  16    1.08    0.10
   2  -3  16    1.01    0.10
   2  -3  16    0.84    0.11
   2   3  16    0.96    0.07
   2   3  16    0.95    0.08
   3  -3  16    0.17    0.05
   3  -3  16    0.21    0.03
   3  -3  16    0.25    0.04
   3   3  16    0.27    0.03
   3   3  16    0.15    0.04
   4  -3  16    0.03    0.05
   4  -3  16   -0.03    0.04
   4  -3  16    0.04    0.02
   4   3  16    0.00    0.03
   4   3  16    0.04    0.03
   5  -3  16    2.34    0.19
   5  -3  16    2.47    0.18
   5   3  16    2.51    0.17
   5   3  16    2.11    0.18
   6  -3  16    3.20    0.24
   6  -3  16    3.23    0.24
   6   3  16    3.38    0.23
   6   3  16    3.21    0.25
   7  -3  16    0.03    0.06
   7  -3  16    0.01    0.04
   7   3  16    0.00    0.05
   7   3  16   -0.04    0.04
   8  -3  16    0.22    0.06
   8   3  16    0.20    0.04
  -8  -4  16    0.12    0.05
  -8   4  16    0.16    0.04
  -7  -4  16    0.15    0.04
  -7   4  16    0.05    0.03
  -6  -4  16    0.09    0.05
  -6   4  16    0.07    0.03
  -5  -4  16    0.20    0.06
  -5  -4  16    0.23    0.05
  -5   4  16    0.23    0.03
  -4  -4  16    0.86    0.08
  -4  -4  16    0.96    0.08
  -4  -4  16    1.00    0.10
  -4   4  16    0.77    0.07
  -3  -4  16    0.29    0.04
  -3  -4  16    0.28    0.05
  -3  -4  16    0.23    0.06
  -3   4  16    0.25    0.02
   3   4 -16    0.30    0.05
  -2  -4  16    1.57    0.13
  -2  -4  16    1.52    0.12
  -2  -4  16    1.34    0.13
   2   4 -16    1.54    0.13
  -1  -4  16    0.13    0.04
  -1  -4  16    0.19    0.05
  -1  -4  16    0.07    0.04
   1   4 -16    0.07    0.03
   0  -4  16    0.20    0.04
   0  -4  16    0.27    0.05
   0  -4  16    0.24    0.04
   0   4 -16    0.32    0.05
   0   4  16    0.20    0.02
   1  -4  16    0.32    0.05
   1  -4  16    0.27    0.04
   1  -4  16    0.21    0.06
   1   4  16    0.23    0.03
  -1   4 -16    0.30    0.05
   2  -4  16    4.44    0.32
   2  -4  16    3.97    0.30
   2  -4  16    4.14    0.29
  -2   4 -16    4.30    0.30
   2   4  16    3.93    0.30
   3  -4  16    0.05    0.04
   3  -4  16    0.07    0.05
   3  -4  16    0.01    0.05
  -3   4 -16   -0.04    0.05
   3   4  16    0.00    0.02
   3   4  16   -0.02    0.02
   4  -4  16    0.40    0.06
   4  -4  16    0.43    0.06
   4  -4  16    0.49    0.06
   4   4  16    0.41    0.05
  -4   4 -16    0.35    0.06
   4   4  16    0.52    0.06
   5  -4  16    0.06    0.03
   5   4  16    0.06    0.04
  -5   4 -16    0.07    0.04
   5   4  16    0.03    0.03
  -6   4 -16    0.09    0.04
   6   4  16    0.08    0.03
   6   4  16    0.03    0.03
   7   4  16   -0.01    0.03
   7   4  16    0.02    0.04
  -6   5  16    0.09    0.02
  -5   5  16    1.10    0.08
  -4  -5  16    0.68    0.07
   4   5 -16    0.77    0.07
  -3  -5  16    3.01    0.24
   3   5 -16    3.05    0.23
  -2  -5  16    1.55    0.13
   2   5 -16    1.44    0.13
  -1  -5  16    0.77    0.08
   1   5 -16    0.76    0.08
   0  -5  16    7.07    0.51
   0   5 -16    6.33    0.47
   1  -5  16    0.26    0.05
   1   5  16    0.24    0.03
  -1   5 -16    0.28    0.05
   2  -5  16    0.87    0.08
   2   5  16    0.69    0.07
  -2   5 -16    0.93    0.09
   3  -5  16    1.66    0.13
   3   5  16    1.43    0.12
  -3   5 -16    1.48    0.13
   4  -5  16    0.64    0.07
   4   5  16    0.55    0.05
   4   5  16    0.53    0.06
   5  -5  16    0.94    0.09
   5   5  16    0.99    0.07
   5   5  16    0.98    0.09
   6   5  16    0.33    0.04
  -4  -6  16    0.19    0.03
  -3  -6  16    0.40    0.06
   3   6 -16    0.52    0.06
  -2  -6  16    2.48    0.19
   2   6 -16    2.21    0.18
  -1  -6  16    0.42    0.05
   1   6 -16    0.29    0.05
   0  -6  16    2.08    0.17
   0   6 -16    1.95    0.15
   1  -6  16    0.50    0.06
  -1   6 -16    0.35    0.06
   2  -6  16    0.11    0.04
   2   6  16    0.08    0.02
   3  -6  16    2.64    0.21
   4  -6  16    0.42    0.05
  -9   0  17    0.01    0.04
  -9   0  17    0.02    0.02
  -8   0  17    0.00    0.02
  -8   0  17    0.02    0.05
  -7   0  17    0.01    0.02
  -7   0  17   -0.01    0.05
  -6   0  17    0.09    0.06
  -6   0  17    0.08    0.03
  -5   0  17    0.01    0.05
  -5   0  17    0.07    0.04
  -5   0  17   -0.01    0.03
  -4   0  17    0.17    0.04
  -4   0  17    0.14    0.03
  -3   0  17    0.00    0.03
  -3   0  17    0.02    0.04
  -3   0  17    0.00    0.02
  -2   0  17    0.09    0.02
  -2   0  17    0.08    0.03
  -2   0  17    0.13    0.05
  -1   0  17    0.05    0.04
  -1   0  17    0.06    0.03
  -1   0  17    0.04    0.02
   0   0  17    0.22    0.05
   0   0  17    0.37    0.04
   0   0  17    0.29    0.04
   1   0  17    0.06    0.03
   1   0  17    0.08    0.03
   1   0  17    0.06    0.04
   2   0  17    0.04    0.02
   2   0  17    0.00    0.03
   2   0  17    0.00    0.04
   3   0  17    0.03    0.04
   3   0  17    0.04    0.03
   3   0  17    0.01    0.05
   4   0  17    0.03    0.04
   4   0  17    0.07    0.03
   4   0  17    0.01    0.05
   5   0  17   -0.05    0.05
   5   0  17    0.03    0.03
   5   0  17    0.08    0.05
   6   0  17    0.02    0.04
   6   0  17   -0.01    0.03
   6   0  17    0.10    0.06
   7   0  17    0.00    0.06
   7   0  17    0.01    0.05
   7   0  17   -0.01    0.03
   8   0  17   -0.05    0.05
   8   0  17    0.04    0.04
   9   0  17    0.02    0.03
   9   0  17   -0.02    0.03
 -10  -1  17   -0.01    0.02
  -9  -1  17    1.18    0.13
  -9  -1  17    1.48    0.11
  -9   1  17    1.34    0.12
  -8  -1  17    0.02    0.03
  -8   1  17   -0.01    0.03
  -7  -1  17   -0.02    0.03
  -7   1  17    0.03    0.05
  -6  -1  17    4.18    0.32
  -6  -1  17    4.12    0.30
  -6   1  17    3.99    0.31
  -5  -1  17    3.54    0.22
  -5  -1  17    2.98    0.25
  -5  -1  17    2.80    0.22
  -5   1  17    2.80    0.23
  -4  -1  17    1.54    0.13
  -4  -1  17    1.67    0.16
  -4  -1  17    1.93    0.14
  -4   1  17    1.76    0.13
  -4   1  17    1.60    0.14
  -3  -1  17    0.67    0.10
  -3  -1  17    0.77    0.08
  -3  -1  17    0.94    0.08
  -3   1  17    0.87    0.07
  -2  -1  17    0.51    0.08
  -2  -1  17    0.70    0.07
  -2  -1  17    0.60    0.07
  -2   1  17    0.67    0.07
  -2   1  17    0.70    0.06
  -1  -1  17    8.87    0.67
  -1  -1  17    9.04    0.64
  -1  -1  17    9.45    0.61
  -1   1  17    9.41    0.67
  -1   1  17    9.01    0.61
   0  -1  17    0.46    0.07
   0  -1  17    0.49    0.06
   0  -1  17    0.60    0.07
   0   1  17    0.40    0.05
   0   1  17    0.50    0.06
   1  -1  17    1.63    0.12
   1  -1  17    1.42    0.12
   1  -1  17    1.42    0.14
   1   1  17    1.57    0.13
   1   1  17    1.59    0.11
   2  -1  17    0.69    0.07
   2  -1  17    0.60    0.08
   2  -1  17    0.82    0.08
   2   1  17    0.75    0.07
   2   1  17    0.68    0.08
   3  -1  17    4.84    0.39
   3  -1  17    5.45    0.35
   3  -1  17    5.21    0.36
   3   1  17    4.71    0.38
   3   1  17    5.01    0.36
   3   1  17    5.23    0.34
   4  -1  17    0.19    0.04
   4  -1  17    0.19    0.04
   4  -1  17    0.16    0.05
   4   1  17    0.24    0.03
   4   1  17    0.26    0.05
   4   1  17    0.19    0.04
   5  -1  17    0.07    0.04
   5  -1  17   -0.01    0.03
   5  -1  17    0.00    0.06
   5   1  17    0.04    0.05
   5   1  17    0.00    0.02
   5   1  17    0.01    0.03
   6  -1  17    0.75    0.08
   6  -1  17    0.60    0.09
   6  -1  17    0.74    0.09
   6   1  17    0.69    0.06
   6   1  17    0.67    0.09
   6   1  17    0.67    0.07
   7  -1  17    2.58    0.19
   7  -1  17    2.73    0.20
   7   1  17    2.66    0.19
   7   1  17    2.85    0.20
   7   1  17    2.35    0.21
   8  -1  17    0.06    0.05
   8  -1  17    0.08    0.04
   8   1  17    0.11    0.04
   8   1  17    0.05    0.03
   8   1  17    0.08    0.05
   9  -1  17   -0.05    0.03
   9  -1  17   -0.01    0.03
   9   1  17    0.04    0.02
   9   1  17   -0.02    0.03
 -10  -2  17    0.43    0.05
  -9  -2  17   -0.01    0.03
  -9   2  17   -0.03    0.04
  -8  -2  17    0.35    0.05
  -8   2  17    0.29    0.05
  -7  -2  17    1.45    0.11
  -7  -2  17    1.24    0.14
  -7   2  17    1.44    0.12
  -6  -2  17    0.79    0.08
  -6  -2  17    0.69    0.09
  -6   2  17    0.74    0.08
  -5  -2  17    1.78    0.13
  -5  -2  17    1.42    0.15
  -5   2  17    1.46    0.13
  -4  -2  17    4.28    0.37
  -4  -2  17    4.90    0.35
  -4  -2  17    5.09    0.33
  -4   2  17    4.75    0.35
  -3  -2  17   23.84    1.85
  -3  -2  17   27.56    1.69
  -2  -2  17    0.66    0.08
  -2  -2  17    0.63    0.07
  -2  -2  17    0.54    0.08
  -2   2  17    0.72    0.05
  -2   2  17    0.70    0.07
  -1  -2  17   11.25    0.65
  -1  -2  17   10.57    0.69
  -1  -2  17    9.16    0.72
  -1   2  17    8.75    0.64
  -1   2  17    9.23    0.70
   0  -2  17    0.10    0.04
   0  -2  17    0.15    0.04
   0  -2  17    0.18    0.04
   0   2  17    0.14    0.02
   0   2  17    0.17    0.03
   1  -2  17    9.43    0.63
   1  -2  17    9.43    0.60
   1  -2  17    8.18    0.66
   1   2  17    8.66    0.59
   1   2  17    8.83    0.65
   2  -2  17    3.97    0.25
   2  -2  17    3.37    0.28
   2  -2  17    3.57    0.26
   2   2  17    3.31    0.24
   2   2  17    3.45    0.27
   3  -2  17    0.41    0.06
   3  -2  17    0.47    0.06
   3  -2  17    0.44    0.07
   3   2  17    0.40    0.05
   3   2  17    0.42    0.06
   4  -2  17    0.06    0.05
   4  -2  17    0.07    0.06
   4  -2  17    0.13    0.04
   4   2  17    0.16    0.04
   4   2  17    0.09    0.04
   5  -2  17    5.28    0.35
   5  -2  17    5.28    0.37
   5   2  17    5.23    0.34
   5   2  17    4.40    0.38
   6  -2  17    0.17    0.06
   6  -2  17    0.27    0.05
   6   2  17    0.17    0.06
   6   2  17    0.21    0.05
   7  -2  17    0.92    0.09
   7  -2  17    0.93    0.08
   7   2  17    0.88    0.08
   7   2  17    0.83    0.10
   8  -2  17    0.06    0.04
   8  -2  17    0.04    0.03
   8   2  17    0.03    0.04
  -8   3  17    0.43    0.06
  -7  -3  17    0.14    0.04
  -7   3  17    0.13    0.04
  -6  -3  17    1.49    0.12
  -6   3  17    1.48    0.12
  -5  -3  17    0.19    0.05
  -5  -3  17    0.17    0.06
  -5   3  17    0.16    0.03
  -4  -3  17    3.99    0.25
  -4  -3  17    3.66    0.26
  -4  -3  17    3.06    0.28
  -4   3  17    3.31    0.26
  -3  -3  17    0.53    0.08
  -3  -3  17    0.53    0.06
  -3  -3  17    0.46    0.07
  -2  -3  17    5.66    0.38
  -2  -3  17    5.63    0.36
  -2   3  17    4.42    0.37
  -1  -3  17    0.59    0.08
  -1  -3  17    0.50    0.08
  -1  -3  17    0.62    0.07
  -1   3  17    0.57    0.05
   0  -3  17    1.03    0.12
   0  -3  17    1.24    0.10
   0  -3  17    1.15    0.10
   0   3  17    1.11    0.09
   1  -3  17    0.79    0.09
   1  -3  17    0.72    0.10
   1  -3  17    0.74    0.08
   1   3  17    0.62    0.06
   2  -3  17    0.83    0.09
   2  -3  17    0.64    0.07
   2   3  17    0.61    0.05
   2   3  17    0.73    0.06
   3  -3  17    1.06    0.10
   3  -3  17    1.01    0.10
   3   3  17    0.93    0.08
   3   3  17    1.10    0.09
   4  -3  17    1.10    0.09
   4  -3  17    0.97    0.10
   4   3  17    1.05    0.10
   4   3  17    1.06    0.08
   5  -3  17    2.26    0.18
   5  -3  17    2.23    0.17
   5   3  17    1.97    0.17
   5   3  17    2.27    0.16
   6  -3  17    1.49    0.13
   6  -3  17    1.62    0.12
   6   3  17    1.41    0.13
   6   3  17    1.77    0.12
   7  -3  17    0.99    0.10
   7  -3  17    1.00    0.10
   7   3  17    1.03    0.08
   8   3  17    0.02    0.03
  -8  -4  17    0.03    0.03
  -7  -4  17    0.87    0.08
  -7   4  17    0.75    0.07
  -6  -4  17    0.08    0.05
  -6   4  17    0.04    0.02
  -5  -4  17    3.10    0.22
  -5  -4  17    2.96    0.21
  -5   4  17    2.82    0.22
  -4  -4  17    0.02    0.05
  -4  -4  17    0.06    0.05
  -3  -4  17    1.91    0.16
  -3  -4  17    2.07    0.15
  -2  -4  17    0.17    0.04
  -2  -4  17    0.12    0.04
  -1  -4  17   10.47    0.67
  -1  -4  17    9.65    0.71
   0  -4  17    0.84    0.09
   0  -4  17    0.65    0.09
   1  -4  17    4.95    0.36
   1  -4  17    5.24    0.34
   1   4  17    4.69    0.36
   2  -4  17    0.23    0.06
   2  -4  17    0.35    0.05
   2   4  17    0.37    0.04
   3  -4  17    0.87    0.08
   3  -4  17    1.01    0.09
   3   4  17    0.76    0.08
   4  -4  17    0.45    0.07
   4  -4  17    0.57    0.07
   4   4  17    0.64    0.05
   4   4  17    0.55    0.07
   5  -4  17    1.50    0.12
   5   4  17    1.27    0.10
   5   4  17    1.32    0.11
   6  -4  17   -0.02    0.03
   6   4  17    0.02    0.03
   6   4  17   -0.04    0.02
   7   4  17    0.78    0.06
  -6  -5  17    0.21    0.04
  -5  -5  17    0.70    0.07
  -4  -5  17    0.21    0.05
  -3  -5  17    0.18    0.05
  -2  -5  17    1.34    0.12
   2   5 -17    1.49    0.12
  -1  -5  17    2.83    0.21
  -1  -5  17    2.84    0.21
   1   5 -17    2.71    0.20
   0  -5  17    0.12    0.03
   0   5 -17    0.03    0.03
   1  -5  17    0.07    0.03
  -1   5 -17    0.10    0.03
   2  -5  17    0.24    0.03
   2   5  17    0.26    0.03
  -2   5 -17    0.21    0.05
   3   5  17    0.41    0.04
  -3   5 -17    0.32    0.06
   4   5  17    0.03    0.03
   0  -6  17    0.18    0.03
  -5   0  18    0.09    0.05
  -4   0  18    0.61    0.09
  -4   0  18    0.78    0.07
  -3   0  18    1.69    0.15
  -3   0  18    1.87    0.13
  -2   0  18   24.13    1.82
  -2   0  18   26.46    1.66
  -1   0  18    1.41    0.10
  -1   0  18    1.45    0.13
  -1   0  18    1.24    0.10
  -1   0  18    1.31    0.10
   0   0  18    9.53    0.71
   0   0  18   10.52    0.65
   0   0  18    9.23    0.68
   1   0  18    0.05    0.04
   1   0  18    0.03    0.03
   1   0  18    0.02    0.02
   2   0  18   24.43    1.80
   2   0  18   26.22    1.75
   2   0  18   24.49    1.65
   3   0  18    3.64    0.25
   3   0  18    3.47    0.28
   3   0  18    3.50    0.25
   4   0  18    4.19    0.29
   4   0  18    3.85    0.31
   4   0  18    4.10    0.28
   5   0  18    0.14    0.03
   5   0  18    0.06    0.06
   5   0  18    0.23    0.04
   6   0  18    5.49    0.36
   6   0  18    5.24    0.37
   6   0  18    4.96    0.40
   7   0  18    6.46    0.54
   7   0  18    7.58    0.52
   7   0  18    8.02    0.50
   8   0  18    0.06    0.03
   8   0  18    0.09    0.03
  -9  -1  18    0.08    0.02
  -8  -1  18    0.05    0.06
  -8  -1  18    0.11    0.03
  -8   1  18    0.14    0.05
  -7  -1  18    0.67    0.09
  -7  -1  18    0.86    0.07
  -7   1  18    0.72    0.08
  -6  -1  18    0.23    0.07
  -6  -1  18    0.24    0.04
  -6   1  18    0.25    0.05
  -5  -1  18    0.11    0.06
  -5  -1  18    0.16    0.04
  -5  -1  18    0.17    0.05
  -5   1  18    0.17    0.05
  -4  -1  18    9.38    0.72
  -4  -1  18   10.09    0.69
  -3  -1  18    0.35    0.07
  -3  -1  18    0.35    0.05
  -3   1  18    0.35    0.05
  -2  -1  18   17.68    1.22
  -2  -1  18   16.74    1.27
  -2  -1  18   18.84    1.15
  -2   1  18   16.77    1.26
  -2   1  18   17.34    1.15
  -1  -1  18    0.53    0.07
  -1  -1  18    0.40    0.05
  -1  -1  18    0.49    0.05
  -1   1  18    0.41    0.05
  -1   1  18    0.32    0.05
   0  -1  18    2.74    0.18
   0  -1  18    2.77    0.21
   0  -1  18    2.59    0.19
   0   1  18    2.48    0.18
   0   1  18    2.45    0.20
   1  -1  18    3.21    0.21
   1  -1  18    2.67    0.24
   1  -1  18    2.81    0.21
   1   1  18    2.90    0.23
   1   1  18    3.16    0.21
   2  -1  18    5.48    0.37
   2  -1  18    5.68    0.36
   2  -1  18    4.88    0.39
   2   1  18    4.80    0.39
   2   1  18    5.10    0.35
   3  -1  18    1.61    0.12
   3  -1  18    1.72    0.13
   3  -1  18    1.47    0.15
   3   1  18    1.47    0.12
   3   1  18    1.41    0.13
   4  -1  18    3.06    0.22
   4  -1  18    3.12    0.21
   4  -1  18    2.85    0.24
   4   1  18    2.82    0.23
   4   1  18    2.87    0.21
   5  -1  18    1.54    0.15
   5  -1  18    1.66    0.13
   5  -1  18    1.83    0.14
   5   1  18    1.29    0.14
   5   1  18    1.51    0.11
   5   1  18    1.60    0.12
   6  -1  18    0.76    0.09
   6  -1  18    0.79    0.08
   6  -1  18    0.83    0.08
   6   1  18    0.73    0.08
   6   1  18    0.86    0.07
   6   1  18    0.76    0.06
   7  -1  18    0.81    0.08
   7  -1  18    0.81    0.08
   7   1  18    0.65    0.06
   7   1  18    0.63    0.08
   7   1  18    0.71    0.08
   8  -1  18    0.69    0.07
   8  -1  18    0.81    0.07
   8   1  18    0.80    0.08
  -9  -2  18    0.04    0.03
  -8  -2  18    0.18    0.04
  -8   2  18    0.18    0.04
  -7  -2  18    0.14    0.06
  -7  -2  18    0.08    0.03
  -7   2  18    0.06    0.04
  -6  -2  18    0.02    0.03
  -6  -2  18   -0.05    0.06
  -6   2  18    0.07    0.03
  -5  -2  18    0.52    0.07
  -5  -2  18    0.55    0.09
  -5  -2  18    0.61    0.07
  -5   2  18    0.63    0.07
  -4  -2  18    0.56    0.07
  -4  -2  18    0.48    0.07
  -4  -2  18    0.47    0.07
  -3  -2  18    1.17    0.10
  -3  -2  18    0.99    0.09
  -3  -2  18    0.88    0.12
  -3   2  18    0.99    0.09
  -2  -2  18    0.52    0.07
  -2  -2  18    0.73    0.08
  -2  -2  18    0.59    0.07
  -2   2  18    0.47    0.06
  -1  -2  18    1.09    0.10
  -1  -2  18    1.13    0.10
  -1  -2  18    0.97    0.12
  -1   2  18    1.02    0.07
  -1   2  18    0.99    0.09
   0  -2  18    2.73    0.19
   0  -2  18    2.43    0.21
   0  -2  18    2.85    0.19
   0   2  18    2.51    0.19
   0   2  18    2.28    0.17
   1  -2  18    1.69    0.13
   1  -2  18    1.63    0.13
   1  -2  18    1.39    0.15
   1   2  18    1.46    0.12
   1   2  18    1.47    0.11
   2  -2  18    2.67    0.20
   2  -2  18    2.34    0.22
   2  -2  18    2.76    0.19
   2   2  18    2.70    0.20
   2   2  18    2.68    0.18
   3  -2  18    0.12    0.04
   3  -2  18    0.13    0.05
   3  -2  18    0.12    0.06
   3   2  18    0.19    0.05
   3   2  18    0.21    0.03
   4  -2  18    3.80    0.26
   4  -2  18    3.65    0.24
   4  -2  18    3.06    0.27
   4   2  18    3.21    0.26
   4   2  18    3.52    0.24
   5  -2  18    0.64    0.07
   5  -2  18    0.74    0.07
   5   2  18    0.53    0.08
   5   2  18    0.69    0.06
   6  -2  18    0.87    0.08
   6  -2  18    0.88    0.08
   6   2  18    1.05    0.08
   6   2  18    0.83    0.10
   7  -2  18    0.01    0.03
   7  -2  18    0.00    0.03
   7   2  18    0.03    0.05
   7   2  18    0.05    0.04
   8   2  18    0.07    0.03
  -8  -3  18    0.09    0.04
  -7  -3  18    0.58    0.07
  -7   3  18    0.50    0.06
  -6  -3  18    0.14    0.05
  -6   3  18    0.09    0.03
  -5  -3  18    0.09    0.06
  -5  -3  18    0.08    0.03
  -5   3  18    0.03    0.03
  -4  -3  18    0.01    0.04
  -4  -3  18    0.03    0.05
  -4  -3  18    0.03    0.05
  -3  -3  18    1.38    0.10
  -3  -3  18    1.14    0.11
  -3  -3  18    1.26    0.11
  -3   3  18    0.98    0.09
  -2  -3  18    0.80    0.11
  -2  -3  18    0.93    0.09
  -2  -3  18    0.93    0.09
  -2   3  18    0.79    0.06
  -1  -3  18    0.38    0.05
  -1  -3  18    0.34    0.05
  -1  -3  18    0.20    0.07
  -1   3  18    0.30    0.03
   0  -3  18    5.90    0.48
   0  -3  18    6.58    0.45
   0  -3  18    6.97    0.43
   0   3  18    5.92    0.46
   1  -3  18    3.21    0.23
   1  -3  18    3.49    0.22
   1  -3  18    2.80    0.25
   1   3  18    2.83    0.23
   2  -3  18    0.78    0.09
   2  -3  18    0.79    0.09
   2   3  18    0.85    0.07
   3  -3  18    0.09    0.05
   3  -3  18    0.11    0.04
   3   3  18    0.14    0.03
   3   3  18    0.12    0.03
   4  -3  18    0.82    0.08
   4  -3  18    0.74    0.08
   4   3  18    0.74    0.08
   4   3  18    0.75    0.06
   5  -3  18    0.01    0.03
   5  -3  18    0.05    0.04
   5   3  18   -0.06    0.03
   5   3  18    0.01    0.02
   6  -3  18    0.58    0.06
   6  -3  18    0.55    0.07
   6   3  18    0.44    0.05
   7  -3  18    0.02    0.03
   7   3  18    0.00    0.02
  -7  -4  18   -0.02    0.03
  -6  -4  18    0.78    0.08
  -6   4  18    0.76    0.06
  -5  -4  18    1.03    0.09
  -5  -4  18    1.00    0.10
  -4  -4  18    0.37    0.06
  -4  -4  18    0.35    0.05
  -3  -4  18    0.07    0.04
  -3  -4  18    0.06    0.04
  -2  -4  18    0.13    0.05
  -2  -4  18    0.23    0.04
  -1  -4  18    0.51    0.07
  -1  -4  18    0.60    0.07
   0  -4  18   -0.01    0.05
   0  -4  18    0.00    0.03
   1  -4  18    0.62    0.08
   1  -4  18    0.45    0.06
   1   4  18    0.46    0.04
   2  -4  18    1.12    0.10
   2  -4  18    1.13    0.11
   2   4  18    0.96    0.08
   3  -4  18    1.48    0.12
   3  -4  18    1.69    0.13
   3   4  18    1.33    0.11
   4  -4  18    0.17    0.05
   4  -4  18    0.26    0.06
   4   4  18    0.24    0.04
   5   4  18    0.29    0.04
   5   4  18    0.34    0.04
  -5  -5  18    0.03    0.04
  -4  -5  18    0.28    0.04
  -3  -5  18    0.20    0.04
  -2  -5  18    0.66    0.07
  -2  -5  18    0.79    0.09
  -1  -5  18    0.57    0.07
  -1  -5  18    0.79    0.09
   0  -5  18    0.19    0.04
   1  -5  18    0.01    0.03
   2  -5  18    0.58    0.08
   3  -5  18    0.28    0.05
  -8   0  19   -0.05    0.04
  -7   0  19   -0.01    0.05
  -6   0  19    0.02    0.05
  -5   0  19    0.07    0.05
  -4   0  19   -0.03    0.05
  -4   0  19    0.04    0.04
  -3   0  19    0.01    0.04
  -3   0  19   -0.02    0.03
  -2   0  19    0.02    0.03
  -2   0  19   -0.02    0.04
  -1   0  19    0.01    0.04
  -1   0  19    0.01    0.03
   0   0  19   -0.02    0.04
   0   0  19    0.01    0.03
   1   0  19    0.09    0.05
   1   0  19    0.02    0.03
   2   0  19   -0.01    0.05
   2   0  19   -0.01    0.02
   2   0  19    0.03    0.04
   2   0  19    0.02    0.02
   3   0  19    0.06    0.04
   3   0  19   -0.01    0.05
   3   0  19    0.03    0.02
   4   0  19    0.06    0.04
   4   0  19   -0.02    0.02
   4   0  19    0.01    0.05
   5   0  19    0.01    0.02
   5   0  19    0.05    0.05
   5   0  19    0.00    0.04
   6   0  19   -0.02    0.04
   6   0  19    0.03    0.03
   6   0  19   -0.03    0.04
   7   0  19    0.04    0.05
   7   0  19    0.02    0.02
  -7  -1  19    0.05    0.02
  -7  -1  19    0.00    0.05
  -6  -1  19    0.05    0.04
  -6  -1  19    0.03    0.02
  -5  -1  19    0.36    0.04
  -5  -1  19    0.42    0.06
  -5  -1  19    0.27    0.07
  -5   1  19    0.30    0.05
  -4  -1  19    0.02    0.03
  -4  -1  19    0.06    0.06
  -4  -1  19    0.04    0.02
  -4   1  19   -0.02    0.04
  -3  -1  19    0.23    0.03
  -3  -1  19    0.23    0.04
  -3  -1  19    0.14    0.06
  -3   1  19    0.16    0.04
  -3   1  19    0.18    0.03
  -2  -1  19   -0.02    0.05
  -2  -1  19    0.01    0.02
  -2  -1  19    0.05    0.04
  -2   1  19   -0.01    0.03
  -2   1  19    0.01    0.03
  -1  -1  19    1.09    0.12
  -1  -1  19    1.22    0.10
  -1  -1  19    1.27    0.10
  -1   1  19    1.17    0.11
  -1   1  19    1.16    0.09
   0  -1  19    0.40    0.07
   0  -1  19    0.42    0.05
   0  -1  19    0.36    0.05
   0   1  19    0.43    0.06
   0   1  19    0.40    0.05
   1  -1  19    4.46    0.34
   1  -1  19    4.73    0.31
   1  -1  19    4.42    0.32
   1   1  19    4.34    0.33
   1   1  19    4.45    0.30
   2  -1  19    0.55    0.06
   2  -1  19    0.63    0.06
   2  -1  19    0.54    0.07
   2   1  19    0.51    0.06
   2   1  19    0.55    0.07
   3  -1  19    0.69    0.07
   3  -1  19    0.66    0.06
   3  -1  19    0.61    0.09
   3   1  19    0.51    0.08
   3   1  19    0.68    0.07
   4  -1  19    1.52    0.13
   4  -1  19    1.98    0.14
   4  -1  19    1.51    0.15
   4   1  19    1.49    0.14
   4   1  19    1.77    0.13
   5  -1  19    0.86    0.09
   5  -1  19    0.83    0.08
   5  -1  19    0.74    0.09
   5   1  19    1.03    0.08
   5   1  19    0.78    0.09
   6  -1  19    0.18    0.05
   6  -1  19    0.32    0.04
   6  -1  19    0.31    0.06
   6   1  19    0.26    0.06
   6   1  19    0.38    0.05
   7  -1  19    0.99    0.09
   7  -1  19    0.83    0.08
   7   1  19    0.94    0.08
  -8  -2  19    0.04    0.02
  -7  -2  19    1.19    0.09
  -7  -2  19    1.09    0.11
  -6  -2  19    0.81    0.08
  -6  -2  19    0.79    0.11
  -5  -2  19    4.00    0.27
  -5  -2  19    3.78    0.26
  -5   2  19    3.25    0.27
  -4  -2  19    0.50    0.06
  -4  -2  19    0.45    0.08
  -4  -2  19    0.54    0.07
  -4   2  19    0.41    0.06
  -3  -2  19    0.50    0.06
  -3  -2  19    0.44    0.08
  -3  -2  19    0.59    0.07
  -3   2  19    0.40    0.05
  -2  -2  19    0.18    0.04
  -2  -2  19    0.20    0.04
  -2  -2  19    0.15    0.06
  -2   2  19    0.12    0.03
  -1  -2  19    0.59    0.08
  -1  -2  19    0.63    0.07
  -1  -2  19    0.58    0.07
  -1   2  19    0.54    0.06
   0  -2  19    0.09    0.04
   0  -2  19    0.12    0.06
   0  -2  19    0.10    0.03
   0   2  19    0.07    0.02
   1  -2  19    0.73    0.07
   1  -2  19    0.85    0.08
   1  -2  19    0.68    0.10
   1   2  19    0.66    0.07
   1   2  19    0.76    0.06
   2  -2  19    0.01    0.06
   2  -2  19    0.01    0.04
   2  -2  19    0.03    0.03
   2   2  19    0.02    0.02
   2   2  19    0.03    0.03
   3  -2  19    1.82    0.14
   3  -2  19    1.89    0.14
   3  -2  19    1.65    0.16
   3   2  19    1.71    0.13
   3   2  19    1.87    0.15
   4  -2  19    2.32    0.16
   4  -2  19    2.31    0.17
   4  -2  19    2.04    0.19
   4   2  19    1.84    0.17
   4   2  19    2.16    0.15
   5  -2  19    0.01    0.03
   5  -2  19    0.02    0.03
   5   2  19   -0.05    0.04
   5   2  19    0.01    0.02
   6  -2  19    0.94    0.09
   6  -2  19    1.16    0.09
   6   2  19    0.91    0.10
   6   2  19    1.19    0.09
   7  -2  19    0.05    0.03
   7  -2  19    0.03    0.03
   7   2  19    0.02    0.02
  -7  -3  19    0.47    0.05
  -6  -3  19    0.04    0.03
  -5  -3  19    1.83    0.14
  -5  -3  19    2.21    0.15
  -5   3  19    1.63    0.14
  -4  -3  19    0.06    0.04
  -4  -3  19    0.04    0.05
  -4  -3  19    0.06    0.05
  -4   3  19    0.05    0.02
  -3  -3  19    3.25    0.22
  -3  -3  19    3.49    0.21
  -3  -3  19    2.59    0.23
  -3   3  19    2.52    0.21
  -2  -3  19    0.00    0.05
  -2  -3  19    0.00    0.04
  -2  -3  19    0.09    0.06
  -1  -3  19    3.22    0.21
  -1  -3  19    2.62    0.22
  -1  -3  19    3.01    0.21
  -1   3  19    2.51    0.20
   0  -3  19    1.45    0.11
   0  -3  19    1.57    0.11
   0  -3  19    1.35    0.13
   0   3  19    1.34    0.11
   1  -3  19    0.20    0.05
   1  -3  19    0.27    0.05
   1   3  19    0.19    0.03
   2  -3  19    0.13    0.05
   2  -3  19    0.18    0.04
   2   3  19    0.15    0.03
   3  -3  19    4.73    0.34
   3  -3  19    4.91    0.32
   3   3  19    4.45    0.35
   4  -3  19    0.30    0.06
   4  -3  19    0.32    0.05
   4   3  19    0.29    0.03
   4   3  19    0.27    0.04
   5  -3  19    1.42    0.11
   5  -3  19    1.47    0.11
   5   3  19    1.29    0.10
   5   3  19    1.20    0.11
   6  -3  19    0.56    0.06
   6  -3  19    0.54    0.06
   6   3  19    0.55    0.05
  -6  -4  19    0.08    0.03
  -5  -4  19    0.53    0.07
  -4  -4  19    0.01    0.03
  -4  -4  19    0.08    0.05
  -3  -4  19    1.26    0.11
  -3  -4  19    1.27    0.11
  -2  -4  19    0.01    0.05
  -2  -4  19    0.02    0.05
  -1  -4  19    3.71    0.25
  -1  -4  19    3.44    0.26
   0  -4  19    0.02    0.03
   0  -4  19    0.04    0.03
   1  -4  19    1.11    0.10
   1  -4  19    1.27    0.10
   2  -4  19    2.78    0.19
   2  -4  19    2.53    0.19
   2   4  19    2.54    0.19
   3  -4  19    0.08    0.04
   3  -4  19    0.16    0.04
   3   4  19    0.07    0.02
   4  -4  19    2.47    0.19
   4  -4  19    2.62    0.18
   5  -4  19    0.14    0.04
  -4  -5  19    0.43    0.05
  -3  -5  19    0.08    0.03
  -2  -5  19    0.60    0.07
  -2  -5  19    0.68    0.07
  -1  -5  19    0.12    0.05
   0  -5  19    0.21    0.04
   1  -5  19    0.49    0.06
   2  -5  19    0.29    0.05
  -7   0  20    1.60    0.14
  -6   0  20    0.04    0.04
  -5   0  20    1.36    0.13
  -4   0  20   10.15    0.82
  -4   0  20   12.52    0.75
  -3   0  20    4.93    0.33
  -3   0  20    4.94    0.37
  -2   0  20    2.54    0.22
  -2   0  20    3.00    0.20
  -1   0  20    4.41    0.33
  -1   0  20    4.40    0.30
   0   0  20    3.83    0.30
   0   0  20    4.06    0.27
   1   0  20    2.85    0.20
   1   0  20    2.76    0.22
   2   0  20    3.31    0.28
   2   0  20    3.84    0.25
   3   0  20    0.56    0.06
   3   0  20    0.43    0.07
   4   0  20    0.62    0.09
   4   0  20    0.76    0.08
   5   0  20    0.75    0.08
   6   0  20    1.48    0.11
  -7  -1  20    0.20    0.06
  -7   1  20    0.23    0.05
  -6  -1  20    0.36    0.07
  -6   1  20    0.22    0.05
  -5  -1  20    0.18    0.05
  -5   1  20    0.18    0.04
  -4  -1  20    0.07    0.04
  -4  -1  20    0.03    0.04
  -4   1  20    0.02    0.03
  -3  -1  20    0.07    0.02
  -3  -1  20    0.06    0.04
  -3  -1  20    0.08    0.05
  -3   1  20    0.10    0.04
  -2  -1  20    0.21    0.03
  -2  -1  20    0.33    0.05
  -2  -1  20    0.19    0.06
  -2   1  20    0.24    0.03
  -2   1  20    0.15    0.04
  -1  -1  20    0.75    0.09
  -1  -1  20    0.93    0.07
  -1  -1  20    0.83    0.07
  -1   1  20    0.81    0.07
  -1   1  20    0.80    0.08
   0  -1  20    0.90    0.07
   0  -1  20    0.90    0.11
   0  -1  20    1.05    0.09
   0   1  20    0.93    0.09
   0   1  20    0.97    0.07
   1  -1  20    1.21    0.09
   1  -1  20    1.03    0.11
   1  -1  20    1.11    0.08
   1   1  20    0.89    0.09
   1   1  20    0.84    0.08
   2  -1  20    0.07    0.03
   2  -1  20    0.11    0.04
   2  -1  20    0.07    0.04
   2   1  20    0.05    0.04
   2   1  20    0.05    0.03
   3  -1  20    0.07    0.04
   3  -1  20    0.07    0.03
   3  -1  20    0.07    0.04
   3   1  20    0.12    0.03
   3   1  20    0.08    0.04
   4  -1  20    2.80    0.24
   4  -1  20    2.95    0.22
   4  -1  20    3.33    0.22
   4   1  20    3.01    0.24
   4   1  20    3.19    0.21
   5  -1  20    2.57    0.17
   5  -1  20    2.21    0.20
   5  -1  20    2.31    0.17
   5   1  20    2.82    0.17
   5   1  20    2.12    0.19
   6  -1  20    0.27    0.04
   6  -1  20    0.22    0.03
   6   1  20    0.28    0.04
  -7  -2  20    0.01    0.02
  -6  -2  20    1.02    0.08
  -6  -2  20    0.84    0.10
  -6   2  20    0.96    0.08
  -5  -2  20    0.03    0.03
  -5  -2  20    0.06    0.04
  -5  -2  20    0.10    0.03
  -5   2  20    0.07    0.03
  -4  -2  20   -0.03    0.06
  -4  -2  20    0.01    0.05
  -4  -2  20    0.00    0.03
  -4   2  20    0.01    0.03
  -3  -2  20    0.69    0.08
  -3  -2  20    0.52    0.08
  -3  -2  20    0.52    0.06
  -3   2  20    0.59    0.05
  -2  -2  20    0.10    0.06
  -2  -2  20    0.09    0.05
  -2  -2  20    0.08    0.03
  -2   2  20    0.07    0.03
  -1  -2  20    1.87    0.14
  -1  -2  20    1.91    0.14
  -1  -2  20    1.71    0.16
  -1   2  20    1.68    0.14
   0  -2  20    0.81    0.08
   0  -2  20    0.90    0.08
   0  -2  20    0.75    0.10
   0   2  20    0.81    0.07
   1  -2  20    1.03    0.12
   1  -2  20    1.16    0.10
   1  -2  20    1.18    0.09
   1   2  20    1.07    0.09
   2  -2  20    0.07    0.04
   2  -2  20    0.05    0.03
   2  -2  20    0.06    0.03
   2   2  20    0.07    0.03
   2   2  20    0.05    0.02
   3  -2  20    0.05    0.04
   3  -2  20    0.06    0.03
   3  -2  20    0.07    0.04
   3   2  20    0.04    0.02
   3   2  20    0.08    0.03
   4  -2  20    0.51    0.06
   4  -2  20    0.43    0.07
   4  -2  20    0.47    0.06
   4   2  20    0.52    0.05
   4   2  20    0.45    0.06
   5  -2  20    0.11    0.05
   5  -2  20    0.13    0.04
   5   2  20    0.18    0.03
   5   2  20    0.16    0.04
   6  -2  20    0.40    0.05
   6  -2  20    0.39    0.04
   6   2  20    0.38    0.04
  -6  -3  20    0.16    0.03
  -5  -3  20    0.05    0.03
  -4  -3  20    0.63    0.06
  -4  -3  20    0.42    0.05
  -3  -3  20    0.63    0.09
  -3  -3  20    0.86    0.08
  -3  -3  20    0.96    0.09
  -2  -3  20    0.06    0.05
  -2  -3  20   -0.01    0.06
  -2  -3  20    0.04    0.03
  -1  -3  20    0.14    0.05
  -1  -3  20    0.07    0.04
  -1  -3  20    0.09    0.04
   0  -3  20    0.01    0.04
   0  -3  20    0.03    0.04
   0  -3  20   -0.04    0.04
   0   3  20    0.04    0.01
   1  -3  20    0.01    0.03
   1  -3  20    0.05    0.03
   1   3  20    0.04    0.02
   2  -3  20    0.38    0.05
   2  -3  20    0.27    0.04
   2   3  20    0.25    0.04
   3  -3  20    0.49    0.05
   3  -3  20    0.55    0.06
   3   3  20    0.47    0.05
   4  -3  20    0.01    0.03
   4  -3  20    0.00    0.04
   4   3  20    0.03    0.03
   5  -3  20    0.02    0.02
   5  -3  20    0.03    0.03
  -5  -4  20    0.06    0.03
  -4  -4  20    0.16    0.03
  -4  -4  20    0.15    0.04
  -3  -4  20    0.20    0.04
  -3  -4  20    0.35    0.05
  -2  -4  20    0.02    0.03
  -2  -4  20    0.01    0.03
  -1  -4  20    0.04    0.03
  -1  -4  20    0.05    0.04
   0  -4  20    1.33    0.11
   0  -4  20    1.59    0.12
   1  -4  20    0.07    0.05
   1  -4  20    0.01    0.03
   2  -4  20    0.34    0.05
   2  -4  20    0.30    0.04
   3  -4  20    0.13    0.03
   3  -4  20    0.14    0.03
  -6   0  21    0.02    0.03
  -5   0  21    0.06    0.04
  -4   0  21    0.02    0.04
  -3   0  21    0.01    0.04
  -3   0  21    0.04    0.02
  -2   0  21    0.05    0.03
  -2   0  21    0.05    0.04
  -1   0  21    0.06    0.05
  -1   0  21    0.06    0.03
   0   0  21    0.00    0.04
   0   0  21    0.02    0.02
   1   0  21    0.03    0.03
   1   0  21    0.08    0.05
   2   0  21   -0.03    0.04
   2   0  21   -0.01    0.02
   3   0  21    0.05    0.03
   3   0  21   -0.01    0.03
   4   0  21    0.01    0.02
   4   0  21    0.00    0.03
   5   0  21    0.00    0.02
  -6  -1  21    0.12    0.04
  -6   1  21    0.07    0.03
  -5  -1  21    1.37    0.12
  -5   1  21    1.34    0.11
  -4  -1  21   -0.01    0.04
  -4  -1  21    0.00    0.03
  -4   1  21    0.00    0.03
  -3  -1  21    1.22    0.10
  -3  -1  21    1.11    0.11
  -3   1  21    1.01    0.10
  -2  -1  21    0.75    0.07
  -2  -1  21    0.68    0.09
  -2   1  21    0.54    0.07
  -2   1  21    0.62    0.05
  -1  -1  21    0.24    0.04
  -1  -1  21    0.19    0.06
  -1   1  21    0.25    0.03
  -1   1  21    0.22    0.04
   0  -1  21    0.20    0.03
   0  -1  21    0.18    0.06
   0   1  21    0.13    0.04
   0   1  21    0.16    0.03
   1  -1  21    0.00    0.03
   1  -1  21    0.05    0.04
   1   1  21    0.00    0.02
   1   1  21    0.01    0.03
   2  -1  21    0.08    0.04
   2  -1  21    0.01    0.04
   2   1  21    0.05    0.02
   2   1  21    0.01    0.03
   3  -1  21    0.03    0.03
   3  -1  21    0.03    0.04
   3   1  21    0.03    0.03
   3   1  21    0.09    0.03
   4  -1  21    0.14    0.04
   4  -1  21    0.26    0.04
   4   1  21    0.26    0.03
   4   1  21    0.27    0.04
   5  -1  21   -0.01    0.03
   5   1  21    0.00    0.03
  -5  -2  21    0.06    0.04
  -5   2  21    0.06    0.02
  -4  -2  21    0.02    0.03
  -4  -2  21    0.00    0.02
  -4  -2  21    0.04    0.05
  -4   2  21    0.02    0.02
  -3  -2  21    0.83    0.07
  -3  -2  21    0.70    0.06
  -3  -2  21    0.75    0.10
  -3   2  21    0.71    0.06
  -2  -2  21    1.76    0.15
  -2  -2  21    1.87    0.13
  -2   2  21    1.76    0.14
  -1  -2  21    0.10    0.03
  -1  -2  21    0.04    0.06
  -1  -2  21    0.08    0.04
  -1   2  21    0.12    0.02
   0  -2  21    0.01    0.02
   0  -2  21    0.00    0.03
   0  -2  21   -0.01    0.04
   0   2  21    0.00    0.02
   1  -2  21    0.93    0.11
   1  -2  21    0.98    0.08
   1  -2  21    1.10    0.09
   1   2  21    0.90    0.08
   2  -2  21    1.16    0.11
   2  -2  21    1.28    0.09
   2  -2  21    1.27    0.10
   2   2  21    1.12    0.10
   3  -2  21    0.06    0.04
   3  -2  21    0.11    0.03
   3  -2  21    0.09    0.04
   3   2  21    0.11    0.03
   3   2  21    0.12    0.02
   4  -2  21    0.95    0.09
   4  -2  21    0.96    0.07
   4   2  21    0.85    0.07
   5  -2  21    0.20    0.04
   5  -2  21    0.19    0.03
  -5  -3  21    0.27    0.03
  -4  -3  21    0.68    0.08
  -4  -3  21    0.61    0.06
  -3  -3  21    1.06    0.09
  -3  -3  21    1.25    0.10
  -2  -3  21    0.32    0.04
  -1  -3  21    0.42    0.05
  -1  -3  21    0.32    0.04
   0  -3  21    0.26    0.05
   0  -3  21    0.13    0.03
   1  -3  21    0.46    0.06
   1  -3  21    0.56    0.06
   2  -3  21    0.07    0.02
   2  -3  21    0.14    0.04
   3  -3  21    0.96    0.08
   3  -3  21    1.04    0.08
   4  -3  21    0.05    0.03
   4  -3  21    0.07    0.03
  -3  -4  21    0.16    0.03
  -2  -4  21    1.09    0.10
  -2  -4  21    0.98    0.09
  -1  -4  21    0.23    0.04
  -1  -4  21    0.11    0.03
   0  -4  21    0.82    0.08
   0  -4  21    0.68    0.06
   1  -4  21    1.08    0.09
   1  -4  21    1.29    0.10
  -4   0  22    2.22    0.18
  -3   0  22    0.11    0.04
  -2   0  22    1.01    0.08
  -2   0  22    0.89    0.09
  -1   0  22    2.38    0.16
  -1   0  22    2.08    0.18
   0   0  22    1.10    0.11
   0   0  22    1.21    0.09
   1   0  22    1.57    0.11
   1   0  22    1.40    0.13
   2   0  22    0.19    0.03
   2   0  22    0.17    0.05
   3   0  22    5.37    0.31
   3   0  22    3.88    0.35
   4   0  22    0.13    0.03
  -4  -1  22   -0.02    0.03
  -4   1  22    0.01    0.03
  -3  -1  22    2.56    0.17
  -3  -1  22    2.23    0.19
  -3   1  22    2.30    0.18
  -2  -1  22    0.21    0.03
  -2  -1  22    0.22    0.05
  -2   1  22    0.19    0.04
  -1  -1  22    3.15    0.21
  -1  -1  22    3.07    0.24
  -1   1  22    2.85    0.23
   0  -1  22    0.02    0.03
   0  -1  22    0.11    0.04
   0   1  22    0.04    0.03
   0   1  22    0.05    0.02
   1  -1  22    0.48    0.06
   1  -1  22    0.43    0.06
   1   1  22    0.36    0.04
   1   1  22    0.44    0.05
   2  -1  22    1.87    0.12
   2  -1  22    1.59    0.15
   2   1  22    1.59    0.14
   2   1  22    1.66    0.12
   3  -1  22    0.78    0.07
   3   1  22    0.72    0.06
   4  -1  22    1.13    0.09
   4   1  22    1.16    0.09
  -4  -2  22    0.19    0.04
  -3  -2  22    0.31    0.05
  -2  -2  22    0.75    0.07
  -2  -2  22    0.83    0.10
  -1  -2  22   -0.04    0.05
  -1  -2  22    0.09    0.04
  -1   2  22    0.06    0.02
   0  -2  22    0.69    0.09
   0  -2  22    0.75    0.07
   0   2  22    0.62    0.06
   1  -2  22    0.36    0.04
   1   2  22    0.27    0.04
   2  -2  22    0.29    0.04
   3  -2  22    1.52    0.11
  -3  -3  22    0.02    0.03
  -2  -3  22   -0.01    0.02
  -2  -3  22    0.03    0.03
  -1  -3  22    0.12    0.02
  -1  -3  22    0.09    0.03
   0  -3  22    0.03    0.02
   0  -3  22   -0.02    0.04
   1  -3  22    0.01    0.04
   1  -3  22    0.05    0.02
   2  -3  22    0.17    0.04
  -2   0  23    0.02    0.02
  -1   0  23    0.02    0.03
  -1   0  23   -0.01    0.02
   0   0  23    0.00    0.02
   1   0  23    0.01    0.02
   2   0  23   -0.01    0.02
  -3  -1  23    0.15    0.03
  -2  -1  23    0.08    0.02
  -1  -1  23    0.01    0.02
   0  -1  23    0.00    0.02
   1  -1  23    0.08    0.02
   2  -1  23    0.06    0.03
  -3  -2  23    0.45    0.05
  -2  -2  23    0.46    0.06
  -1  -2  23    1.01    0.08
   0  -2  23    0.60    0.06
   1  -2  23    0.52    0.05
   0   0   0    0.00    0.00
;
_shelx_hkl_checksum              7954
#END Tags that were not found in dictionaries
loop_
_space_group_symop_operation_xyz
'x, y, z'
'-x, y+1/2, -z+1/2'
'-x, -y, -z'
'x, -y-1/2, z-1/2'
loop_
_atom_site_label
_atom_site_type_symbol
_atom_site_fract_x
_atom_site_fract_y
_atom_site_fract_z
_atom_site_U_iso_or_equiv
_atom_site_adp_type
_atom_site_occupancy
_atom_site_site_symmetry_order
_atom_site_calc_flag
_atom_site_refinement_flags_posn
_atom_site_refinement_flags_adp
S1 S 0.73479(4) 0.32795(6) 0.17590(2) 0.0704(2) Uani 1 1 d . .
O2 O 0.84638(13) 0.3192(2) 0.19329(8) 0.0995(6) Uani 1 1 d . .
N1 N 0.70092(12) 0.54891(19) -0.02336(7) 0.0610(4) Uani 1 1 d . .
O4 O 0.66822(15) 0.42779(19) 0.21225(8) 0.0973(5) Uani 1 1 d . .
O1 O 0.53642(12) 0.6064(2) -0.06478(10) 0.1057(6) Uani 1 1 d . .
O3 O 0.99691(13) 0.3489(2) -0.08136(8) 0.1003(6) Uani 1 1 d . .
C2 C 0.71673(15) 0.3879(2) 0.09733(9) 0.0621(5) Uani 1 1 d . .
H2 H 0.6491 0.4178 0.0812 0.074 Uiso 1 1 calc R U
C3 C 0.68467(16) 0.1308(2) 0.17782(9) 0.0615(5) Uani 1 1 d . .
C4 C 0.79001(14) 0.4393(2) -0.00796(9) 0.0592(5) Uani 1 1 d . .
H4 H 0.8558 0.4971 -0.0158 0.071 Uiso 1 1 calc R U
C5 C 0.79672(15) 0.3916(2) 0.06042(9) 0.0617(5) Uani 1 1 d . .
H5 H 0.8634 0.3622 0.0782 0.074 Uiso 1 1 calc R U
C6 C 0.78857(16) 0.7920(2) -0.05957(8) 0.0614(5) Uani 1 1 d . .
C7 C 0.72362(17) 0.7176(2) -0.00994(10) 0.0700(5) Uani 1 1 d . .
H7A H 0.7622 0.7267 0.0310 0.084 Uiso 1 1 calc R U
H7B H 0.6570 0.7757 -0.0080 0.084 Uiso 1 1 calc R U
C8 C 0.78567(16) 0.2911(2) -0.05075(10) 0.0677(5) Uani 1 1 d . .
H8 H 0.8381 0.2133 -0.0333 0.081 Uiso 1 1 calc R U
C9 C 0.7475(2) 0.8092(3) -0.12104(10) 0.0817(6) Uani 1 1 d . .
H9 H 0.6781 0.7762 -0.1321 0.098 Uiso 1 1 calc R U
C10 C 0.60648(17) 0.5066(3) -0.05246(11) 0.0773(6) Uani 1 1 d . .
C11 C 0.8094(3) 0.8756(3) -0.16645(11) 0.1011(9) Uani 1 1 d . .
H11 H 0.7814 0.8866 -0.2078 0.121 Uiso 1 1 calc R U
C12 C 0.93111(18) 0.3633(3) -0.12438(10) 0.0731(6) Uani 1 1 d . .
C13 C 0.81478(17) 0.3337(3) -0.11743(10) 0.0720(6) Uani 1 1 d . .
H13A H 0.7917 0.2471 -0.1456 0.086 Uiso 1 1 calc R U
H13B H 0.7754 0.4291 -0.1309 0.086 Uiso 1 1 calc R U
C14 C 0.9614(2) 0.4152(5) -0.18799(12) 0.1178(11) Uani 1 1 d . .
H14A H 1.0373 0.4302 -0.1873 0.177 Uiso 1 1 calc R U
H14B H 0.9262 0.5144 -0.1991 0.177 Uiso 1 1 calc R U
H14C H 0.9403 0.3346 -0.2186 0.177 Uiso 1 1 calc R U
C15 C 0.89214(19) 0.8422(3) -0.04557(11) 0.0774(6) Uani 1 1 d . .
H15 H 0.9218 0.8314 -0.0045 0.093 Uiso 1 1 calc R U
C16 C 0.58002(19) 0.1059(3) 0.18972(13) 0.0888(7) Uani 1 1 d . .
H16 H 0.5344 0.1921 0.1949 0.107 Uiso 1 1 calc R U
C17 C 0.67536(19) 0.2164(3) -0.04909(13) 0.0872(7) Uani 1 1 d . .
H17A H 0.6714 0.1217 -0.0757 0.105 Uiso 1 1 calc R U
H17B H 0.6632 0.1835 -0.0062 0.105 Uiso 1 1 calc R U
C18 C 0.75118(19) 0.0032(3) 0.16893(11) 0.0839(6) Uani 1 1 d . .
H18 H 0.8217 0.0210 0.1598 0.101 Uiso 1 1 calc R U
C19 C 0.58999(19) 0.3346(3) -0.07189(14) 0.0965(8) Uani 1 1 d . .
H19A H 0.5835 0.3304 -0.1177 0.116 Uiso 1 1 calc R U
H19B H 0.5226 0.2989 -0.0568 0.116 Uiso 1 1 calc R U
C20 C 0.7136(3) -0.1509(3) 0.17359(13) 0.0966(8) Uani 1 1 d . .
H20 H 0.7586 -0.2375 0.1677 0.116 Uiso 1 1 calc R U
C21 C 0.9105(3) 0.9245(3) -0.15071(14) 0.1015(8) Uani 1 1 d . .
H21 H 0.9513 0.9699 -0.1812 0.122 Uiso 1 1 calc R U
C33 C 0.6105(3) -0.1760(3) 0.18685(14) 0.1032(9) Uani 1 1 d . .
H33 H 0.5857 -0.2803 0.1911 0.124 Uiso 1 1 calc R U
C1 C 0.9520(2) 0.9074(3) -0.09100(14) 0.0945(7) Uani 1 1 d . .
H1 H 1.0217 0.9401 -0.0805 0.113 Uiso 1 1 calc R U
C22 C 0.5433(2) -0.0515(4) 0.19397(16) 0.1105(9) Uani 1 1 d . .
H22 H 0.4724 -0.0709 0.2017 0.133 Uiso 1 1 calc R U
loop_
_atom_site_aniso_label
_atom_site_aniso_U_11
_atom_site_aniso_U_22
_atom_site_aniso_U_33
_atom_site_aniso_U_23
_atom_site_aniso_U_13
_atom_site_aniso_U_12
S1 0.0811(4) 0.0663(4) 0.0624(3) 0.0035(2) -0.0065(3) -0.0158(2)
O2 0.0835(10) 0.1163(13) 0.0941(11) 0.0320(10) -0.0315(9) -0.0356(9)
N1 0.0585(9) 0.0585(9) 0.0655(9) 0.0023(7) -0.0010(7) 0.0033(7)
O4 0.1451(15) 0.0679(10) 0.0805(10) -0.0165(8) 0.0198(10) -0.0070(9)
O1 0.0627(9) 0.1233(14) 0.1299(15) 0.0209(12) -0.0044(9) 0.0181(9)
O3 0.0750(10) 0.1396(16) 0.0846(11) 0.0183(10) -0.0073(9) -0.0067(9)
C2 0.0608(11) 0.0596(11) 0.0649(12) 0.0103(9) -0.0038(9) -0.0017(9)
C3 0.0684(12) 0.0613(12) 0.0540(10) 0.0024(9) -0.0021(9) -0.0039(9)
C4 0.0543(10) 0.0560(11) 0.0670(11) 0.0024(9) 0.0013(8) 0.0006(8)
C5 0.0560(11) 0.0602(11) 0.0678(12) 0.0055(9) -0.0055(9) -0.0011(8)
C6 0.0804(13) 0.0492(10) 0.0541(11) 0.0012(8) 0.0005(9) 0.0107(9)
C7 0.0874(14) 0.0592(12) 0.0639(12) 0.0000(10) 0.0098(10) 0.0090(10)
C8 0.0686(12) 0.0579(11) 0.0766(13) -0.0027(10) 0.0060(10) 0.0017(9)
C9 0.1001(16) 0.0764(14) 0.0660(13) 0.0100(11) -0.0146(12) 0.0002(12)
C10 0.0578(12) 0.0911(16) 0.0828(14) 0.0052(12) 0.0034(10) 0.0013(12)
C11 0.162(3) 0.0860(17) 0.0542(13) 0.0137(12) -0.0005(15) 0.0039(18)
C12 0.0760(13) 0.0785(14) 0.0643(12) -0.0071(10) -0.0008(11) -0.0112(11)
C13 0.0745(13) 0.0732(13) 0.0677(13) -0.0114(10) -0.0007(10) 0.0003(10)
C14 0.117(2) 0.171(3) 0.0652(15) -0.0019(17) 0.0047(14) -0.054(2)
C15 0.0865(15) 0.0743(14) 0.0700(13) 0.0071(11) -0.0079(11) 0.0031(11)
C16 0.0791(15) 0.0762(15) 0.1119(19) -0.0064(13) 0.0130(13) -0.0080(12)
C17 0.0911(16) 0.0695(14) 0.1020(17) -0.0195(13) 0.0145(13) -0.0199(12)
C18 0.0836(14) 0.0794(16) 0.0884(16) 0.0022(12) 0.0024(12) 0.0053(12)
C19 0.0671(14) 0.110(2) 0.112(2) -0.0197(16) -0.0005(13) -0.0212(13)
C20 0.118(2) 0.0666(15) 0.103(2) -0.0002(13) -0.0077(16) 0.0122(14)
C21 0.132(2) 0.0850(18) 0.091(2) 0.0055(14) 0.0375(18) -0.0009(16)
C33 0.133(3) 0.0672(16) 0.107(2) 0.0075(14) -0.0129(18) -0.0182(16)
C1 0.0889(16) 0.0915(18) 0.105(2) 0.0095(15) 0.0172(15) -0.0022(13)
C22 0.0983(19) 0.098(2) 0.136(3) -0.0030(18) 0.0163(17) -0.0337(17)
loop_
_atom_type_symbol
_atom_type_description
_atom_type_scat_dispersion_real
_atom_type_scat_dispersion_imag
_atom_type_scat_source
C C 0.0181 0.0091 'International Tables Vol C Tables 4.2.6.8 and 6.1.1.4'
H H 0.0000 0.0000 'International Tables Vol C Tables 4.2.6.8 and 6.1.1.4'
N N 0.0311 0.0180 'International Tables Vol C Tables 4.2.6.8 and 6.1.1.4'
O O 0.0492 0.0322 'International Tables Vol C Tables 4.2.6.8 and 6.1.1.4'
S S 0.3331 0.5567 'International Tables Vol C Tables 4.2.6.8 and 6.1.1.4'
loop_
_geom_angle_atom_site_label_1
_geom_angle_atom_site_label_2
_geom_angle_atom_site_label_3
_geom_angle
O2 S1 O4 119.01(11)
O2 S1 C2 109.23(10)
O4 S1 C2 107.54(10)
O2 S1 C3 107.03(10)
O4 S1 C3 107.90(10)
C2 S1 C3 105.33(9)
C10 N1 C7 119.77(17)
C10 N1 C4 125.17(17)
C7 N1 C4 114.85(15)
C5 C2 S1 121.24(15)
C16 C3 C18 120.5(2)
C16 C3 S1 119.61(17)
C18 C3 S1 119.91(16)
N1 C4 C5 112.13(15)
N1 C4 C8 111.85(15)
C5 C4 C8 110.90(16)
C2 C5 C4 125.70(17)
C9 C6 C15 117.7(2)
C9 C6 C7 121.1(2)
C15 C6 C7 121.23(18)
N1 C7 C6 111.64(16)
C17 C8 C13 112.83(18)
C17 C8 C4 108.40(16)
C13 C8 C4 111.09(17)
C6 C9 C11 120.2(2)
O1 C10 N1 121.2(2)
O1 C10 C19 120.3(2)
N1 C10 C19 118.5(2)
C21 C11 C9 120.3(2)
O3 C12 C14 121.1(2)
O3 C12 C13 122.6(2)
C14 C12 C13 116.3(2)
C12 C13 C8 114.90(18)
C1 C15 C6 121.3(2)
C3 C16 C22 118.6(2)
C19 C17 C8 110.7(2)
C3 C18 C20 120.0(2)
C10 C19 C17 116.81(19)
C33 C20 C18 119.7(3)
C1 C21 C11 120.1(3)
C22 C33 C20 121.0(3)
C21 C1 C15 120.4(3)
C33 C22 C16 120.3(3)
loop_
_geom_bond_atom_site_label_1
_geom_bond_atom_site_label_2
_geom_bond_distance
S1 O2 1.4287(16)
S1 O4 1.4373(17)
S1 C2 1.7407(19)
S1 C3 1.761(2)
N1 C10 1.350(3)
N1 C7 1.459(3)
N1 C4 1.466(2)
O1 C10 1.227(3)
O3 C12 1.198(2)
C2 C5 1.311(3)
C3 C16 1.369(3)
C3 C18 1.373(3)
C4 C5 1.501(3)
C4 C8 1.532(3)
C6 C9 1.379(3)
C6 C15 1.381(3)
C6 C7 1.505(3)
C8 C17 1.521(3)
C8 C13 1.524(3)
C9 C11 1.390(4)
C10 C19 1.503(3)
C11 C21 1.355(4)
C12 C14 1.488(3)
C12 C13 1.498(3)
C15 C1 1.371(3)
C16 C22 1.396(4)
C17 C19 1.513(4)
C18 C20 1.374(4)
C20 C33 1.359(4)
C21 C1 1.347(4)
C33 C22 1.351(4)
loop_
_geom_torsion_atom_site_label_1
_geom_torsion_atom_site_label_2
_geom_torsion_atom_site_label_3
_geom_torsion_atom_site_label_4
_geom_torsion
O2 S1 C2 C5 11.5(2)
O4 S1 C2 C5 141.99(18)
C3 S1 C2 C5 -103.12(18)
O2 S1 C3 C16 152.49(19)
O4 S1 C3 C16 23.3(2)
C2 S1 C3 C16 -91.34(19)
O2 S1 C3 C18 -25.9(2)
O4 S1 C3 C18 -155.11(17)
C2 S1 C3 C18 90.25(18)
C10 N1 C4 C5 -101.5(2)
C7 N1 C4 C5 83.84(19)
C10 N1 C4 C8 23.8(3)
C7 N1 C4 C8 -150.85(16)
S1 C2 C5 C4 179.24(15)
N1 C4 C5 C2 26.3(3)
C8 C4 C5 C2 -99.5(2)
C10 N1 C7 C6 -97.4(2)
C4 N1 C7 C6 77.6(2)
C9 C6 C7 N1 65.4(2)
C15 C6 C7 N1 -113.1(2)
N1 C4 C8 C17 -52.1(2)
C5 C4 C8 C17 73.8(2)
N1 C4 C8 C13 72.4(2)
C5 C4 C8 C13 -161.64(16)
C15 C6 C9 C11 -0.3(3)
C7 C6 C9 C11 -178.8(2)
C7 N1 C10 O1 -4.2(3)
C4 N1 C10 O1 -178.6(2)
C7 N1 C10 C19 173.5(2)
C4 N1 C10 C19 -0.9(3)
C6 C9 C11 C21 -0.2(4)
O3 C12 C13 C8 2.6(3)
C14 C12 C13 C8 -176.3(2)
C17 C8 C13 C12 -163.46(19)
C4 C8 C13 C12 74.6(2)
C9 C6 C15 C1 0.3(3)
C7 C6 C15 C1 178.8(2)
C18 C3 C16 C22 1.4(4)
S1 C3 C16 C22 -177.0(2)
C13 C8 C17 C19 -63.9(2)
C4 C8 C17 C19 59.6(2)
C16 C3 C18 C20 -1.7(3)
S1 C3 C18 C20 176.70(19)
O1 C10 C19 C17 -173.9(2)
N1 C10 C19 C17 8.3(3)
C8 C17 C19 C10 -38.4(3)
C3 C18 C20 C33 0.2(4)
C9 C11 C21 C1 0.7(4)
C18 C20 C33 C22 1.7(4)
C11 C21 C1 C15 -0.7(4)
C6 C15 C1 C21 0.2(4)
C20 C33 C22 C16 -2.0(5)
C3 C16 C22 C33 0.5(4)
