#------------------------------------------------------------------------------
#$Date: 2016-02-18 17:37:37 +0200 (Thu, 18 Feb 2016) $
#$Revision: 176729 $
#$URL: svn://www.crystallography.net/cod/cif/1/51/38/1513815.cif $
#------------------------------------------------------------------------------
#
# This file is available in the Crystallography Open Database (COD),
# http://www.crystallography.net/
#
# All data on this site have been placed in the public domain by the
# contributors.
#
data_1513815
loop_
_publ_author_name
'Cui, Jian'
'Jia, Qun'
'Feng, Ruo-Zhu'
'Liu, Shan-Shan'
'He, Tian'
'Zhang, Chi'
_publ_section_title
;
 Boron trifluoride etherate functioning as a fluorine source in an
 iodosobenzene-mediated intramolecular aminofluorination of homoallylic
 amines.
;
_journal_issue                   5
_journal_name_full               'Organic letters'
_journal_page_first              1442
_journal_page_last               1445
_journal_paper_doi               10.1021/ol500238k
_journal_volume                  16
_journal_year                    2014
_chemical_formula_moiety         'C15 H22 F N O2 S'
_chemical_formula_sum            'C15 H22 F N O2 S'
_chemical_formula_weight         299.39
_chemical_name_systematic
; 
 ? 
;
_space_group_crystal_system      monoclinic
_space_group_IT_number           14
_space_group_name_Hall           '-P 2yn'
_space_group_name_H-M_alt        'P 1 21/n 1'
_symmetry_space_group_name_Hall  '-P 2yn'
_symmetry_space_group_name_H-M   'P 1 21/n 1'
_atom_sites_solution_hydrogens   mixed
_atom_sites_solution_primary     direct
_atom_sites_solution_secondary   difmap
_audit_creation_method           SHELXL-2013
_cell_angle_alpha                90
_cell_angle_beta                 96.840(5)
_cell_angle_gamma                90
_cell_formula_units_Z            4
_cell_length_a                   6.2800(8)
_cell_length_b                   19.188(2)
_cell_length_c                   12.9030(15)
_cell_measurement_reflns_used    5950
_cell_measurement_temperature    113(2)
_cell_measurement_theta_max      30.00
_cell_measurement_theta_min      1.10
_cell_volume                     1543.8(3)
_computing_cell_refinement       'CrystalClear-SM Expert 2.0 r4'
_computing_data_collection
'CrystalClear-SM Expert 2.0 r4 (Rigaku, 2009)'
_computing_data_reduction        'CrystalClear-SM Expert 2.0 r4'
_computing_molecular_graphics    'CrystalStructure 4.0'
_computing_publication_material  'CrystalStructure 4.0 (Rigaku, 2009)'
_computing_structure_refinement  'SHELXL-2013 (Sheldrick, 2013)'
_computing_structure_solution    'SHELXS97 (Sheldrick, 1997)'
_diffrn_ambient_temperature      113(2)
_diffrn_detector_area_resol_mean 14.222
_diffrn_measured_fraction_theta_full 0.999
_diffrn_measured_fraction_theta_max 0.977
_diffrn_measurement_device_type  'Rigaku Saturn724 CCD'
_diffrn_measurement_method       \w
_diffrn_radiation_type           MoK\a
_diffrn_radiation_wavelength     0.71075
_diffrn_reflns_av_R_equivalents  0.0381
_diffrn_reflns_av_unetI/netI     0.0476
_diffrn_reflns_Laue_measured_fraction_full 0.999
_diffrn_reflns_Laue_measured_fraction_max 0.977
_diffrn_reflns_limit_h_max       8
_diffrn_reflns_limit_h_min       -8
_diffrn_reflns_limit_k_max       26
_diffrn_reflns_limit_k_min       -27
_diffrn_reflns_limit_l_max       18
_diffrn_reflns_limit_l_min       -14
_diffrn_reflns_number            15988
_diffrn_reflns_point_group_measured_fraction_full 0.999
_diffrn_reflns_point_group_measured_fraction_max 0.977
_diffrn_reflns_theta_full        25.242
_diffrn_reflns_theta_max         30.031
_diffrn_reflns_theta_min         1.911
_exptl_absorpt_coefficient_mu    0.221
_exptl_absorpt_correction_T_max  0.978
_exptl_absorpt_correction_T_min  0.838
_exptl_absorpt_correction_type   multi-scan
_exptl_absorpt_process_details   'Jacobson, R. (1998) Private communication'
_exptl_crystal_colour            colorless
_exptl_crystal_density_diffrn    1.288
_exptl_crystal_density_method    'not measured'
_exptl_crystal_description       prism
_exptl_crystal_F_000             640
_exptl_crystal_size_max          0.200
_exptl_crystal_size_mid          0.200
_exptl_crystal_size_min          0.200
_refine_diff_density_max         0.338
_refine_diff_density_min         -0.380
_refine_diff_density_rms         0.056
_refine_ls_extinction_method     none
_refine_ls_goodness_of_fit_ref   1.068
_refine_ls_hydrogen_treatment    constr
_refine_ls_matrix_type           full
_refine_ls_number_parameters     201
_refine_ls_number_reflns         4406
_refine_ls_number_restraints     13
_refine_ls_restrained_S_all      1.069
_refine_ls_R_factor_all          0.0638
_refine_ls_R_factor_gt           0.0421
_refine_ls_shift/su_max          0.001
_refine_ls_shift/su_mean         0.000
_refine_ls_structure_factor_coef Fsqd
_refine_ls_weighting_details
; 
 w=1/[\s^2^(Fo^2^)+(0.0547P)^2^+0.0351P] 
 where P=(Fo^2^+2Fc^2^)/3 
;
_refine_ls_weighting_scheme      calc
_refine_ls_wR_factor_gt          0.1027
_refine_ls_wR_factor_ref         0.1136
_reflns_Friedel_coverage         0.000
_reflns_number_gt                3132
_reflns_number_total             4406
_reflns_threshold_expression     'I > 2\s(I)'
_cod_data_source_file            ol500238k_si_003.cif
_cod_data_source_block           shelxl
_cod_database_code               1513815
#BEGIN Tags that were not found in dictionaries:
_shelx_space_group_comment
; 
The symmetry employed for this shelxl refinement is uniquely defined 
by the following loop, which should always be used as a source of 
symmetry information in preference to the above space-group names. 
They are only intended as comments. 
;
_shelx_estimated_absorpt_t_min   0.957
_shelx_estimated_absorpt_t_max   0.957
_shelxl_version_number           2013-2
_shelx_res_file
; 
TITL  _m130513b 
CELL  0.71075 6.28000 19.18800 12.90300 90.000 96.840 90.000 
ZERR  4 0.00080 0.00200 0.00150 0.000 0.005 0.000 
LATT 1 
SYMM .50-X, .50+Y, .50-Z 
SFAC C H N O F S 
UNIT 60 88 4 8 4 4 
L.S. 5 
ACTA 
FMAP 2 
PLAN -5 
bond $h 
conf 
sadi .01 f1 c4 f1 c2 f1' c3' f1' c1 
sadi .01 f1 c3 f1' c2' 
dfix 1.54 .01 c1 c2 c1 c2' c2 c3 c2' c3' c3 c4 c3' c4 
SIZE 0.200 0.200 0.200 
eadp c3 c3' 
eadp c2 c2' 
HTAB 
EQIV $1 x-1/2, -y+3/2, z+1/2 
HTAB C3 O1_$1 
HTAB C2' O2_$1 
HTAB C3' O1_$1 
EQIV $2 x+1/2, -y+3/2, z+1/2 
HTAB C4 O2_$2 
WPDB -2 
SHEL 99999.000000 0.000000 
TEMP -160.0 
WGHT    0.054700    0.035100 
FVAR       2.05948   0.87976 
S1    6    0.411146    0.763542    0.337235    11.00000    0.01870    0.02601 = 
         0.01592   -0.00002    0.00424    0.00059 
PART 1 
F1    5    0.302688    0.861956    0.578221    21.00000    0.03725    0.02560 = 
         0.05940   -0.00380    0.01781   -0.00259 
C2    1    0.099090    0.757607    0.558369    21.00000    0.02212    0.03246 = 
         0.03089   -0.00754    0.01062   -0.00293 
AFIX  23 
H2A   2   -0.007799    0.794127    0.535757    21.00000   -1.20000 
H2B   2    0.042810    0.729065    0.612948    21.00000   -1.20000 
AFIX   0 
C3    1    0.309084    0.790938    0.601702    21.00000    0.02621    0.02346 = 
         0.01980   -0.00133    0.00474   -0.00042 
AFIX  13 
H3    2    0.339069    0.783215    0.678704    21.00000   -1.20000 
PART 2 
AFIX   0 
AFIX  13 
AFIX   0 
AFIX  23 
PART 0 
AFIX   0 
O1    4    0.639835    0.761471    0.336451    11.00000    0.01938    0.03700 = 
         0.02446    0.00294    0.00696    0.00286 
O2    4    0.273596    0.729767    0.255936    11.00000    0.02832    0.02990 = 
         0.01554   -0.00297    0.00040   -0.00066 
N1    3    0.363248    0.728347    0.447081    11.00000    0.01534    0.02659 = 
         0.01442   -0.00044    0.00130   -0.00054 
C1    1    0.137275    0.711320    0.464819    11.00000    0.01595    0.02304 = 
         0.01821   -0.00024    0.00174    0.00073 
PART 1 
AFIX   3 
H1A   2    0.042675    0.726250    0.404999    21.00000   -1.20000 
PART 2 
H1B   2    0.045885    0.724840    0.403119   -21.00000   -1.20000 
PART 0 
AFIX   0 
C4    1    0.478422    0.756618    0.544799    11.00000    0.01863    0.03451 = 
         0.01640   -0.00223   -0.00048   -0.00184 
PART 1 
AFIX   3 
H4A   2    0.547903    0.719828    0.586438    21.00000   -1.20000 
H4B   2    0.584672    0.789878    0.529668    21.00000   -1.20000 
PART 0 
AFIX   0 
C5    1    0.104743    0.632200    0.480751    11.00000    0.02360    0.02246 = 
         0.02404    0.00307    0.00367   -0.00039 
C6    1    0.147588    0.593335    0.381678    11.00000    0.05206    0.02500 = 
         0.03760   -0.00479    0.00990   -0.00374 
AFIX 137 
H6A   2    0.048799    0.610131    0.322420    11.00000   -1.20000 
H6B   2    0.125662    0.543268    0.391036    11.00000   -1.20000 
H6C   2    0.295725    0.601730    0.368171    11.00000   -1.20000 
AFIX   0 
C7    1   -0.129157    0.619898    0.498899    11.00000    0.02813    0.02760 = 
         0.04024    0.00460    0.00365   -0.00496 
AFIX 137 
H7A   2   -0.158071    0.569715    0.499219    11.00000   -1.20000 
H7B   2   -0.224601    0.642124    0.442879    11.00000   -1.20000 
H7C   2   -0.154322    0.639993    0.566199    11.00000   -1.20000 
AFIX   0 
C8    1    0.253570    0.603521    0.573532    11.00000    0.03111    0.03492 = 
         0.03961    0.01530    0.00013   -0.00041 
AFIX 137 
H8A   2    0.218339    0.554562    0.584831    11.00000   -1.20000 
H8B   2    0.234865    0.630563    0.636242    11.00000   -1.20000 
H8C   2    0.402789    0.607076    0.558924    11.00000   -1.20000 
AFIX   0 
C9    1    0.337454    0.852275    0.337898    11.00000    0.02110    0.02571 = 
         0.01707    0.00197    0.00394   -0.00097 
C10   1    0.122802    0.871097    0.315584    11.00000    0.02178    0.02620 = 
         0.02696    0.00100    0.00260   -0.00277 
AFIX  43 
H10   2    0.016618    0.836778    0.295890    11.00000   -1.20000 
AFIX   0 
C11   1    0.066320    0.940458    0.322489    11.00000    0.02253    0.02889 = 
         0.03178    0.00364    0.00624    0.00204 
AFIX  43 
H11   2   -0.079905    0.953471    0.306716    11.00000   -1.20000 
AFIX   0 
C12   1    0.219316    0.991923    0.352140    11.00000    0.03435    0.02480 = 
         0.02675    0.00338    0.01083   -0.00172 
C13   1    0.433578    0.971878    0.371498    11.00000    0.02947    0.02940 = 
         0.03377   -0.00025    0.00709   -0.01022 
AFIX  43 
H13   2    0.540671    1.006202    0.389419    11.00000   -1.20000 
AFIX   0 
C14   1    0.492650    0.902656    0.364991    11.00000    0.02080    0.03052 = 
         0.02812    0.00262    0.00540   -0.00466 
AFIX  43 
H14   2    0.639217    0.889663    0.379052    11.00000   -1.20000 
AFIX   0 
C15   1    0.151812    1.066104    0.365487    11.00000    0.04695    0.02859 = 
         0.04358   -0.00051    0.01474   -0.00108 
AFIX 137 
H15A  2    0.273248    1.097175    0.358747    11.00000   -1.20000 
H15B  2    0.104762    1.071965    0.434702    11.00000   -1.20000 
H15C  2    0.033350    1.077607    0.311728    11.00000   -1.20000 
  
AFIX   0 
HKLF 4 
  
REM   _m130513b 
REM R1 =  0.0421 for    3132 Fo > 4sig(Fo)  and  0.0638 for all    4406 data 
REM    201 parameters refined using     13 restraints 
  
END 
  
WGHT      0.0547      0.0363 
  
REM Instructions for potential hydrogen bonds 
HTAB C3 O1_$1 
HTAB C4 O2_$2 
  
REM Highest difference peak  0.338,  deepest hole -0.380,  1-sigma level  0.056 
Q1    1   0.3982  0.7713  0.5780  11.00000  0.05    0.34 
Q2    1   0.3097  0.8570  0.6418  11.00000  0.05    0.30 
Q3    1   0.3635  0.8212  0.3400  11.00000  0.05    0.29 
Q4    1   0.4264  0.7277  0.4807  11.00000  0.05    0.26 
Q5    1   0.1247  0.6696  0.4761  11.00000  0.05    0.26 
;
_shelx_res_checksum              70066
_shelx_hkl_file
; 
   0   1   0    3.45    3.75 
   0   0  -1    2.16    4.67 
   0   0  -1    2.49    4.99 
   0   0   1    6.13   10.20 
   0   1   1 3673.84   42.01 
   0  -1  -1 3638.18   45.80 
   0   1  -1 3601.00   39.30 
   0   1   1 3686.54   40.15 
   0  -1   1 3650.24   38.23 
   0  -1   1 3738.08   41.89 
   0   1  -1 3449.90   40.08 
   0  -1  -1 3549.70   39.72 
   0  -2   091215.82  488.63 
   0  -2  -1 4196.55   54.13 
   0  -2   1 3981.51   57.11 
   0   2   1 4018.01   51.79 
   0  -2  -1 4022.21   51.24 
   0   2  -1 3905.08   50.71 
   0   2   1 3974.06   53.63 
   0   2  -1 4099.11   50.75 
   0   2   1 3983.44   39.80 
   0  -2  -1 3998.53   40.60 
   0   0  -2 9585.61   86.83 
   0   0   2 9024.15   88.97 
   0   0  -2 9329.74   90.44 
   0   0   2 9003.76   84.32 
   0   3   0   -0.12   15.67 
   0  -3   0    7.81   15.43 
   0   3   0   20.53    8.76 
  -1   0   0   11.53    8.45 
   1   0   0    4.11    5.94 
   1   0   0   18.79    9.19 
   1   0   0    4.57    8.15 
  -1   0   0   11.63   13.20 
   0  -1   224622.60  167.93 
   0  -1   224197.95  170.77 
   0   1   224704.17  174.20 
   0   1   224878.64  172.28 
   0   1  -223986.31  164.32 
   0  -1  -225063.07  178.53 
   0  -1  -224680.18  173.01 
   0   1  -224805.01  180.45 
  -1  -1   0 8700.94   76.11 
   1  -1   0 8140.07   67.57 
   1  -1   0 8670.01   95.04 
  -1  -1   0 8696.87   89.82 
   1   1   0 8483.46   72.51 
  -1   1   0 8735.14   76.42 
   1  -1   0 8711.90   71.25 
  -1   1   0 8273.56   72.90 
  -1  -1   0 8692.82   89.96 
   1   1   0 8956.61   83.77 
   1   1   0 8608.87   85.45 
  -1   1   0 8625.10   86.69 
  -1   0   141312.97  237.75 
  -1   0   140443.61  257.20 
   1   0  -142309.51  267.00 
  -1   0   141719.42  291.65 
   1   0  -139191.50  245.43 
   1   0  -140554.48  228.24 
   0   3   1 2072.21   72.94 
   0  -3  -1 3327.44   52.66 
   0   3   1 3078.75   51.23 
   0  -3  -1 3133.28   39.34 
   0  -3  -1 3082.67   51.65 
   0   3  -1 3191.97   52.01 
   0   3   1 3121.04   39.99 
   0  -3   1 3255.87   55.24 
  -1  -1   113192.25  117.18 
  -1   1   113431.85  114.73 
   1   1  -113391.32  123.06 
   1  -1  -113636.77  118.34 
   1  -1  -113608.35  120.10 
   1   1  -113230.77  108.20 
  -1   1   113476.64  124.56 
  -1  -1   114266.01  114.11 
  -1   0  -122718.68  170.62 
   1   0   122306.13  133.18 
  -1   0  -121407.44  149.94 
   1   0   122930.96  174.26 
   1   0   122018.19  155.37 
   0  -2  -2 2374.00   83.70 
   0  -2   2 2294.73   85.64 
   0   2  -2 1565.69   57.95 
   0   2   2 2460.42   87.41 
   0  -2   2 2339.61   82.63 
   0   2  -2 2154.50   73.11 
   0   2   2 2479.57   87.99 
   0  -2  -2 2535.35   89.55 
  -1   2   0  127.54   10.11 
   1  -2   0  127.50   10.70 
  -1   2   0  112.68   15.27 
  -1  -2   0  121.57   15.60 
   1   2   0  129.81   42.87 
   1  -2   0  125.03   15.09 
   1  -2   0  132.88   12.71 
   1   2   0  123.74   17.57 
  -1   2   0  127.88   14.08 
   1   2   0  126.47   19.89 
  -1   1  -193832.95  546.95 
  -1   1  -197070.84  541.25 
   1   1   199764.20 3015.28 
   1  -1   198251.40 2967.22 
   1   1   197630.05 2952.87 
   1  -2  -1 6048.83   81.10 
  -1  -2   1 5793.98   79.79 
  -1   2   1 6104.94   72.77 
   1  -2  -1 6214.51   78.25 
  -1  -2   1 5849.92   74.43 
   1   2  -1 5889.21   80.29 
   1   2  -1 5639.37   69.95 
  -1   2   1 4124.01   69.15 
   0   4   015250.98  121.38 
   0   4   015664.05  136.62 
   0   4   015851.64  138.00 
   0  -4   015434.49  139.01 
  -1   0   2   15.91    9.11 
   1   0  -2   11.11   10.81 
   1   0  -2    7.16   14.79 
  -1   0   2   16.50    9.48 
  -1  -2  -111280.81   76.46 
   1   2   110932.71   72.37 
  -1   2  -111485.54  104.31 
  -1   2  -111563.94   76.88 
   1  -2   111847.60  105.79 
   1  -2   111344.60   74.67 
   1   2   111766.51  124.04 
  -1   2  -111706.57  114.43 
  -1  -2  -111827.49  129.97 
  -1  -1   224672.08  172.49 
   1   1  -225859.01  200.30 
  -1   1   224153.19  194.07 
   1  -1  -225521.31  152.63 
  -1   1   224607.95  148.03 
   1  -1  -224760.97  197.62 
  -1  -1   224685.25  197.33 
   1  -1  -224807.76  193.36 
   1   1  -225269.86  173.08 
   0  -3  -2  741.02   36.08 
   0   3   2  742.12   38.65 
   0  -3  -2  721.27   37.61 
   0  -3   2  799.29   47.27 
   0   3  -2  781.96   37.59 
   0   3   2  748.23   42.13 
   0   3  -2  771.74   38.46 
   0  -3  -2  702.99   29.89 
   0  -3   2  786.30   38.56 
   0   4   1 1518.77   59.37 
   0   4  -1 1592.17   77.28 
   0   4   1 1519.38   53.06 
   0  -4  -1 1384.49   54.96 
   0  -4  -1 1528.38   52.94 
   0  -4   1 1653.20   65.20 
   0  -4  -1 1566.96   61.03 
   0   4   1 1496.08   57.79 
   1   3   010292.97  110.21 
   1  -3   011343.54  138.49 
   1  -3   010684.76   87.12 
  -1  -3   010548.17  117.40 
  -1   3   0 9841.81  107.71 
  -1   3   010429.52   85.15 
   1  -3   010292.44   91.02 
  -1   3   010421.00   95.73 
  -1   3   1 7169.03   56.68 
   1  -3  -1 7344.38   84.42 
  -1   3   1 7545.75   94.33 
  -1   3   1 7547.55   88.44 
   1   3  -1 7263.57   94.57 
   1  -3  -1 7455.91   62.37 
   1  -3  -1 7484.12   92.16 
   1   3  -1 7125.98   90.35 
  -1  -3   1 7511.13   95.18 
   0   0  -3   14.76   13.00 
   0   0  -3   10.73   12.03 
   0   0   3   24.22   11.47 
   0   0   3   13.10   10.98 
   1  -2  -210800.72   76.25 
  -1   2   210272.26   71.78 
   1  -2  -210593.86  113.73 
  -1  -2   210590.69  123.43 
  -1   2   210571.74  115.24 
   1   2  -210339.74  113.08 
   1   2  -2 9899.59  113.04 
   1  -2  -210197.93  122.97 
  -1   2   210831.39  120.03 
  -1  -2   210591.11  108.05 
   1   0   2   14.39   12.88 
  -1   0  -2    3.30   18.78 
   1   0   2    8.80    4.03 
  -1   0  -2    2.77    4.82 
   0  -1   370625.61  467.00 
   0   1  -370501.50  443.74 
   0  -1   374084.24  453.08 
   0   1   373644.48  439.87 
   0   1   371084.58  445.67 
   0  -1  -370549.21  455.94 
   0   1  -373071.63  443.20 
   0  -1  -372855.09  435.33 
  -1  -1  -2   25.43   10.42 
   1   1   2   26.56   12.17 
   1   1   2   46.54   19.56 
  -1  -1  -2   21.53   12.31 
   1  -1   2   27.29   14.67 
   1  -1   2   23.73    6.71 
  -1   1  -2   23.73   10.13 
  -1  -3  -121330.69  194.86 
  -1   3  -119847.83  158.62 
  -1   3  -120296.06  137.91 
   1  -3   121200.40  161.85 
   1   3   121622.83  194.55 
  -1   3  -120280.94  172.38 
   0  -2  -3 7576.17   95.64 
   0   2   3 7549.28   94.02 
   0   2  -3 7804.57   98.13 
   0   2  -3 7649.76   91.21 
   0  -2   3 7720.87   95.44 
   0  -2   3 7791.18  101.88 
   0  -2  -3 7350.42   94.39 
   0   2   3 7479.89   97.21 
   1   2   2 2799.99   68.47 
  -1   2  -2 2949.71   59.42 
   1   2   2 2887.89   73.58 
   1   2   2 2785.48   47.63 
   1  -2   2 2965.84   59.24 
   0   4  -2 8474.89  104.82 
   0  -4  -2 8265.21  102.06 
   0  -4   2 8771.44  109.35 
   0   4   2 8250.28  100.64 
   0   4   2 8595.59  105.29 
   0  -4  -2 8919.36  108.93 
   0   4  -2 8387.35  103.17 
   0  -4  -2 8406.68   86.31 
   0   4   2 8218.42   81.94 
   0   5   0   25.09   19.44 
   0  -5   0   15.60   20.21 
  -1   3   2 4196.67   45.55 
  -1   3   2 4086.80   91.73 
  -1  -3   2 3326.27   92.66 
  -1   3   2 3936.65   70.89 
   1  -3  -2 3971.28   68.32 
   1  -3  -2 3900.63   66.68 
   1   3  -2 4069.75   74.84 
  -1   3   2 3986.04   44.42 
  -1  -3   2 4325.70   77.08 
   1   3  -2 4080.56   67.44 
  -1  -4   0 3795.70   80.64 
  -1   4   0 3899.94   71.98 
  -1   4   0 3684.57   52.10 
  -1   4   0 3827.56   59.80 
   1  -4   0 3718.16   57.68 
   1   4   0 3685.17   78.25 
   1  -4   0 3679.50   66.81 
   1  -4   0 3508.35   52.85 
   1   0  -350571.35  309.81 
  -1   0   351837.93  360.93 
  -1   0   350031.57  312.93 
   1   0  -351154.28  351.95 
   1   4  -133204.49  247.32 
  -1   4   133389.15  205.59 
  -1   4   133245.22  258.68 
  -1   4   132848.07  237.64 
   1  -4  -132168.42  235.29 
   1   4  -132792.03  299.01 
   1  -4  -133212.97  246.09 
  -1  -4   132425.49  251.75 
   1  -4  -133587.76  209.54 
   0  -5  -112060.37  115.01 
   0   5   111852.50  131.60 
   0  -5  -111886.81  132.33 
   0  -5  -111831.31  129.11 
   0   5  -111458.38  124.32 
   0  -5   112185.43  130.95 
   0   5   111567.60  120.70 
   0   5   111334.15  103.77 
   1  -1  -3 1798.83   62.36 
  -1   1   3 1757.55   60.69 
  -1  -1   3 1804.35   93.52 
   1  -1  -3 1835.51   71.66 
  -1  -1   3 1884.06   69.67 
   1   1  -3 1790.85   75.72 
  -1   1   3 1583.16   68.19 
   1   1  -3 1726.00   69.54 
  -1   4  -1 5456.07   69.07 
  -1   4  -1 5278.30   72.05 
   1  -4   1 5534.70   76.84 
   1   4   1 3990.76   77.78 
  -1   4  -1 5294.84   85.03 
  -1  -4  -1 5418.43  101.64 
   0  -3  -3 6703.02   90.95 
   0   3  -3 6730.43   95.14 
   0   3   3 7019.52   97.01 
   0   3   3 6714.47   96.18 
   0  -3   3 6716.10   90.93 
   0   3   3 6450.13   92.91 
   0   3  -3 6890.16   92.20 
   0  -3   3 6900.68   97.59 
   1   3   213325.90  126.12 
  -1   3  -212954.79  131.32 
   1  -3   213263.01  133.16 
  -1  -3  -213575.02  162.49 
  -1   3  -212866.17   97.88 
   1   3   213330.58  151.48 
   1  -2  -346992.36  752.97 
  -1   2   352245.99  363.96 
   1  -2  -348551.06  290.83 
  -1   2   348581.86  293.58 
   1   2  -347676.55  333.78 
   1  -2  -335984.81  269.17 
   1   2  -348397.34  345.55 
  -1  -2   349334.13  326.99 
  -1  -2   350978.26  358.61 
   1   4  -2 1669.42   70.53 
  -1   4   2 1766.68   72.86 
   1   4  -2 1628.63   64.63 
  -1  -4   2 1818.91   82.82 
  -1   4   2 1848.69   89.39 
   1  -4  -2 1859.65   66.72 
  -1   4   2 1617.94   56.04 
   1  -4  -2 1795.85   71.25 
  -1  -4   2 1663.46   71.66 
   1  -4  -2 1810.63   71.85 
  -1   0  -3 3732.21   47.33 
   1   0   3 3722.12   47.99 
  -1   0  -3 3717.19   89.91 
   1   0   3 3702.17   79.39 
   0   5   214115.94  154.30 
  -1  -1  -3 1383.73   64.69 
   0  -5  -213627.33  142.72 
   1   1   3 1477.55   54.35 
  -1  -1  -3 1517.66   54.57 
  -1   1  -3 1514.29   50.33 
  -1   1  -3 1371.37   60.85 
   1  -1   3 1441.42   50.56 
   0   5   213297.61  117.43 
   1   1   3 1497.31   71.75 
   0   5  -213773.96  175.13 
   0   5   213221.95  139.19 
   1  -1   3 1476.22   90.41 
   0  -5   213959.46  150.04 
   0  -5  -214020.89  150.79 
   0  -5  -213634.31  122.61 
  -1  -5   0  170.47   89.85 
   1  -5   0  149.26   39.43 
  -1   5   0  137.23   16.64 
  -1   5   0  134.75   19.41 
   1  -5   0  158.46   17.44 
  -1   5   0  167.91   36.11 
   1   5   0  118.49   66.40 
   1  -5   0  183.54   48.39 
  -1   3   3 6523.65  103.58 
  -1  -3   3 6693.80  108.95 
   1   3  -3 6655.28  105.49 
  -1   3   3 6639.87   75.49 
   1  -3  -3 6409.51   74.04 
   1   3  -3 6552.21   92.92 
  -1  -3   3 6662.90   99.08 
   1  -3  -3 6662.85   95.38 
   1  -3  -3 6738.23  100.36 
   1   5  -1 9500.27  121.66 
  -1   5   1 9702.14  119.31 
   1  -5  -1 9793.53  116.35 
  -1  -5   1 9833.69  132.01 
   1  -5  -110023.92  108.99 
   1  -5  -1 9827.50  113.80 
  -1   5   110101.61   95.63 
  -1   5   1 9858.50  120.98 
   0   0  -435884.72  281.94 
   0   0   437372.90  273.85 
   0   0  -436675.79  263.01 
   0   0   437413.49  285.42 
   0   6   094268.35  541.56 
   0  -6   094387.59  584.65 
   0   6   094824.30  590.22 
   0   6   091178.07  556.57 
   0  -4   3 3782.09   76.24 
   0   4  -3 3630.55   67.95 
   0   4   3 3883.38   78.67 
   0  -4   3 2790.87   69.50 
   0   4  -3 3459.20   71.36 
   0  -4  -3 3674.04   57.74 
   0  -4  -3 3705.12   69.66 
   0   4   3 3815.08   77.98 
   0   4   3 3767.57   74.77 
   1   4   2  390.78   31.93 
  -1   4  -2  459.33   54.94 
   1   4   2  394.40   33.58 
   1  -4   2  460.35   34.83 
  -1  -4  -2  410.20   35.29 
   0   1  -461401.95  407.06 
   0   1   465469.40  424.58 
   0  -1   464227.20  433.86 
   0  -1  -463434.07  408.71 
   0  -1  -464311.12  430.66 
   0  -1   463271.73  425.39 
   0   1  -460597.48  412.32 
   0   1   462118.17  411.13 
  -1  -2  -3 1986.97   83.25 
   1   2   3 2077.77   79.22 
  -1   2  -3 2106.69   84.84 
   1   2   3 2125.42   89.56 
   1  -2   3 2050.47   66.83 
  -1  -2  -3 2142.80   75.74 
   1  -2   3 2025.39   79.12 
  -1   2  -3 2075.56   67.26 
  -1   5  -115254.99  157.82 
   1  -5   115623.43  155.27 
  -1   5  -115143.87  139.68 
  -1   5  -115013.89  135.13 
   1   5   115158.10  169.16 
  -1  -5  -115529.37  173.98 
   1   5   115453.15   93.44 
   2   0   0 1614.41   60.38 
   2   0   0 1757.80   69.01 
   2   0   0 1619.81   63.83 
   2   0   0 1705.99   66.45 
  -2   0   0 1754.82   72.44 
  -2   0   0 1709.56   64.02 
  -2   0   1   20.76   21.29 
  -2   0   1   12.62   13.93 
   2   0  -1   -0.91   15.14 
   2   0  -1   10.25    8.46 
  -2   0   1   19.29   16.24 
   2   0  -1    2.86    6.05 
   0   6   1  553.58   29.97 
   0  -6   1  566.08   42.55 
   0   6   1  674.02   47.54 
   0   6   1  520.20   35.20 
   0  -6  -1  537.32   29.83 
   0   6  -1  534.58   37.98 
   0  -6  -1  532.90   33.75 
   0  -6  -1  583.92   46.04 
   2  -1   0 5668.07   86.64 
  -2   1   0 5255.41   74.36 
  -2   1   0 5480.72   91.43 
  -2  -1   0 5155.77   77.90 
   2  -1   0 5311.09   73.53 
  -2  -1   0 5200.36   83.88 
   2  -1   0 5708.34   81.61 
   2   1   0 5254.15   83.97 
   2   1   0 5234.27   75.24 
  -2  -1   0 5286.91   79.25 
   2   1   0 5289.50   75.93 
   2  -1   0 5305.71   99.40 
   2   1  -1   37.17   12.75 
   2  -1  -1   35.74   14.68 
  -2  -1   1   27.98   23.49 
   2   1  -1   43.34   17.44 
   2  -1  -1   47.84   18.28 
  -2  -1   1   68.55   22.12 
  -2   1   1   44.00   43.62 
   2  -1  -1   28.90   11.18 
  -2  -1   1   37.01   18.43 
   2   1  -1   46.66   19.41 
  -2   1   1   35.49   21.36 
   2  -1  -1   62.19   26.16 
   0  -2  -4 9159.17  120.97 
   0   2  -4 9133.44  110.91 
   0  -2  -4 9241.16  114.14 
   0  -2   4 9614.13  125.87 
   0   2  -4 9163.05  119.54 
   0  -2   4 8963.18  111.21 
   0   2   4 9298.17  122.45 
   0   2   4 9739.14  126.31 
  -1   0   4    4.96   14.48 
  -1   0   4    9.57   16.74 
   1   0  -4    0.84   13.75 
   1   0  -4   10.87   18.50 
  -1   5   2 7182.12  104.64 
   1  -5  -2 7140.86  102.22 
   1   5  -2 7165.16  111.31 
  -1  -5   2 7166.05  120.98 
   1  -5  -2 7010.46   80.90 
  -1   5   2 7270.22  106.48 
   1  -5  -2 7037.46   99.71 
  -1   5   2 7027.43   79.27 
   1   5  -2 7033.67  111.29 
  -2   2   0   76.04   30.43 
  -2  -2   0   42.39   46.37 
  -2  -2   0   53.78   17.85 
   2   2   0   45.95   16.43 
   2   2   0   60.12   22.56 
  -2   2   0   65.65   30.15 
   2   2   0   45.83   23.89 
   2  -2   0   57.05   22.69 
  -2   2   0   71.49   29.01 
   2  -2   0   88.20   34.31 
   2  -2   0   52.52   22.78 
   1   3   3 1204.33   59.95 
  -1  -1   414413.19  150.78 
   2  -2  -1   17.42   10.70 
   1  -3   3 1123.29   55.39 
  -2   2   1   34.17   19.81 
  -1  -1   414715.41  168.97 
   2   2  -1   11.76    5.96 
   1  -1  -414880.25  138.61 
   2  -2  -1   18.78    7.03 
   1  -1  -414053.32  154.85 
  -1   3  -3 1106.64   43.46 
   1   3   3 1252.38   67.20 
   2  -2  -1   18.04    9.57 
  -2  -2   1    9.60   10.46 
  -1   1   414154.74  133.53 
   1   1  -414318.49  139.49 
   1   3   3 1337.07   55.61 
   2   2  -1    8.00   17.40 
   2   2  -1   13.86    7.44 
   1   1  -414226.63  157.42 
   2  -2  -1   22.74    8.34 
  -2  -2   1   19.36   17.01 
  -1   3  -3 1119.02   54.60 
  -1  -3  -3 1290.36   54.39 
  -2   2   1   18.30   19.28 
  -1   1   414725.08  168.15 
  -2   0  -1   18.42   11.42 
   2   0   1    7.66    8.64 
   2   0   1   22.46   18.92 
   2   0   1   10.23    9.89 
   2   0   1    0.67    9.91 
  -1   4   3  735.60   33.18 
   1   4  -3  712.56   41.19 
   1  -4  -3  700.41   38.71 
   1   4  -3  697.37   42.69 
  -1   4   3  774.74   76.79 
  -1   4   3  750.15   34.49 
   1  -4  -3  711.73   43.58 
  -1  -4   3  596.62   41.10 
  -1   4   3  732.55   45.74 
  -1  -4   3  687.56   44.43 
   2   0  -2 2647.83   90.51 
  -2   0   2 2613.61   90.20 
   2   0  -2 2732.67   67.21 
   2   0  -2 2698.71   62.40 
  -2   0   2 2720.10   68.73 
   2  -1   1 3647.03   70.28 
  -2   1  -1 3695.43   49.11 
   2   1   1 3627.64   58.60 
  -2  -1  -1 3689.43   65.34 
  -2   1  -1 3531.48   72.37 
   2  -1   1 3462.21   55.52 
   2   1   1 3770.99   59.76 
  -2   1  -1 3559.18   68.41 
   2   1   1 3672.75   79.12 
   2  -1   1 3780.47   71.15 
   2   1   1 3662.64   74.13 
   2   1  -2 7844.07  125.13 
   2  -1  -2 7993.02  109.17 
  -2   1   2 8050.03  113.75 
  -2  -1   2 8296.61  119.80 
  -2   1   2 7978.84  114.19 
  -2  -1   2 8421.76  100.38 
   2  -1  -2 7610.18  105.03 
   2  -1  -2 7466.83   64.37 
  -2   1   2 7788.14   69.78 
   2   1  -2 8170.54  113.65 
   2   1  -2 7614.53   89.42 
   0   3   4  975.96   52.78 
   0   3  -4  816.48   48.08 
   0  -3  -4  938.12   49.70 
   0  -3   4  883.86   52.55 
   0  -3  -4  900.91   46.80 
   0   3   4  976.53   52.73 
   0   3  -4  812.17   43.49 
   0  -3   4  876.25   45.94 
   0   6  -2  176.95   65.56 
   1  -2  -4  233.24   23.73 
   0   6   2  180.91   17.82 
   0  -6  -2  185.52   20.28 
   0   6   2  183.07   32.44 
   1   2  -4  240.60   26.87 
   1   2  -4  225.83   23.39 
   1  -2  -4  242.11   27.33 
  -1   2   4  252.10   24.46 
   0  -6  -2  192.65   24.03 
  -1  -2   4  230.19   29.40 
   0  -6  -2  222.89   65.61 
  -1   2   4  263.24   41.09 
   0   6   2  166.50   19.92 
  -1  -2   4  245.61   24.49 
   0  -6   2  219.94   90.74 
   0   5   3  843.69   46.11 
   0  -5  -3  925.08   52.16 
   0   5  -3  915.08   46.38 
   0  -5  -3  834.31   37.96 
   0  -5  -3  847.73   58.42 
   0   5   3  888.38   47.32 
   0   5  -3 1001.65   97.98 
   0  -5   3  972.37   53.93 
   1  -6   0 5315.74   83.97 
   1   6   0 5158.93   93.55 
  -1   6   0 5811.80   89.93 
  -1   6   0 5594.87  122.62 
  -1   6   0 5498.27   78.14 
  -1  -6   0 5168.11  102.39 
   1  -6   0 5688.89   91.66 
   1  -6   0 5357.88   82.89 
   1   5   2  561.68   38.30 
  -1   5  -2  610.59   37.25 
  -1  -5  -2  551.89   62.28 
   1   5   2  572.05   43.65 
   1  -5   2  570.34   38.97 
  -2   2  -115647.52  169.00 
   2   2   115899.84  147.30 
   2  -2   115059.10  153.49 
  -2  -2  -115937.20  146.30 
   2  -2   115126.95  109.55 
  -2   2  -115914.77  163.86 
   2   2   115499.24  167.53 
   2  -2   116321.91  150.65 
   2   2   115748.02  130.05 
  -2   2  -115250.29  116.54 
  -2  -2  -116266.78  177.83 
   2  -2  -222046.81  123.98 
   2   2  -222593.34  219.82 
  -2   2   222694.84  212.42 
   2   2  -222166.53  181.97 
   2  -2  -220408.04  113.12 
  -2  -2   223259.88  226.46 
   2  -2  -222074.26  206.18 
   2   2  -222876.59  210.96 
  -2   2   222875.56  207.52 
   2  -2  -222052.59  195.65 
  -2  -2   222316.64  190.12 
  -1  -6   1 5977.57  107.16 
   1   6  -1 5349.07   95.68 
  -1   6   1 5467.09   75.17 
   1  -6  -1 5318.77   86.21 
  -1   6   1 5547.08   91.06 
   1  -6  -1 5492.97   77.80 
  -1   6   1 5289.85   92.31 
   1  -6  -1 5308.02   87.96 
   2  -3   0 1431.55   52.49 
   2   3   0 1307.79   60.18 
  -2   3   0 1399.53   52.24 
   2  -3   0 1395.18   52.71 
   2   3   0 1331.84   53.12 
   2  -3   0 1321.39   58.60 
  -2  -3   0 1276.74   64.01 
  -2   3   0 1393.07   63.35 
  -2   3   0 1307.84   52.12 
   2   3   0 1327.75   61.38 
  -2   3   1  283.14   27.41 
  -2   3   1  313.85   86.37 
   2  -3  -1  286.47   32.58 
  -2   3   1  244.73   14.59 
   2  -3  -1  278.05   14.40 
   2   3  -1  236.76   25.03 
   2  -3  -1  294.73   23.78 
   2   3  -1  223.78   27.54 
   2   3  -1  227.24   24.63 
  -2  -3   1  205.32   29.98 
  -2  -3   1  229.97   32.28 
  -1   6  -1   31.16   17.50 
   1   6   1   46.56   19.51 
  -1  -6  -1   52.29   21.28 
  -1   6  -1   36.66   28.24 
  -1   6  -1   33.10   14.01 
   1   6   1   40.04   12.48 
   1  -6   1   17.23   14.92 
   1  -4   3 7584.63  110.62 
  -1   4  -3 7373.80  108.21 
   1   4   3 7485.67  101.82 
  -1   4  -3 7242.55   89.81 
   1   4   3 7473.09  124.84 
  -1  -4  -3 7469.96  102.48 
   1   4   3 7243.57  118.31 
   0   7   0   90.07   93.14 
   0   7   0   25.65   21.44 
  -1   0  -4   16.37   19.36 
   1   0   4   21.68   19.93 
  -1   0  -4    7.35    9.35 
   1   0   4    6.92    5.63 
   1  -3  -4 7411.81  117.12 
  -1   3   4 7664.97   91.61 
  -1  -3   4 7520.39  110.98 
   1   3  -4 7328.23  102.13 
   1  -3  -4 7523.23   92.06 
   1  -3  -4 7537.92  113.51 
   1   3  -4 7132.12  114.15 
  -1   3   4 7855.58  120.87 
  -1  -3   4 7388.52  117.93 
   1   1   4 1616.53   61.11 
   1  -1   4 1659.43   63.76 
  -1  -1  -4 1146.94  116.41 
   1  -1   4 1630.54   76.39 
   1   1   4 1576.62   74.54 
  -1  -1  -4 1568.32   58.46 
  -1   1  -4 1586.20   71.74 
  -1   1  -4 1710.04   75.53 
   0   7  -1   23.48   11.63 
   2   0   2 6222.21   64.46 
   0   7   1   11.72   17.85 
   0  -7  -1   23.68   10.10 
   0   7   1   22.00   12.63 
   0   7   1   30.74   16.45 
  -2   0  -2 5769.46  127.78 
  -2   0  -2 5817.48   92.92 
   0  -7  -1   21.95   26.03 
   0  -7   1   66.96   27.04 
   2   0   2 5884.86  122.94 
   2  -3   1   81.24   25.52 
   2   3   1  100.45   33.93 
   2  -3   1   92.80   34.36 
   2  -3   1   71.84   30.67 
  -2  -3  -1   74.24   40.28 
  -2   3  -1   87.02   26.55 
   2   3   1   94.02   14.70 
  -2   3  -1  110.82   64.03 
   2   3   1   83.31   18.13 
  -2  -3  -1  107.61   35.88 
  -2   3  -1   79.74   34.10 
   1  -5  -3   51.40   25.06 
   1   5  -3   55.81   21.40 
   1   5  -3   44.44   18.71 
  -1   5   3   45.62   29.20 
   1  -5  -3   48.56   20.89 
  -1   5   3   57.00   26.87 
  -1   5   3   54.54   33.02 
  -1   5   3   53.23   22.02 
  -1  -5   3   69.77   28.71 
  -1  -5   3   64.61   34.51 
  -2   0   3   21.37   10.93 
   2   0  -3    6.31    5.82 
  -2   3   2   74.70   43.58 
  -2   0   3   19.18   13.48 
   2   3  -2   38.21   14.71 
  -2  -3   2    9.49   15.24 
   2   0  -3   12.01   17.52 
   2  -3  -2   75.42   37.07 
   2   3  -2   54.01   24.31 
   2  -3  -2   50.14   17.81 
   2   0  -3   18.23   12.88 
  -2   3   2   75.89   43.96 
  -2  -3   2   58.80   24.95 
   0   4   4  868.20   52.65 
   0  -4  -4  780.27   42.70 
   0   4   4  855.04   50.11 
   0  -4   4  854.73   49.91 
   0   4  -4  839.46   44.74 
   0   4  -4  811.02   47.19 
   0  -4   4  860.08   47.44 
   0   4   4  845.47   46.88 
   1  -6  -2 1630.54   69.51 
  -1   6   2 1608.35   67.72 
   1   6  -2 1620.16   83.40 
   2   1   2 2692.49  119.23 
   2  -1   2 2424.93   77.05 
   1   6  -2 1541.86   69.09 
  -1   6   2 1637.75   62.26 
   2   1   2 2814.54   84.92 
  -1   6   2 1676.62   72.60 
  -2   1  -2 2645.45  103.08 
   1  -6  -2 1582.36   61.33 
   2   1   2 2842.68   57.50 
   1  -6  -2 1575.79   66.86 
  -2  -1  -2 2739.57   56.95 
   2  -1   2 2744.93   84.41 
  -1  -6   2 1720.80   79.37 
  -2   1  -2 2706.78   64.60 
  -2   1   3   39.82   22.03 
  -2  -1   3   82.11   45.88 
  -2  -1   3   91.53   46.82 
   2  -1  -3   40.83   20.70 
   2   1  -3   44.35   16.55 
   2  -1  -3   39.00   19.00 
   2  -1  -3   39.85   17.18 
  -2   1   3   46.67   17.44 
   2   1  -3   50.35   21.21 
  -1   2  -4    6.94   10.37 
  -1   2  -4    7.74   17.03 
   1   2   4   26.94   20.11 
   1  -2   4   28.00   16.33 
  -1  -2  -4   12.80   13.30 
   1   2   4   14.94    9.09 
   1  -2   4   16.19    6.59 
  -1  -2  -4   21.50    9.54 
   2  -4  -1  130.12   43.68 
   2  -4  -1  148.91   52.18 
  -2   4   0 4364.93   92.83 
   2   4   0 4390.08   59.63 
  -2   4   1  171.06   78.28 
   2   4  -1   96.91   46.66 
   2  -4  -1  115.43   10.66 
   2   4  -1  100.28   42.66 
  -2  -4   1  125.94   52.72 
  -2  -4   0 4251.52   90.70 
  -2   4   0 4413.40   66.71 
   2  -4   0 4297.83   65.56 
  -2   4   0 4417.12   70.23 
   2  -4   0 4182.96   83.96 
  -2   4   1  138.90   20.62 
   2  -4   0 4324.60   58.95 
   2   4   0 4251.39   85.06 
  -2   4   1  199.00   73.14 
   2   4   0 4254.36   86.43 
   2   2   2   66.62   33.56 
  -2   2  -2   56.26   13.63 
  -2   2  -2   50.04   26.24 
  -2  -2  -2   76.78   28.60 
   2   2   2   53.74   20.28 
   2  -2   2   56.59   20.13 
  -2  -2   3 3924.52   72.25 
   2   2  -3 3796.85   85.48 
  -2  -2   3 3965.25   91.34 
   2   2  -3 3726.99   66.57 
  -2   2   3 3128.56   34.89 
  -2   2   3 3974.26   86.78 
   2  -2  -3 3868.61   38.40 
   2  -2  -3 3956.33   82.96 
   2  -2  -3 3799.38   82.34 
   0   0  -5    5.00   16.42 
   0   0   5   17.65    8.69 
   0   0  -5   22.55   13.15 
   0   0   5   31.64   18.76 
   0   6  -3  190.84   72.22 
   0   6   3  223.26   85.28 
   0   6  -3  201.76   78.57 
   0  -6  -3  225.36   63.03 
   0  -6  -3  244.73   88.95 
   0   6   3  181.17   21.19 
   0  -6   3  223.57   93.06 
   0   6   3  220.21   84.22 
   0  -6  -3  190.33   29.79 
  -1  -6  -2  850.51   55.98 
  -1   6  -2  834.99   42.08 
   1   6   2  875.09   54.97 
   1   6   2  878.54   50.49 
  -1   6  -2  801.31   43.78 
   1  -6   2  867.47   47.91 
  -1  -4   4 3943.76   83.50 
   1  -4  -4 3904.50  115.68 
   1  -4  -4 4010.05   83.86 
  -1   4   4 4225.42  103.17 
  -1  -4   4 4178.24   96.28 
   1   4  -4 3747.26   82.44 
  -1   4   4 3875.72   69.19 
   1   4  -4 3862.78   88.28 
  -1   4   4 3941.48   68.81 
   0   1   5  206.59   38.76 
   0  -1  -5  202.50   21.03 
   0  -1  -5  213.95   38.91 
   0   1   5  227.90   26.76 
   0  -1   5  208.89   58.33 
   0  -1   5  222.30   33.94 
   0   1  -5  201.78   60.11 
   0   1  -5  262.40   54.52 
   0   7   2 4115.87   67.45 
  -1   5  -3 5245.78   74.33 
   1   5   3 5491.14   91.95 
   1  -5   3 5434.81  101.63 
  -1  -5  -3 5482.42   93.38 
   0   7   2 3888.03   99.36 
   1   5   3 5318.25  104.50 
  -1  -5  -3 5254.84   51.54 
   0  -7   2 4271.36   93.19 
  -1   5  -3 5316.22   93.62 
   0   7   2 4113.99   88.81 
   0  -7  -2 4121.96   65.04 
   0  -7  -2 4064.12   87.08 
  -1  -5  -3 5568.82  113.63 
   0  -7  -2 4133.08   87.37 
   0   7  -2 4046.44   82.85 
  -2   4  -1  370.08   23.57 
   2   4   1  334.32   32.68 
   2   4   1  374.23   24.00 
   2  -4   1  350.97   31.97 
   2  -4   1  355.74   23.92 
  -2   4  -1  413.26   34.06 
  -2  -4  -1  277.80   31.41 
   2  -4   1  394.11   28.24 
  -2   4  -1  370.30   33.68 
  -1   7   0  215.95   80.84 
  -1  -7   0  167.11   26.93 
   2   4  -234733.53  311.64 
   2  -4  -234379.57  210.27 
  -2   4   234227.93  220.01 
   1  -7   0  154.07   49.54 
  -2  -4   235405.71  326.67 
   1  -7   0  185.60   46.35 
   1   7   0  169.95   59.32 
  -2   4   234671.44  297.85 
   2   4  -234686.99  275.74 
  -1   7   0  153.79   58.02 
   2  -4  -235883.48  297.37 
   1  -7   0  192.09   74.81 
  -1   7   0  121.57   20.23 
  -2  -4   235989.55  295.77 
   1  -3   4 4540.14  109.06 
  -1   3  -4 4513.41   87.20 
   1   3   4 4645.21  111.92 
  -1  -3  -4 4316.25  106.01 
   1   3   4 4619.32  119.38 
   1  -3   4 4496.32   84.87 
  -1  -3  -4 4674.48   97.10 
  -1   3  -4 4253.97  103.94 
   1  -7  -1  347.37   29.60 
  -1   7   1  378.87   43.01 
   1  -7  -1  393.76   83.94 
   1   7  -1  395.16   39.77 
  -1  -7   1  274.34   40.36 
  -1   7   1  350.77   37.88 
  -1   7   1  353.38   33.79 
   1  -7  -1  364.19   30.32 
  -1   0   520898.83  323.56 
  -1   0   521557.50  352.69 
   1   0  -521110.25  340.32 
   1   0  -520980.80  331.60 
   0   2   517430.31  290.80 
   0  -2  -517158.17  283.78 
   0  -2   518066.36  290.92 
   0  -2  -516966.94  272.73 
   0   2   517571.26  287.84 
   0   2  -517564.01  289.21 
   0  -2   517581.72  308.40 
   0   2  -518245.46  291.05 
   2   3   219137.37  319.98 
  -2   3  -217104.24  237.85 
  -2   3  -219504.63  314.89 
   2   3   219078.24  327.05 
   2  -3   219924.12  316.94 
  -2  -3  -219722.20  288.15 
  -2   3  -219611.19  319.90 
  -2   3   3   26.17   19.42 
  -2  -3   3   19.88   15.56 
   2   3  -3    4.17    9.74 
   2  -3  -3   14.36   15.12 
  -2   3   3   12.16   29.01 
   2  -3  -3   19.61   12.15 
   2   3  -3    4.52   18.14 
   0   5   4 5804.84  138.82 
   0   5  -4 5718.05  120.14 
   0   5  -4 5684.56  124.85 
   0   5   4 5950.17  130.28 
   0  -5  -4 5853.49  124.75 
   0  -5   4 4589.01  114.44 
   0  -5  -4 5781.35  110.13 
   0  -5   4 5971.70  126.46 
   0   5   4 6112.08  132.05 
  -1  -1   5 7363.63  155.36 
   1  -1  -5 7216.10  135.94 
  -1   1   5 7223.21  165.68 
   1   1  -5 7130.57  136.95 
  -1   1   5 7348.38  136.56 
   1  -1  -5 7135.13  145.25 
  -1  -1   5 7231.08  139.48 
   1   1  -5 6970.26  146.92 
  -1   7  -116565.01  278.59 
   1  -7   117062.52  276.74 
   1   7   116574.04  239.85 
  -1   7  -116552.95  269.32 
   1   7   116805.65  281.02 
   1   7   114863.42  256.22 
  -1  -7  -117191.72  295.23 
  -1   7  -116560.47  266.88 
   1   6  -3 2376.86  102.12 
   1  -6  -3 2633.25   74.09 
  -1   6   3 2493.82   61.98 
   1   6  -3 2435.02   79.86 
  -1   6   3 2594.60   75.72 
   1  -6  -3 2430.40   73.55 
   1  -6  -3 2429.75   81.70 
   2  -5   0 1094.29   34.82 
   2   5   0 1021.11   57.05 
  -2   5   0 1112.89   52.62 
   2   5   0 1069.75   47.12 
   2  -5   0 1123.88   36.15 
  -2  -5   0 1140.83   56.75 
   2   5   0 1112.95   33.61 
   2  -5   0 1023.20   59.04 
  -2   5   0 1158.26   63.32 
  -2   5   0 1124.45   36.79 
  -2   5   1  355.86   19.86 
  -2  -5   1  348.21   33.53 
  -2   5   1  323.87   33.35 
   2   5  -1  344.83   33.40 
   2   5  -1  348.15   62.78 
   2  -5  -1  313.59   25.72 
   2  -5  -1  346.11   30.45 
  -2   5   1  379.66   32.73 
   2  -5  -1  360.38   27.46 
   0   8   075763.98  344.52 
   0   8   073241.03  366.51 
   0  -8   075281.13  379.57 
   0   8   073584.47  346.15 
  -1   2   531122.71  481.21 
  -1   2   529781.67  444.22 
   1  -2  -530870.70  474.62 
   1  -2  -531698.47  196.95 
  -1  -2   531643.23  217.49 
   1   2  -531699.67  241.83 
  -1  -2   531222.34  483.59 
   1   2  -531739.92  208.37 
  -2   0  -3   -5.94   16.90 
   2   0   3   25.32   22.55 
   2   0   3   10.13    5.49 
  -2   0  -3   12.48   24.11 
   2   0  -4  296.89   29.62 
   2   0  -4  286.36   20.79 
  -2   0   4  287.62   22.25 
   0   3   5  210.02   75.03 
   0  -3  -5  142.59   65.26 
   0  -3  -5  116.95   39.68 
   0   3   5  158.17   57.05 
   0  -3   5  170.56   69.43 
   0   3  -5  164.63   58.94 
   0   3  -5  142.44   40.63 
   1   7  -2 7677.62  152.75 
  -1   7   2 8027.71  155.12 
   1   7  -2 7799.32  159.68 
  -1   7   2 7940.14  167.95 
  -1  -7   2 8338.47  173.23 
   1  -7  -2 7886.63  151.96 
   1  -7  -2 8241.08  149.72 
  -1   7   2 7998.82  141.51 
   1  -7  -2 8110.75  160.51 
   2   1   3  740.47  107.96 
  -2  -1  -3  604.76   56.18 
  -2  -1  -3  645.13   39.41 
  -2   1  -3  741.70   48.82 
   2   1   3  649.08   34.70 
   2  -1   3  758.65   58.24 
  -2   1  -3  634.56   42.50 
  -1   4  -423653.88  381.00 
  -1  -4  -424434.51  373.40 
   1   4   423323.09  361.45 
  -1   4  -423234.91  341.66 
   1   4   422147.75  363.03 
   1  -4   424775.96  392.63 
   1   5  -4 7042.73  141.37 
  -1   5   4 7489.81  136.15 
  -1  -5   4 7588.03  156.46 
  -1  -5   4 7527.31  161.66 
  -1   5   4 7735.04  140.10 
   1  -5  -4 7172.36  143.61 
   1   5  -4 7249.04  151.92 
   1  -5  -4 7274.50  142.56 
  -1   5   4 7434.66  157.96 
   2   1  -4  256.67   93.19 
  -2   1   4  217.57   19.87 
   2  -1  -4  219.16   36.50 
   2  -1  -4  199.43   76.65 
   2   1  -4  206.57   18.36 
  -2  -1   4  202.22   29.42 
  -2  -1   4  221.80   24.66 
   2  -1  -4  244.67   87.99 
   0  -8   1 3507.03  102.27 
   0  -8  -1 3727.59  101.14 
   0   8   1 3724.86  101.89 
   0   8  -1 3439.55   92.62 
   0   8   1 3635.53   93.99 
   0   8   1 3698.78   83.39 
  -2   4  -2  286.04   83.80 
   2   4   2  266.21   86.75 
  -2   4  -2  306.86   33.71 
  -2  -4  -2  266.05   16.32 
  -2  -4  -2  335.34  103.57 
   2  -4   2  278.72   32.25 
  -2   4  -2  259.05   20.70 
   2   5   1 1156.57   55.18 
  -2  -5  -1 1226.14   63.38 
   2  -5   1 1229.86   45.23 
  -2   5  -1 1217.31   42.24 
  -2   5  -1 1175.64   42.35 
   2  -5   1 1208.30   37.13 
  -2   5  -1 1210.10   55.51 
   2   5   1 1301.78   29.47 
   2  -5   1 1192.58   53.11 
   2  -4  -3  160.56   58.24 
  -2   5   2 1594.26   30.42 
  -2  -5   2 1530.91   63.31 
   2  -4  -3  157.80   68.69 
  -2   4   3  189.06   81.51 
   2  -5  -2 1540.54   32.10 
  -2  -4   3  175.84   30.29 
   2   4  -3  163.55   62.27 
   2  -5  -2 1616.51   60.11 
  -2   4   3  225.92  101.96 
  -2   5   2 1721.11   81.56 
   2   4  -3  138.11   34.18 
  -2  -4   3  169.18   23.10 
   2  -5  -2 1437.63   52.83 
  -2   5   2 1634.91   61.81 
   2   5  -2 1500.31   61.06 
   2   5  -2 1513.47   55.24 
  -2   2  -3  133.38   37.90 
  -2   2  -3  181.94   62.28 
   2   2   3  115.43   22.70 
   2   2   3  112.12   44.49 
  -2  -2  -3  107.23   19.74 
   2   2   3  186.45   63.57 
   2  -2   3  159.24   62.45 
  -1  -6  -3  311.45   28.19 
  -1  -6  -3  334.30   16.48 
  -1  -6  -3  341.47   40.73 
  -1   6  -3  292.22   26.80 
   1   6   3  327.73   35.17 
  -1   6  -3  314.28   26.15 
   1   6   3  295.18  100.68 
   1  -6   3  414.13  125.95 
   2  -2  -4 2211.08   72.72 
   2   2  -4 2090.62   58.04 
   2  -2  -4 2292.32   73.76 
   2   2  -4 2083.01   71.55 
   2  -2  -4 2263.07   49.27 
  -2  -2   4 2132.15   79.54 
  -2  -2   4 2127.38   69.53 
  -2   2   4 2225.28   47.87 
  -2   2   4 2373.05   90.75 
   1  -3  -5 5178.21  106.86 
  -1  -3   5 5251.45  128.21 
  -1  -3   5 5417.43  127.00 
  -1   3   5 5483.90  132.73 
   1  -3  -5 5146.68  121.64 
   1   3  -5 4981.77  122.38 
   1   3  -5 5113.50  112.99 
  -1   3   5 5266.38  108.56 
   0  -7   3  861.80   54.92 
   0   7   3  852.98   59.76 
   0  -7  -3  831.58   62.08 
   0   7  -3  849.44   48.59 
   0  -7  -3  833.69   52.89 
   0   7  -3  840.83   50.78 
   0  -7  -3  856.28   42.22 
   0   7   3  866.83   42.81 
   0   7   3  943.51   59.13 
  -1   7  -2   35.13   21.85 
  -1   7  -2   27.01   16.85 
  -1   7  -2   22.79   14.47 
   1   7   2   40.06    9.87 
   1   7   2   33.56   20.95 
   1  -7   2   15.98   10.38 
   1   7   2   24.59   30.10 
  -1  -7  -2   65.23   33.66 
   1   0   5   20.51   12.13 
  -1   0  -5   14.66   10.91 
  -1   0  -5    9.43   17.67 
   1   0   5   21.13   20.58 
   0  -6   4 2237.57   81.01 
   0   6   4 2193.60   75.78 
   0  -6  -4 2148.68   57.04 
   0   6  -4 2137.59   78.06 
   0  -6  -4 2350.48   73.15 
   0   6   4 2131.58   79.25 
   0   6   4 2144.54  102.72 
   0   6  -4 1903.26   66.61 
   0   4  -515683.75  264.18 
   0  -4   516699.38  285.38 
   0  -4   516340.83  271.00 
   1  -1   518440.12  291.32 
   0   4  -515126.33  258.52 
   0  -4  -514770.89  258.11 
   0  -4  -515761.87  262.73 
   1   1   518079.83  308.78 
   1  -1   517491.06  300.34 
   0   4   516186.46  276.37 
   1   1   519294.03  298.99 
  -1  -1  -518362.12  285.44 
   0   4   516302.06  276.26 
  -1   1  -518636.85  280.94 
   0  -8  -2  602.36   43.72 
   0  -8   2  664.42   47.42 
   0   8   2  615.88   40.93 
   0  -8  -2  658.47   47.24 
   0   8  -2  679.52   44.34 
   0   8   2  668.86   38.11 
   0   8   2  738.16   73.95 
   0  -8  -2  672.85   35.33 
  -1  -8   023824.32  420.96 
   1  -8   026101.16  402.48 
  -1   8   022874.46  352.01 
  -1   8   022981.63  367.41 
  -1   8   022849.86  374.30 
   2  -3   3  194.90   88.22 
   2   3   3  184.93   55.17 
   2   3   3  165.47   82.49 
  -2  -3  -3  145.93   29.71 
  -2   3  -3  222.54   91.78 
  -2   3  -3  213.89   54.43 
   2   3   3  175.50   42.88 
   2  -6   0 3115.05   73.09 
   2  -6   0 3086.15   69.67 
  -2   6   0 3061.37   77.10 
  -2   6   0 3053.47   67.88 
  -2  -6   0 3208.17  103.07 
  -2   6   0 3064.62   90.73 
   2   6   0 2887.36   86.33 
  -2  -3   4 1909.10   63.53 
   2   6  -1 1101.51   50.67 
   2  -3  -4 1858.29   43.15 
   2   3  -4 1800.62   71.84 
   2   6  -1 1024.93   56.27 
   2  -6  -1 1089.21   41.91 
   2  -3  -4 1882.11   66.60 
  -2  -3   4 1833.36   72.56 
  -2   3   4 1965.01   77.50 
  -2   6   1 1119.75   53.29 
  -2   6   1 1100.21   46.42 
  -2   6   1 1114.75   40.44 
  -2  -6   1 1168.40   57.24 
   2  -6  -1 1115.62   48.04 
  -2   3   4 1926.27   39.99 
  -1   8   1 7594.12  154.69 
   1  -8  -1 7404.74  142.58 
  -1   8   1 7489.73  157.00 
   1  -8  -1 7715.28  155.60 
  -1  -8   1 7916.59  174.41 
   1  -8  -1 6878.49  138.93 
  -1   8   1 7403.43  141.82 
  -1   5  -4  145.13   44.29 
   1   5   4  251.02   97.34 
   1  -5   4  163.05   62.83 
   1   5   4  157.66   45.65 
   1   5   4  266.38   94.58 
  -1   5  -4  137.07   39.26 
  -1  -5  -4  202.30   45.73 
   1   2   5 2753.00   72.56 
   1  -2   5 2606.29   85.74 
  -1   2  -5 2658.71   61.54 
   1  -2   5 2610.69   62.97 
   1   2   5 2647.68   91.67 
  -1  -2  -5 2553.93   65.44 
  -1   7   3  114.61   35.72 
  -1   7   3  104.98   58.88 
  -1   7   3   95.20   40.60 
   1   7  -3  106.08   39.50 
   1  -7  -3   94.07   30.03 
  -1  -7   3  159.90   84.05 
   1  -7  -3   77.16   42.97 
   1  -4  -525448.23  425.77 
   1   4  -525428.07  396.32 
   1  -4  -525625.91  400.72 
  -1   4   524433.00  426.79 
  -1  -4   526736.75  423.63 
  -1   4   527802.41  442.11 
  -1  -4   525985.36  417.69 
   1   4  -526276.72  416.98 
   2   5   2  245.49   52.95 
  -2   5  -2  224.36   17.83 
  -2   5  -2  271.33  108.44 
  -2   5  -2  226.52   76.18 
  -2  -5  -2  340.76  147.11 
   2  -5   2  212.27   30.32 
  -2  -5   3 1126.26   75.45 
  -2   5   3 1022.86   84.27 
  -2   5   3  952.95   56.85 
  -2  -5   3 1093.94   50.51 
   2  -5  -3  894.16   50.48 
  -2   5   3  922.51   32.13 
  -2   5   3 1026.02   35.83 
   2   5  -3  953.55   52.60 
   1   8   1  858.83   36.51 
  -1   8  -1  889.08   54.93 
  -1   8  -1  833.10   71.21 
  -1  -8  -1  887.65   61.23 
  -1   8  -1  834.40   46.51 
   1  -8   1  813.82   50.08 
   1   8   1  823.70   51.87 
  -1   6   4 1894.90   54.94 
   1   6  -4 1836.56   71.30 
  -1   6   4 1983.12   59.28 
  -1  -6   4 2138.16   82.36 
  -1   6   4 2176.93   78.19 
   1  -6  -4 1975.46   63.87 
  -1  -6   4 1989.95   91.47 
  -1   6   4 2149.29   82.33 
  -2   6  -1 7003.20  126.58 
  -2  -6  -1 6778.68  157.54 
   2  -6   1 7026.12  125.32 
   2   6   1 6795.71  102.26 
  -2   6  -1 6899.82  153.19 
   2  -6   1 7084.86  135.74 
  -2   6  -1 6849.44  149.62 
   2  -6  -2  138.82   56.64 
   2   6  -2  144.41   50.10 
   2  -6  -2  136.48   19.16 
  -2  -6   2  213.54   97.20 
  -2   6   2  233.21   87.50 
  -2   6   2  151.73   23.82 
  -2   6   2  146.36   21.62 
  -1  -3  -5  326.40   47.20 
   1  -3   5  371.68   26.14 
   1   3   5  370.93   31.76 
  -1   3  -5  370.18   24.28 
   1  -3   5  464.00  131.93 
   1   3   5  371.90   42.08 
   1  -8  -2 4599.25  109.48 
  -1  -8   2 4290.84  116.58 
  -1   8   2 4655.67   99.19 
  -1   8   2 4952.02  121.59 
   1  -8  -2 4742.70  104.83 
  -1   8   2 4913.27  115.30 
  -2   4  -3   -7.00   15.32 
  -2   4  -3   11.99    5.29 
   2  -4   3    4.82   14.45 
   2   4   3    8.53    9.71 
  -2  -4  -3    6.67    9.47 
   2   4   3   16.37   33.07 
  -2   4  -3    4.20    3.91 
  -2   4  -3   20.20   20.84 
   0   0   613821.13  258.02 
   0   0  -613636.18  235.52 
   0   0   613987.48  293.77 
   0   0  -613360.39  247.21 
  -2  -4   4  338.63  121.74 
  -2   4   4  230.34   32.52 
  -2  -4   4  190.10   42.17 
   0   9   0   11.83   20.83 
   0   9   0   10.41   17.00 
   0   9   0   12.63   19.33 
  -2   4   4  206.27   15.95 
  -2   4   4  214.50   21.99 
   0  -9   0   18.90   20.20 
   2   4  -4  185.31   59.87 
   0  -5  -5   69.34   21.08 
   0  -5   5   80.32   29.88 
   0  -5   5   89.10   36.32 
   0   5   5  102.82   50.40 
   0   5   5   73.05   27.98 
   0   5   5  136.99   51.91 
   0  -5  -5   76.31   30.14 
   0   5  -5   83.08   38.71 
   0  -1  -6   28.68   16.59 
   0   1   6   16.23   13.77 
   0  -1  -6   23.15    9.16 
   0  -1   6   25.41   13.20 
   0  -1   6   28.32   16.53 
   0   1   6   24.39   18.21 
   0   1  -6   23.68   16.77 
  -1  -7  -3   26.84    6.99 
   1  -7   3   25.27   18.73 
   1   7   3   39.43   28.36 
  -1   7  -3   27.21    9.74 
  -1  -7  -3   17.69   25.67 
   2   0   4   91.64   23.81 
   2   0   4  106.20   59.27 
  -2   0   5    7.01   21.05 
  -2   0   5    8.61   10.75 
   2   0  -5   15.98    9.14 
   0   9  -1 1172.12   47.73 
   0   9   1 1276.23   59.45 
   0  -9  -1 1290.62   65.31 
   0  -9   1 1355.38   64.93 
   0   9   1 1235.93   47.16 
   0   9   1 1199.56   64.66 
   2   1   4 4433.18  123.60 
   2  -1   4 4561.65  139.15 
   2  -1   4 4407.61   68.49 
   2   1   4 4447.83   83.22 
   1   0  -6    4.84   31.09 
  -1   0   6   15.01   26.86 
  -1   0   6   -0.28   11.87 
   1   0  -6    3.09   12.11 
  -2   1   5   78.70   41.38 
   2   1  -5   73.73   28.77 
  -2  -1   5   89.55   32.02 
  -2   1   5   88.75   37.09 
  -2  -1   5   88.36   45.16 
   2  -1  -5   67.68   24.96 
   3   0  -113487.97  251.73 
   0  -8   3   88.61   49.36 
   0  -8  -3   99.80   28.72 
  -3   0   114125.47  249.36 
   3   0  -113891.04  233.62 
   0   8  -3   79.55   32.47 
   0   8   3  111.75   45.41 
   0   8   3  100.00   50.11 
   0  -8  -3   90.42   46.08 
   0   8   3  133.59   49.41 
   3   0  -113023.80  236.46 
   3   0  -113497.25  218.28 
  -3   0   113192.07  233.52 
  -1  -1   6  508.46   62.44 
   1  -8   2 4009.34  107.09 
  -1   8  -2 3816.14   95.86 
  -1   8  -2 3930.54   95.13 
  -1  -8  -2 4140.72  120.76 
   1  -1  -6  468.54   47.21 
  -1  -1   6  439.30   68.33 
  -1   1   6  478.45   47.59 
   1   8   2 4218.31   79.93 
  -1   8  -2 4195.44  109.29 
   1   8   2 4281.42  116.63 
   1   1  -6  502.39   77.78 
  -1   1   6  515.33   47.05 
   0  -2  -6   34.02   13.18 
   0  -2   6   60.10   22.67 
   0   2   6   66.21   45.84 
   0  -2   6   54.40   30.95 
   0   2  -6   49.44   23.49 
   0   2   6   57.46   33.29 
   0  -2  -6   30.07   11.17 
   0   7   413169.20  238.10 
   0  -7  -413962.41  258.47 
   0  -7   414023.91  256.58 
   0  -7  -413417.72  218.24 
   0   7   413525.22  245.60 
   0   7  -413544.60  239.51 
  -1  -5   5 3020.74   99.19 
  -1   5   5 2753.97   73.58 
  -1  -5   5 2978.46   90.90 
   1  -5  -5 2773.33   80.53 
  -1   5   5 2832.81   74.27 
  -1   5   5 3037.07  101.23 
   3   1  -111998.44  210.09 
   3  -1  -112287.91  197.25 
  -3  -1   112558.34  224.20 
  -3   1   112797.56  266.62 
   3   1  -112409.34  215.87 
   3  -1  -111959.79  205.93 
   3  -1  -112848.40  213.64 
   3   1  -112277.79  213.08 
  -3  -1   112212.09  217.87 
  -3   1   112480.35  219.09 
  -3  -1   112485.05  219.10 
   3  -1  -112244.06  220.27 
  -3   0   0    0.59   17.73 
   3   0   0    3.95   10.09 
   3   0   0    9.75   11.60 
   3   0   0   13.99    9.07 
  -3   0   0    8.78   14.64 
   3   0   0   16.27   20.61 
  -1   6  -4 7945.91  144.80 
   1   6   4 8290.06  179.56 
   1   6   4 8435.62  170.15 
   1  -6   4 8514.68  175.20 
  -1  -6  -4 7994.31  129.75 
  -1  -6  -4 8341.87  162.91 
  -3  -1   0  686.71   42.86 
   3  -1   0  754.42   42.09 
   3   1   0  685.36   44.25 
   3   1   0  704.84   44.38 
   3  -1   0  746.23   43.02 
  -3   1   0  765.44   60.15 
  -3   1   0  746.18   44.00 
   3  -1   0  653.60   69.24 
   3  -1   0  745.85   78.09 
  -3  -1   0  686.39   44.94 
   3   1   0  727.40   42.75 
   3   1   0  645.08   38.47 
   2   2   4   52.19   30.26 
   2   2   4   49.71   20.11 
   2  -2   4   49.63   30.61 
  -2   7   0   47.96   18.19 
  -2  -7   0   76.25   28.07 
  -2   7   0   62.92   19.14 
   2  -7   0   31.04   17.04 
   2  -7   0   41.98   25.74 
  -2   7   0   90.94   34.59 
  -2  -2   5 1604.46   66.61 
   2   2  -5 1563.66   52.00 
  -2  -7   1 2810.45   96.65 
  -2  -2   5 1523.10  127.23 
  -2   2   5 1732.10   47.12 
   2  -7  -1 2710.03   74.65 
  -2   7   1 2774.28   89.81 
  -2   2   5 1749.46   76.97 
   2  -7  -1 2868.71   65.46 
  -2   7   1 2763.92   80.60 
  -2   7   1 2614.77   60.32 
   2  -2  -5 1569.48   45.13 
   1  -4   5  125.72   56.76 
   1   4   5  155.85   67.29 
  -1   4  -5   96.88   34.61 
   1  -4   5  143.89   34.97 
  -1  -4  -5  105.02   33.45 
   1   4   5  148.55   56.85 
   2   6   2  149.83   79.69 
  -2   6  -2  166.14   80.52 
  -2   6  -2  112.39   21.59 
   2  -6   2  151.77   47.47 
  -2   6  -2  111.59   32.80 
  -2  -6  -2  166.97   91.62 
  -2   6   3  110.10   13.33 
  -2   6   3  162.75   64.37 
  -2  -6   3  200.50   99.91 
  -2  -6   3  123.73   59.22 
  -2   6   3  161.76   62.99 
   2   6  -3  106.04   40.63 
  -2   6   3  113.04   15.65 
   1   2  -6 6888.16  141.88 
  -1  -2   6 7287.52  159.48 
   1  -2  -6 7090.88  148.44 
   3   0  -2    6.49   11.96 
  -1  -2   6 7339.50  155.48 
  -3   0   2    2.41   11.87 
   3   0  -2    4.88    9.61 
  -3   0   2   30.60   17.31 
  -3   0   2   -4.91   25.36 
  -1   2   6 7510.01  164.74 
   3   0  -2    6.16    6.26 
  -1   2   6 7604.78  149.21 
   3  -2  -1 4028.20   82.25 
  -3   2   1 3883.17  117.72 
  -3   2   1 4148.61  100.39 
   3  -2  -1 3909.40   90.77 
   3   2  -1 3694.13  106.05 
  -3  -2   1 3823.73   99.28 
   3  -2  -1 4060.49   81.63 
  -3  -2   1 3857.94   98.86 
   3   2  -1 3670.63   89.43 
   3   2  -1 3685.02   94.42 
  -3   1   2  597.76   44.07 
  -3  -1   2  639.35   47.30 
  -3  -1   2  639.95   38.95 
   3   1  -2  625.04   35.80 
   3  -1  -2  601.89   84.56 
  -3   1   2  630.16   45.30 
   3   1  -2  583.01   40.17 
   3   1  -2  578.30   40.41 
   3  -1  -2  656.05   35.59 
  -3  -2   0  688.38   47.65 
   3   2   0  617.06   41.35 
   3   2   0  714.19   41.55 
  -3   2   0  602.39   58.47 
   3  -2   0  547.52   37.29 
   3  -2   0  553.74   53.00 
   3  -2   0  615.09   50.15 
   3   2   0  605.20   37.95 
   3  -2   0  639.72   38.17 
  -3  -2   0  673.52   43.06 
  -3   2   0  609.96   35.24 
  -2   5  -3 3121.58   59.12 
   2   5   3 3127.38  104.82 
   2  -5   3 3299.80   91.02 
   2   5   3 3146.48   82.64 
  -2   5  -3 3114.68  117.33 
  -2   5  -3 3175.59   61.58 
  -2  -5  -3 3086.84   51.74 
  -2   5  -3 3455.27  111.84 
   0  -3   6  741.65   54.37 
   0  -3  -6  713.53   47.05 
   0   3   6  700.88   72.69 
   0   3   6  730.77   56.62 
   0  -3   6  784.11   60.14 
   0  -3  -6  639.57   57.51 
   0   3  -6  773.90   48.62 
   0  -9  -2 7462.26  164.68 
  -1   7   4  174.12   23.04 
  -1   7   4  251.09   93.24 
  -1   7   4  235.88   82.46 
   0   9   2 7256.30  147.86 
   0  -9  -2 7133.27  131.39 
   0   9   2 6800.26  158.99 
  -1   7   4  169.97   30.54 
   0   9   2 6764.22  143.03 
   1  -7  -4  222.50   64.09 
  -2  -5   4 7530.70  161.57 
   0  -9   2 7205.55  160.94 
  -1  -7   4  199.01   44.93 
  -2   5   4 6961.64  112.45 
   2   5  -4 7099.65  144.85 
  -2   5   4 7611.52  172.43 
  -2  -5   4 5342.69  138.93 
  -2   5   4 7572.12  192.69 
  -2   5   4 7599.52  122.05 
   1  -8  -325357.08  394.65 
   1  -8  -326028.50  403.33 
  -1   8   325807.82  392.70 
  -1   8   326882.06  434.40 
  -1   8   326408.35  438.93 
  -1  -8   322988.51  388.32 
  -1  -9   016186.65  302.17 
  -1   9   015585.21  275.38 
  -1   9   015075.12  260.60 
  -1   9   015823.11  342.56 
   1  -9   015847.94  275.17 
   3   0   1 5112.15  108.43 
   3   0   1 5562.06  125.23 
  -3   0  -1 5173.82  117.81 
   3   0   1 4973.79  118.53 
  -3   0  -1 5338.74  105.03 
   3   0   1 5113.65  110.62 
  -2   7  -1 5731.73  138.02 
   2   7   1 5954.40   90.54 
   2  -7   1 5369.62  110.68 
  -2  -7  -1 4833.72  133.25 
  -2   7  -1 5018.19  126.02 
   2  -7   1 5768.65  118.86 
  -2   7  -1 5494.58  116.86 
  -2   7   2  183.19   17.30 
  -2  -7   2  220.65   97.08 
  -2   7   2  200.76   32.67 
  -2   7   2  195.75   44.21 
   2  -7  -2  190.50   55.74 
   2  -7  -2  180.25   20.60 
  -1   9   1   29.67   21.87 
  -1   9   1   23.06   19.20 
  -3  -2   2 3797.96  148.68 
   3  -2  -2 3612.15   66.97 
  -1   9   1   23.20   18.32 
   3   2  -2 3857.97  134.74 
  -1  -9   1   23.14   23.34 
   3  -2  -2 3972.31   73.65 
  -3   2   2 3982.34  103.66 
   3   2  -2 3736.63   87.91 
  -3  -2   2 3752.89   95.61 
   3  -2  -2 3480.93   89.65 
  -3   2   2 4045.12  112.64 
   3   2  -2 3869.48  104.47 
   2   3   4 6979.40  131.01 
   2  -3   4 6778.48  150.92 
   1  -9  -1   16.49    8.56 
   1  -9  -1   32.17   17.70 
   2   3   4 6374.09  153.31 
  -3   1  -1 1079.61   34.67 
  -3  -1  -1 1059.75   46.00 
   3  -1   1 1099.09   50.18 
   3  -1   1 1124.51   52.43 
   3   1   1 1079.23   64.29 
   3   1   1 1036.95   59.58 
   3  -1   1  989.46   64.59 
   3  -1   1 1054.96   33.33 
   3   1   1 1002.16   48.31 
  -3   1  -1 1038.26   58.47 
   3   1   1  977.40   55.47 
  -2  -3   5  155.76   76.32 
   2  -3  -5  117.39   27.45 
  -2  -3   5  140.71   73.64 
   2   3  -5  135.48   58.35 
  -2   3   5  151.22   93.09 
  -2   3   5  125.08   37.22 
   0   6   5 9771.95  195.39 
   0  -6   5 9889.50  198.35 
   0  -6   510043.95  192.78 
   0   6   5 9405.37  187.40 
   0   6   510411.57  208.70 
   0   6  -5 9721.79  187.19 
   0  -6  -5 9635.80  186.18 
  -1   3   6 3183.15   87.05 
  -1  -3   6 3312.21  104.43 
  -1   3   6 3234.61   98.48 
  -1  -3   6 3396.25  101.02 
   1  -3  -6 3172.81   83.88 
   3   3  -120402.43  326.77 
   3  -3  -121301.80  330.61 
   3  -3  -121523.92  312.93 
  -3   3   121766.09  346.21 
  -3  -3   121220.23  357.78 
  -3   3   122372.25  377.24 
   3   3  -121179.76  330.63 
   3   3  -120814.08  348.70 
   3  -3  -122178.88  325.76 
  -3  -3   121827.98  377.05 
  -1   9  -111352.17  204.72 
  -1   9  -112166.83  221.02 
  -1   9  -112581.66  234.05 
   1  -9   111886.40  221.51 
   1   9   111915.46  191.35 
   1   9   112103.94  247.73 
  -1  -9  -110717.30  222.51 
   3  -3   010590.77  179.18 
   3   3   010143.07  192.74 
  -3  -3   0 9420.54  196.73 
  -3   3   010456.15  178.90 
   3   3   010398.67  191.78 
  -3  -3   010206.97  202.85 
   3   3   010959.09  195.71 
   3  -3   010349.69  179.82 
  -3   3   010348.50  208.28 
   3   2   1 4449.55   92.50 
   3   2   1 4505.12  109.58 
   3  -2   1 4756.28  102.18 
   3  -2   1 4263.44  116.25 
  -3   2  -1 4221.16   95.23 
   3  -2   1 4318.66   84.54 
   3   2   1 4712.16  115.30 
  -3   2  -1 4591.23  114.78 
   3   2   1 4640.19   98.84 
  -3  -2  -1 4560.24   98.67 
  -3   2  -1 4538.93   84.79 
   3   0  -322949.35  135.54 
  -3   0   321626.92  214.87 
  -3   0   324544.36  149.97 
  -1   5  -5 2145.03   53.74 
   1  -5   5 2286.32   82.31 
  -1  -5  -5 2059.60  100.27 
   1   5   5 1928.06   91.72 
   1   5   5 2061.66   81.04 
   1  -6  -5 5396.41  120.99 
  -1  -6   5 5133.77  129.52 
  -1   6   5 5602.49  117.46 
  -1   6   5 5535.21  125.25 
  -1  -6   5 5581.22  139.46 
  -1   6   5 5718.85  135.60 
   3   1  -3 4766.79   92.76 
  -3   1   3 4986.69   90.23 
  -3   1   3 4945.01  131.47 
  -3  -1   3 5116.29  130.21 
   3  -1  -3 4786.80   82.80 
  -3  -1   3 4828.41   97.96 
  -3   3   2  582.17   51.39 
   3  -3  -2  551.72   37.43 
  -3  -3   2  513.98   46.20 
  -3  -3   2  527.17   45.74 
  -3   3   2  491.82   39.95 
   3   3  -2  502.86   31.16 
   3  -3  -2  531.18   18.69 
   3   3  -2  477.02   36.80 
   3  -3  -2  582.40   21.86 
   0   4   6  552.82   47.05 
   0  -4   6  517.78   48.54 
   0  -4   6  564.24   52.52 
   0   4   6  531.53   41.30 
   0   4  -6  553.17   39.21 
   1   0   6    7.83   11.68 
   1   0   6    7.24    6.42 
  -1   0  -6    6.66    7.63 
  -1  -8  -3 1540.59   44.77 
   1   8   3 1442.74   66.61 
  -1  -8  -3 1342.55   95.77 
   1  -8   3 1426.51   94.42 
   1  -9  -2 2048.59   76.57 
  -1  -9   2 2020.24   89.17 
  -1   9   2 2037.89   80.25 
  -1   9   2 2195.18   76.15 
   1  -9  -2 2109.30   63.44 
  -1   9   2 2163.31   73.28 
  -1   1  -6  519.72   28.79 
   1  -1   6  512.35   87.95 
   1   1   6  420.82   40.10 
   1   1   6  436.57   29.92 
   1  -1   6  483.70   29.82 
  -1  -1  -6  419.70   44.77 
  -2  -4  -4 5585.83   94.03 
   2   4   4 5600.28  140.32 
   2   4   4 5711.00  119.01 
   2  -4   4 5807.52  131.11 
   1  -7   4 3200.67   95.47 
   1   7   4 2663.12   90.74 
  -1  -7  -4 3079.65   62.17 
  -1   7  -4 3119.39   79.04 
   1   7   4 3150.44   93.39 
  -2   4   5  164.84   86.60 
  -2  -4   5  179.59   70.99 
  -2   4   5  132.10   24.88 
   2  -4  -5  123.68   25.19 
  -2  -4   5  130.17   54.90 
   2   4  -5   93.91   35.64 
  -3  -2   316946.60  261.87 
  -3  -2   316482.93  285.03 
  -3   2   316225.03  320.68 
   3  -2  -316052.06  211.99 
   3   2  -315440.38  232.94 
  -3   2   316208.36  279.25 
  -1  -4   6 4338.86  116.81 
  -1   4   6 4253.31  116.78 
  -1   4   6 4034.85   97.43 
   1  -4  -6 3943.21   93.41 
  -1  -4   6 4014.13  112.52 
  -3   3  -1   39.75   20.96 
   3   3   1   27.59   17.67 
  -3   3  -1   32.96   12.24 
   3   3   1   28.14   13.61 
  -3   3  -1   40.24   21.86 
   3  -3   1   32.66   11.94 
  -3  -3  -1   19.06    8.86 
   3  -3   1   38.54   15.69 
   3   3   1   12.32   14.99 
   0  -8  -4  232.79   90.57 
   0   8   4  232.99   66.21 
   0  -8  -4  251.58   54.04 
   0  -8   4  267.89   97.12 
   0   8   4  315.12  114.00 
   0   8  -4  252.82   91.62 
   0  10   0 8939.20  180.93 
   0 -10   0 9578.48  190.42 
   0  10   0 9508.87  170.71 
  -2   7  -2  933.74   66.69 
  -3   4   1 2188.03   82.77 
  -2   7  -2  941.95   57.66 
   2  -7   2  938.22   51.18 
   2   7   2 1027.26   63.29 
   3  -4  -1 2183.92   49.47 
  -3   4   1 2207.61   68.38 
  -2   7  -2  879.14   39.04 
   3  -4  -1 2171.28   68.62 
   3  -4  -1 2188.90   45.89 
   3   4  -1 2024.07   81.02 
  -2  -7  -2  941.63   62.60 
   3   4  -1 2114.62   59.01 
   3   4  -1 1993.46   77.39 
  -3  -4   1 2206.60   78.71 
  -2  -7   3  702.24   62.00 
  -2   7   3  793.30   30.42 
  -2   7   3  697.62   47.57 
   2  -7  -3  785.45   40.83 
  -2   7   3  754.69   52.02 
  -2  -6  -3 3355.61  113.79 
   2  -6   3 3344.63   93.20 
  -2   6  -3 3324.00  103.91 
  -2   6  -3 3121.36  112.32 
  -2   6  -3 3219.39   73.15 
   2   6   3 3366.01  108.22 
  -1  -2  -6  126.86   36.08 
   1  -2   6  126.52   50.27 
   1   2   6  151.52   86.46 
   1  -2   6  148.81   56.00 
   3   0   2   12.54   15.66 
   3   0   2    3.50    9.49 
   3   0   2   15.80   20.02 
   3   0   2   -0.89    7.27 
   1   2   6  217.09   72.66 
  -3   0  -2   -0.76   17.89 
  -1   2  -6  157.85   49.47 
  -2  -6   4  532.16   47.05 
  -2   6   4  483.72   41.65 
  -2   6   4  529.13   43.09 
  -2  -6   4  538.65   48.99 
  -2   6   4  463.75   25.24 
  -2   6   4  512.41   20.41 
   0  -9  -3 9919.93  162.94 
   0   9   310137.08  169.69 
   0   9   310294.57  199.32 
   0  -9  -310172.09  203.03 
   0  -9   3 9875.36  195.65 
   3   4   0  625.53   42.60 
  -3  -4   0  770.60   56.35 
   3  -4   0  725.01   33.77 
  -3   4   0  726.49   48.33 
  -3   4   0  761.06   40.05 
   3   4   0  822.22   68.67 
  -3   4   0  669.83   36.62 
   3   4   0  656.42   42.91 
   3  -4   0  690.47   34.51 
  -1   9  -2  422.31   34.60 
  -1   9  -2  440.21   31.80 
   1  -9   2  422.05   36.54 
   1   9   2  494.87   40.57 
   1   9   2  516.76   46.47 
  -1  -9  -2  496.01   49.23 
   3  -1   2 3111.46   94.43 
   3   1   2 2864.60   70.64 
   3  -1   2 2876.03   82.54 
   3   1   2 2846.66   85.47 
  -3   1  -2 2738.39   81.76 
   3  -1   2 2883.30   54.26 
   3   1   2 3082.71   97.97 
   3   1   2 3206.06   80.17 
  -3   1  -2 3075.89   87.57 
  -3  -1  -2 3056.53   83.71 
  -2  -8   0  694.35   52.17 
  -2   8   0  717.98   57.64 
  -2  -8   1 4627.46  149.48 
   2  -8  -1 4338.88  100.06 
  -2   8   1 4230.44   84.30 
   2  -8  -1 4409.34  102.48 
  -2   8   1 4365.19  116.12 
  -2   8   0  695.22   45.04 
  -2   8   1 4362.79  110.10 
   2  -8   0  657.43   40.62 
  -2   8   0  685.56   35.41 
   2  -8   0  702.38   65.31 
   0  10  -1 1812.90   80.14 
   0 -10   1 2216.13   84.94 
   0  10  -1 2217.45   69.74 
   0  10   1 2091.92   90.27 
   0  10   1 2086.14   85.35 
   0 -10  -1 2194.25   86.34 
   3   4  -2 4477.08  103.54 
   3   4  -2 4420.22  124.06 
  -3  -4   2 4566.07  116.15 
  -3  -4   2 4684.93  127.08 
  -3   4   2 4667.51  119.65 
   3  -4  -2 4502.67  109.01 
  -3   4   2 4789.74  115.04 
   3   3  -3 2434.78   68.49 
  -3  -3   3 2193.28   89.50 
   3   3  -3 2407.72   70.76 
  -3   3   3 2442.74   89.97 
  -3   3   3 2528.44   86.30 
  -3  -3   3 2651.80   82.66 
   3  -2   2 1349.82   63.00 
  -3   2  -2 1184.70   70.57 
  -3  -2  -2 1206.17   51.29 
   3   2   2 1260.05   74.27 
   3  -2   2 1132.66   40.20 
  -3   2  -2 1286.01   63.14 
   3   2   2 1278.80   91.11 
   3   2   2 1133.07   44.68 
   2   0   5    5.62   12.00 
  -2   0  -5    3.21    8.36 
   2   0   5   19.11   20.26 
  -1  -8   4 2358.92   90.28 
   1  -8  -4 2432.19   76.88 
  -1   8   4 2170.20   71.31 
   1  -8  -4 2195.05   75.00 
  -1   8   4 2356.02   75.92 
  -1   8   4 2259.10   80.89 
   0   7   5 2065.06   95.21 
   0   7   5 2050.02   84.44 
   0   7  -5 2029.62  101.08 
   0  -7  -5 1985.48   69.08 
   0  -7   5 2225.52   81.29 
  -2   0   613077.11  245.57 
   2   0  -612196.46  195.86 
  -2   0   612639.69  206.06 
   0   5   6  971.00   58.21 
   0  -5   6 1007.32   61.49 
   0   5  -6  909.15   70.86 
   0   5   6  958.25   58.35 
   0  -5   6 1009.41   58.91 
  -1  -3  -6 1800.80   71.03 
   1  -3   6 1913.12   83.92 
   1   3   6 1818.91   85.24 
   1  -3   6 1906.69   69.83 
  -1   3  -6 1944.86   77.76 
   1   3   6 1795.09   72.72 
   2  -1   5   74.99   38.03 
   2  -1   5   84.67   20.42 
  -2  -1  -5   69.24   27.52 
   2   1   5   83.61   30.71 
   2   1   5   96.84   33.83 
  -2   1  -5   81.93   26.67 
  -2  -8  -1 1779.59   82.59 
   2  -8   1 1876.91   71.74 
  -2   8  -1 1855.57   68.36 
  -2   8  -1 1801.40   79.69 
  -2   8  -1 1713.26   65.98 
  -2   8   2 4570.29  117.39 
  -2  -1   6 3116.21   88.32 
  -2   8   2 4333.83   82.38 
  -2   8   2 4539.35  113.45 
   2  -1  -6 2957.88   72.19 
  -2   1   6 3150.35  103.28 
   2  -8  -2 4338.11   89.41 
  -2  -8   2 4382.81  124.70 
   2   1  -6 3078.42   78.64 
  -2  -1   6 3137.49  107.45 
  -2   1   6 3150.04   77.06 
  -3   4  -1   31.83   12.58 
   3  -4   1   12.78    7.97 
   3  -4   1   24.75    9.45 
  -3  -4  -1   21.99   14.22 
   3   4   1   22.58   10.96 
  -3   4  -1   25.66   19.65 
  -3   4  -1   22.29   16.77 
  -3  -4  -1   18.92    8.28 
   3   4   1   12.96   10.74 
   1   6   5  376.22   59.41 
  -1   6  -5  403.83   61.93 
   1  -6   5  420.59   41.92 
   1   6   5  525.72   85.05 
  -1   9   3 2105.86   67.07 
  -1  -9   3 2238.94   94.27 
   1  -9  -3 2062.79   75.97 
   1  -9  -3 2232.39   77.45 
  -1   9   3 2098.92   64.37 
  -1   9   3 2188.12   81.61 
   2   5   4 7073.56  168.15 
  -2   5  -4 6684.13  101.37 
  -2   5  -4 6685.44   97.71 
   2  -5   4 6934.29  149.46 
   2   5   4 7012.46  136.94 
  -2  -5  -4 6834.60  106.35 
  -2  -5   5  631.89   44.84 
   3   0  -4    7.43   13.57 
  -2   5   5  526.66   29.79 
  -2   5   5  559.71   28.41 
  -3   0   4    6.40   17.02 
  -3   0   4   12.73   14.39 
  -2  -5   5  666.47   70.02 
  -2   5   5  587.73   51.94 
  -1   5   6  803.25   43.28 
  -1  -5   6  752.51   51.56 
  -1  -5   6  847.05   57.68 
  -1   5   6  940.38   56.10 
  -1   5   6  888.58   48.42 
  -3   1   4 5216.94   93.01 
  -3  -1   4 4985.93  131.93 
  -3  -1   4 4951.07  103.96 
   2   2   5 5725.40  146.31 
   3  -1  -4 4865.54   87.50 
   3   1  -4 4910.58   95.48 
   2   2   5 5642.05  107.10 
  -2   2  -5 6081.60   87.66 
  -3   1   4 4860.58  131.47 
   2  -2   5 5535.41  136.06 
  -2  -2  -5 5317.56   99.94 
   2  -2   5 5290.18   80.26 
   0  10   2 1804.58   66.44 
   0 -10   2 1847.34   88.19 
   0 -10  -2 1739.12   81.29 
   1  -7  -5 1483.02   68.98 
  -1  -7   5 1620.12   83.27 
  -1   7   5 1588.84   78.11 
  -1   7   5 1469.13   63.01 
  -1  -7   5 1682.65   82.16 
  -1   7   5 1483.07   62.46 
   0 -10  -2 1745.29   63.06 
   0  10   2 1887.69   81.21 
   3  -5  -115988.38  257.40 
  -3   5   115972.06  256.44 
  -3  -5   116726.55  284.96 
  -3   5   116654.19  286.17 
  -3   5   115920.44  221.10 
   3   5  -116535.43  248.56 
   3  -5  -117130.59  233.27 
  -1 -10   0 1298.11   74.69 
  -1  10   0 1154.06   57.19 
   1  10   0 1253.52   67.29 
   2  -2  -6 4291.51   90.69 
  -2   2   6 4333.08   92.66 
  -1  10   0 1188.52   63.80 
  -2  -2   6 4381.93  124.83 
   1 -10   0 1221.41   59.02 
  -2  -2   6 4379.72  115.71 
   2   2  -6 4117.02   94.59 
  -2   2   6 3004.51  101.23 
  -1  10   0 1268.13   60.18 
   3  -3   2 2331.88   72.92 
  -3   3  -2 2355.92   48.06 
  -3  -3  -2 2388.29   64.35 
   3   3   2 2311.44   58.98 
  -3   3  -2 2355.45   83.14 
  -3   3  -2 2135.99   65.47 
   3   3   2 2262.80   84.65 
   3  -3   2 2154.77   45.74 
   3   3   2 2327.58   65.88 
   0   0   7   10.58   13.57 
   0   0  -7    2.71   19.76 
   0   0   7   -5.04   32.33 
  -3   5   0   -1.70   18.36 
  -3   5   0   19.09    8.44 
  -3   5   0   12.40    7.20 
  -3  -5   0   -0.94   25.35 
   3  -5   0   11.91    6.07 
   3   5   0   10.40    5.11 
   3   5   0    8.64   13.43 
   3  -5   0   13.97    7.55 
  -1  10   1 2078.82  139.16 
  -1  10   1 2052.84   87.01 
   1 -10  -1 1988.66   79.28 
  -1 -10   1 1997.48   92.22 
  -1  10   1 2095.38   84.21 
   0  -1   7 2074.69  183.24 
   0   1   7 2075.54   94.97 
   0   1  -7 2003.42   79.24 
   0  -1   7 2078.55   91.14 
   0   1   7 2181.54   77.80 
  -3   4   3  595.22   46.61 
   3   4  -3  490.86   38.47 
  -3   4   3  603.53   49.57 
  -3  -4   3  468.57   42.25 
   3   4  -3  432.28   30.76 
  -3  -4   3  581.41   48.67 
  -1   0   7 7384.01  181.40 
  -1   0   7 7351.71  157.64 
  -3  -2   4 1301.29   76.03 
  -3   2   4 1338.21   68.22 
   3   2  -4 1218.16   51.04 
  -3  -2   4 1303.25   78.33 
  -3   2   4 1329.70   45.89 
   3  -2  -4 1290.58   37.89 
   3   5  -2  899.23   48.81 
  -3  -5   2  951.18   59.15 
  -3  -5   2 1049.86   62.21 
  -3   5   2  950.50   94.17 
  -3   5   2  966.99   60.03 
   3  -5  -2  898.62   52.14 
  -1  -1   7 7125.25  150.56 
  -1   1   7 6964.82  153.59 
  -1  -1   7 7501.72  169.85 
  -1   1   7 7399.99  172.89 
  -1  -4  -6  881.28   48.70 
   1   4   6  963.65   67.64 
   1  -4   6  936.98   45.74 
  -1  10  -1  129.59   23.72 
   1  10   1  150.88   57.28 
  -1  10  -1  137.06   54.89 
   1   4   6  945.48   84.53 
   1  10   1  108.11   39.84 
   1  -4   6  971.36   99.64 
  -1   4  -6 1002.12   47.39 
  -1 -10  -1  147.97   60.10 
   1 -10   1  158.32   55.14 
   2  -7   3  713.49   47.18 
   2   7   3  619.43   49.23 
  -2   7  -3  734.70   93.15 
  -2  -7  -3  619.66   60.11 
  -2   7  -3  629.04   32.63 
  -1  -8  -4 1548.57   53.18 
   1   8   4 1560.15   73.41 
  -1   8  -4 1599.74  112.50 
   1  -8   4 1546.69   75.32 
  -1  -8  -4 1627.03   81.65 
   0   2  -7 2563.20   79.77 
   2   3   5 2265.12  114.87 
  -2   3  -5 2669.91   43.56 
   0   2   7 2499.36   85.34 
   0  -2   7 2451.05   81.47 
   0   2   7 2400.40   91.21 
   2  -3   5 2449.97  121.43 
   0  -2   7 2524.49   89.78 
   2   3   5 2469.39   85.57 
  -2  -7   4 2992.37  102.10 
  -2  -7   4 3024.41   99.47 
  -2   7   4 2980.41   94.77 
  -1  -9  -3  700.89   64.24 
  -2   7   4 2818.16   61.87 
  -2   7   4 2872.34   92.68 
  -2   7   4 2833.77   61.93 
   1  -9   3  733.85   53.13 
   1   9   3  729.17   51.59 
   2  -3  -6 3910.38   82.18 
  -2   3   6 4225.17  135.89 
  -2  -3   6 4225.17  105.44 
  -2  -3   6 4075.33  120.40 
  -2   3   6 4197.89   86.22 
   2   3  -6 3902.69   94.41 
  -2   8  -2  132.27   45.43 
   3   0   3 1963.80   88.54 
  -2  -8  -2  250.23  107.35 
  -2   8  -2  187.71   38.24 
   3   0   3 1800.91   53.94 
   2   8   2  252.51  103.02 
  -3   0  -3 1859.89   75.48 
   3   0   3 1840.33   52.17 
   2  -8   2  230.11   90.23 
  -2   8  -2  209.78   30.43 
   2  -8  -3   53.99   24.30 
  -2   8   3   83.04   50.22 
  -2   8   3   62.55   18.67 
  -2   8   3   59.82   23.88 
  -2  -8   3   54.32   29.46 
  -1   2   7 2975.05   88.84 
  -1  -2   7 3308.53  105.16 
  -1  -2   7 2708.51   96.16 
  -1   2   7 3185.89  100.15 
   1  -2  -7 2585.34  106.43 
  -3   5  -1  325.94   32.66 
  -3   5  -1  345.37   36.62 
  -3   5  -1  290.58   24.95 
   3  -5   1  370.06   65.96 
  -3  -5  -1  354.80   40.29 
   3  -5   1  312.50   43.29 
   3   5   1  343.60   30.16 
   3   5   1  349.56   41.46 
   3  -1   3  273.59   73.24 
   3  -1   3  160.84    7.60 
   3   1   3  213.93   81.04 
   3   1   3  220.67   38.30 
  -3   1  -3  278.82   92.94 
  -3  -1  -3  191.30   36.50 
  -1  10   2  682.09   53.96 
   3   1   3  194.31   31.44 
   1 -10  -2  739.85   46.71 
  -1  10   2  716.15   50.80 
   3  -1   3  198.57    9.57 
  -1  10   2  751.03   49.94 
  -1 -10   2  752.69   57.31 
   3  -4   2  672.25   25.27 
   0   6  -6  585.61   41.96 
   0   6   6  660.58   68.75 
  -3   4  -2  677.44   25.84 
  -3   4  -2  692.38   51.82 
   3   4   2  698.02   52.40 
  -3  -4  -2  717.37   51.10 
   0  -6   6  660.75   45.73 
  -3   4  -2  634.00   47.37 
   3   4   2  693.05   30.21 
   3  -4   2  743.67   68.19 
   0   6   6  632.29   45.79 
   0  -6   6  678.02   48.84 
   0  -6  -6  584.43   41.75 
   3   4   2  682.99   70.30 
   0  -9  -417877.20  268.36 
   0   9   418124.99  311.90 
   0  -9  -418162.69  319.00 
   0   9   418248.38  197.72 
   0  -9   418494.09  231.98 
   3   3  -4    9.85   14.11 
  -3  -3   4  -15.53   29.71 
  -3   3   4    4.04   35.53 
  -3  -3   4   23.34   28.29 
   2   6   4 4942.63  134.55 
   2   6   4 6769.84  142.14 
  -2   6  -4 5933.41   97.77 
   2  -6   4 6525.56  147.73 
  -2  -6  -4 6330.67   87.92 
  -2   6  -4 6603.23  152.79 
  -2   6  -4 6448.74  105.27 
   0  -3   7 1153.97   61.13 
  -2   9   1  627.73   33.46 
   0  -3   7 1134.20  113.67 
   0   3   7 1305.85   68.90 
  -2   9   0 2258.37   64.38 
   0   3  -7 1142.13   66.92 
  -2   9   1  693.76   58.09 
  -2  -9   1  775.46   58.30 
  -2  -9   0 2479.83   96.00 
  -2   9   0 2347.55   90.24 
   0   3   7 1147.68   63.05 
   2  -9   0 2169.76   67.42 
   2  -9   0 2319.84   87.41 
  -2   9   1  680.21   53.83 
  -2   9   0 2318.85   77.82 
   2  -9  -1  633.36   38.96 
  -2   6   5  457.66   44.14 
  -2   6   5  420.70   28.58 
  -2  -6   5  394.98   59.70 
  -2  -6   5  413.89   89.20 
  -2   6   5  413.95   22.64 
   3   2   3 3434.54  114.85 
   3   2   3 3363.07   77.12 
   3   2   3 3223.67   85.16 
  -3  -2  -3 3210.12   79.64 
   3  -2   3 3336.93  114.72 
  -3   2  -3 3388.13  100.04 
  -1  -6   6 1206.14   67.87 
  -1  -6   6 1247.02   70.33 
  -1   6   6 1138.85   65.66 
  -1   6   6 1104.61   54.67 
  -1   6   6 1037.01   69.27 
  -1  -7  -5 5102.36   93.35 
   1   7   5 5511.99  130.31 
   0  -8   5 4059.65  132.36 
   1   7   5 5321.00  139.90 
   0  -8  -5 3747.04   89.42 
   0   8   5 4036.35  115.25 
  -1   7  -5 5202.59  109.77 
   1  -7   5 5681.24  142.45 
   0   8   5 4108.85  119.09 
   0 -10  -3  152.00   35.28 
   0  10   3  113.71   31.15 
   3  -6  -1 4330.63   98.18 
   0 -10   3  147.69   54.86 
  -3   6   1 4529.03  108.86 
   0  10   3  196.53   96.90 
  -3   6   1 4197.90   84.24 
  -3   6   1 4310.46  137.87 
  -3  -6   1 4098.39  173.89 
   3   6  -1 4026.01   87.75 
   0 -10  -3  153.92   69.27 
   3  -6  -1 4386.98   82.37 
  -3   5   3   11.16   17.62 
  -3   5   3   12.55   15.42 
  -3  -5   3   15.83   33.65 
  -3  -5   3    3.66   16.37 
  -1  10  -2 1828.34   80.22 
  -1 -10  -2 1724.19   86.02 
   1  10   2 1808.06   57.72 
   1 -10   2 1517.55   72.23 
   1  10   2 1869.49   86.40 
  -1  10  -2 1863.61   78.16 
  -1   3   7 6816.83  161.74 
  -1  -3   7 6634.53  156.90 
  -1   3   7 6665.23  168.31 
   1  -3  -7 6357.03  141.91 
  -1  -3   7 6355.69  143.60 
   2  -4   5 7170.54  157.99 
   2   4   5 7461.47  185.72 
  -2   4  -5 7648.44  111.00 
   2   4   5 7203.02  137.56 
   0 -11   0   19.87   19.51 
   0  11   0   -4.57   29.04 
   0  11   0   17.84   21.30 
  -3   6   0 1201.52   56.74 
   3  -6   0 1255.28   47.36 
   3  -6   0 1193.91   49.71 
  -3   6   0 1286.62   72.68 
  -3  -6   0 1244.33  128.49 
  -3   6   0 1228.38   48.35 
   3   6   0 1266.94   59.17 
  -2   4   6  939.22  103.72 
  -2   4   6  946.33   42.41 
   2  -4  -6  908.68   40.23 
  -2  -4   6  959.40   56.77 
  -2  -4   6  921.42   68.20 
  -1   5  -6 5780.73  119.78 
   1   5   6 5969.63  151.64 
   1  -5   6 6257.23  149.06 
   1   5   6 6306.43  137.73 
   1  -5   6 6443.26  126.66 
   1  -9  -4 5905.86  134.58 
  -1   9   4 5308.82  114.78 
  -1   9   4 5948.72  134.68 
  -1  -9   4 5759.70  143.43 
  -1   9   4 5925.53  144.31 
   0  11  -1 1600.33   78.63 
   0 -11  -1 1589.39   87.57 
   0  11   1 1545.45   80.14 
   0  11   1 1682.49   66.64 
   0  11  -1 1590.84   68.20 
   0 -11   1 1587.29   79.63 
  -2  -9  -1  117.00   54.31 
   2   9   1  105.13   25.13 
   2  -9   1   95.05   36.14 
  -2   9  -1  124.62   38.88 
  -2   9  -1  137.14   69.70 
  -2   9  -1   83.71   32.75 
  -2  -9   2    4.67   14.01 
   2  -9  -2   20.48   13.07 
  -2   9   2   -4.36   23.84 
  -2   9   2    9.06    7.85 
  -2   9   2   19.47   14.64 
   3   6  -2  220.02   25.47 
  -3   6   2  316.38   97.02 
  -3  -6   2  283.15  116.14 
  -3   6   2  280.46   65.91 
  -3   4   4  604.48   66.32 
  -3  -4   4  504.25   48.71 
  -3  -4   4  534.20   64.77 
   3   4  -4  468.85   84.77 
  -3   4   4  625.86   50.45 
  -1  -8   5  534.21   68.38 
  -1   8   5  494.32   36.94 
  -1   8   5  347.04   41.00 
  -1   8   5  497.98   72.61 
   3   3   3  485.56   74.06 
  -3   3  -3  560.21   52.31 
   3  -3   3  420.02   44.87 
  -3  -3  -3  530.27   35.79 
   3   3   3  475.03   30.42 
  -3   0   5 3163.12  108.27 
  -3   0   5 3382.08   77.54 
   3   0  -5 3269.26   72.70 
  -3  -5  -2   20.55   12.65 
  -3  -1   5 1837.90   69.80 
   3  -5   2   23.18    6.94 
   3   5   2   15.37   10.06 
  -3   5  -2   17.62   15.92 
   3  -1  -5 1798.05   57.02 
  -3   1   5 1789.31   85.37 
   3  -5   2   26.55   16.62 
   3   1  -5 1829.98   66.87 
  -3  -1   5 1930.94   92.21 
  -3   5  -2   14.01   14.73 
  -3   1   5 1819.70   60.36 
  -3   5  -2   25.83    8.51 
   0  -4   7   20.40   17.58 
   0  -4   7   23.42   30.17 
   0   4   7   -4.04   27.26 
   0   4   7   16.60   16.92 
  -1  10   3 1823.55   77.42 
   1 -10  -3 1788.97   74.51 
  -1  10   3 1754.06   73.09 
  -1  10   3 1835.02   91.72 
  -1 -10   3 1871.67   88.19 
  -3   6  -1   72.70   21.73 
  -3  -6  -1   71.08   30.17 
  -3   6  -1  118.02   63.59 
   3   6   1   82.24   23.91 
   3  -6   1   54.04   17.84 
   3  -6   1   74.22   35.27 
  -3   6  -1   93.40   33.77 
   1   0   7  282.03  102.40 
  -1   0  -7  205.91   59.46 
   1   0   7  229.87   86.89 
  -1   4   7  821.08   61.11 
  -1  -4   7  776.93  112.04 
   1  -4  -7  669.50   64.84 
  -1   4   7  767.53   47.79 
  -1  -4   7  758.25   94.73 
  -1  -1  -7  126.09   35.46 
   1   1   7  140.37   71.88 
   1   1   7  144.35   69.94 
  -1   1  -7  120.41   30.06 
   1  -1   7  120.34   57.84 
   1  -1   7  145.05   61.64 
  -2   8  -3 3584.68   83.18 
   2  -8   3 3613.89  102.30 
  -2  -8  -3 3676.26  118.04 
  -2   8  -3 3671.00  109.70 
   2   8   3 3837.08  108.57 
  -3  -2   5 1512.89   90.73 
   3   2  -5 1419.65   63.33 
   3  -2  -5 1470.39   45.63 
  -3  -2   5 1498.47  110.16 
  -3   2   5 1489.61   77.86 
  -3   2   5 1464.33   47.23 
  -2   8   4  262.16   37.64 
  -2   8   4  219.81   35.97 
  -2   8   4  248.78   43.52 
  -2  -8   4  286.04   96.68 
  -2   8   4  230.26   38.95 
   0   7   6 1384.77   72.25 
   0   7   6 1518.70   75.21 
   0  -7  -6 1395.20   77.04 
   0  -7   6 1488.57   74.40 
   0  -7   6 1646.85   78.61 
  -2   5  -5 4136.74   71.32 
   0  11   2   73.65   26.30 
   0 -11   2   67.47   29.44 
   2   5   5 3959.61  124.83 
   0  11   2   55.36   29.91 
   2   5   5 4086.04   99.57 
   2  -5   5 3976.31  115.86 
   0 -11  -2   98.03   44.80 
  -2   5   6 6721.72  121.94 
  -1  11   0 2709.13   88.83 
  -2  -5   6 6560.74  148.15 
  -2  -5   6 6716.99  167.82 
  -1 -11   0 2789.04  107.53 
  -2   5   6 6383.81  118.35 
   1  11   0 2733.80   75.03 
  -2   5   6 6834.88  164.23 
  -1  11   0 2801.70   94.31 
   1 -11   0 2773.85   89.27 
   1  -9   4  108.08   40.96 
  -1   9  -4   97.43   40.51 
  -1  -9  -4  129.75   56.47 
  -1  -9  -4  111.30   26.67 
   1   9   4  117.18   46.56 
  -1   2  -7   57.26   17.91 
   1   2   7   61.07   39.93 
   1   2   7   61.41   24.74 
  -1  -2  -7   41.70   26.05 
   1  -2   7   58.53   31.18 
   1  -2   7   62.69   19.20 
   3   4   3  932.69   57.90 
   3  -4   3  931.83   75.36 
  -3   4  -3  939.01   61.60 
  -3  -4  -3  901.84   45.71 
   3   4   3  914.44   64.58 
   2   7   4  177.37   75.03 
   2  -7   4  218.37   79.34 
   2   7   4  225.67   98.06 
  -3   6   3 1118.60   62.48 
  -2   7  -4  190.28   54.66 
  -2   7  -4  159.74   23.51 
  -3  -6   3 1117.10   73.17 
  -3   6   3 1276.07   73.44 
  -3  -6   3 1123.27   63.08 
  -2   7  -4  235.89   92.04 
  -1  11   1 4988.06  137.00 
  -1  11   1 4881.30  121.58 
   1 -11  -1 4870.66  121.98 
  -1 -11   1 5186.77  145.54 
   2   0   6 8555.20  195.52 
   2   0   6 8774.49  150.32 
  -2   0  -6 8724.41  141.76 
  -2   7   5  528.47   29.79 
  -2   7   5  537.10   47.68 
  -2   7   5  608.67   33.82 
  -2  -7   5  601.90   52.62 
  -2   7   5  533.66   50.15 
  -2  -7   5  653.56   58.50 
  -2   9  -2    9.63   21.65 
   2  -9   2   22.00   21.20 
  -2  -9  -2   -4.76   27.51 
   2   9   2   20.72   29.05 
  -2   9  -2   41.41   24.43 
  -2   0   7   12.72   17.57 
   2   0  -7    1.17   13.38 
  -2   0   7    4.69   13.73 
  -2   9   3  266.70  112.57 
   2  -9  -3  154.66   21.64 
  -2   9   3  185.95   53.50 
  -2   9   3  256.71  106.02 
  -2  -9   3  215.35   95.70 
  -1  -7   6  680.51   51.03 
  -1   7   6  677.59   53.18 
  -1   7   6  622.73   55.09 
  -1  -7   6  669.45   60.07 
  -1   7   6  594.07   44.60 
   1   6   6   17.76   14.08 
   2  -1   6 2186.71   52.82 
   2  -1   6 2198.93   92.53 
  -1   6  -6    2.31    9.20 
  -2   1  -6 2269.39   55.60 
  -2  -1  -6 2151.59   83.58 
   1   6   6    7.08   17.50 
   2   1   6 2136.14   87.04 
   1  -6   6   12.67   15.88 
   2   1   6 2112.48   51.81 
   1  10   3   82.45   31.25 
  -1 -10  -3   40.76   26.44 
   1  10   3   50.32   19.62 
   1 -10   3   75.12   28.81 
  -1  10  -3   46.45   23.93 
  -3   5   4  416.00   40.03 
  -3   5   4  387.39   38.69 
  -3  -5   4  397.19   60.10 
  -3  -5   4  344.29   44.90 
  -3   7   1 1587.37   69.98 
  -3  -7   1 1691.29   89.55 
  -3   7   1 1710.69   83.88 
   3  -7  -1 1733.25   73.05 
   3  -7  -1 1419.98   58.73 
   3   7  -1 1587.41   63.34 
  -3   7   1 1605.02   52.72 
  -2   1   7   79.72   53.79 
   2  -1  -7  106.61   41.88 
  -2  -1   7  161.74   75.19 
  -2  -1   7  116.71   66.49 
  -2   1   7  107.80   55.82 
   2   1  -7   84.58   38.80 
   1  11   1  252.98   97.40 
  -1  11  -1  217.35   88.45 
   1  11   1  177.85   28.08 
  -1 -11  -1  233.73   99.77 
  -1  11  -1  235.07   93.41 
   1 -11   1  226.18   77.20 
   3  -3  -5   55.52    8.81 
  -3   3   5   75.70   23.15 
   3   3  -5   56.83   28.58 
  -3  -3   5  100.28   44.02 
  -3  -3   5  107.77   59.21 
  -3   3   5   73.04   46.60 
   3  -7   0  736.18   57.33 
   3   7   0  640.39   34.90 
  -3   7   0  645.57   34.27 
  -3  -7   0  597.33   57.28 
  -3   7   0  630.36   44.06 
  -3   7   0  616.65   54.02 
   3  -7   0  622.96   39.89 
   3   0   4    4.40    8.24 
   3   0   4   -0.46    3.08 
  -3   0  -4    8.83   20.45 
   3   0   4   17.82   30.68 
   0   5   7 3526.56  109.43 
   0  -5   7 3549.98  108.40 
   0  -5   7 3693.40  109.58 
   0   5   7 3368.57  106.93 
   1   8   5  898.00   59.74 
   1  -8   5  863.91   70.69 
  -1  -8  -5  835.87   37.73 
   1   8   5  854.28   61.91 
  -1   8  -5  793.95   69.74 
   3  -1   4  138.10   53.89 
   3   1   4  142.61   16.49 
   3   1   4  130.80   26.88 
  -3   1  -4  184.15   69.48 
   3   1   4  187.52   57.91 
  -3  -1  -4  161.44   58.05 
   2  -2   6 1491.34   79.87 
   2   2   6 1673.62   84.57 
   2  -2   6 1446.52   49.95 
   2   2   6 1638.65   63.55 
  -2  -2  -6 1676.45   70.26 
  -2   2  -6 1566.27   52.25 
   0 -10  -4   12.62   25.41 
   0  10   4   20.94   18.10 
   0 -10  -4   26.52   12.98 
   0  10   4   10.00   23.00 
   0 -10   4   36.60   22.71 
  -1   3  -7 7417.09  156.31 
   1  -3   7 7658.55  174.41 
   1   3   7 7756.33  183.58 
  -1  -3  -7 7225.95  142.90 
   1   3   7 8040.63  163.12 
   1  -3   7 7597.10  144.87 
  -2  -2   7 3058.50  120.25 
  -2   2   7 3013.25  106.47 
   2  -2  -7 2868.50   77.41 
  -2  -2   7 2993.54  106.33 
  -2   2   7 2922.47   96.64 
   3  -7  -2 2287.58   44.47 
  -3   7   2 2264.28  115.81 
  -3  -7   2 2194.56   90.37 
  -3   7   2 2266.32   92.69 
  -3   7   2 2288.96   43.32 
   1  -5  -7 1476.23   58.48 
  -1   5   7 1673.63   79.77 
  -1   5   7 1654.29   68.73 
  -1  -5   7 1698.03   87.00 
  -1  -5   7 1652.18   83.48 
  -3   6  -2 2234.31   90.01 
  -3  -6  -2 2155.74  118.12 
   3  -6   2 2518.89   78.66 
  -3   6  -2 2293.71   56.54 
  -3   6  -2 2263.38   75.44 
   0   9   5  239.54   86.41 
   0  -9  -5  163.98   58.03 
   0   9   5  190.12   62.09 
   0  -9   5  223.71   97.68 
  -1 -11   2  205.34   88.83 
  -1  11   2  191.43   90.04 
  -1  11   2  105.12   33.73 
  -1  11   2  181.58   83.78 
   1 -11  -2  139.29   46.82 
  -2  10   0 1185.49   65.99 
   2 -10   0 1219.79   53.22 
  -2  10   0 1252.01   89.53 
  -2  10   0 1114.45   78.73 
  -2 -10   0 1185.91   68.42 
  -2  10   1  824.16   66.02 
  -2  10   1  817.11   56.41 
  -2 -10   1  791.65   88.95 
  -2  10   1  772.55   36.87 
   2 -10  -1  815.14   84.61 
   3   2   4  140.82   70.22 
  -3   2  -4  199.87   77.77 
   3  -2   4  127.88   61.20 
  -3  -2  -4  128.04   20.05 
   3   2   4  151.80   17.41 
  -3   7  -1  252.92   54.34 
   3  -7   1  269.94   31.60 
   3   7   1  271.10   19.96 
  -3  -7  -1  299.90   42.83 
   3  -7   1  219.63   55.14 
  -3   7  -1  363.20  101.42 
  -3   7  -1  243.10   31.85 
   3  -5   3 4868.70  121.37 
  -3  -5  -3 4840.64   91.35 
  -3   5  -3 4836.33  134.56 
   3   5   3 4809.10  113.41 
   3   5   3 4616.27  145.56 
   2   3   6  260.03   37.31 
  -3  -4   512438.82  258.81 
   2  -3   6  205.29   20.06 
   2  -3   6  220.97   86.75 
   2   3   6  236.23   28.31 
  -3   4   512164.16  249.28 
  -2   3  -6  216.86   13.16 
  -3  -4   512627.56  238.13 
  -2  -3  -6  227.34   46.93 
   2   6   5    4.63   14.89 
  -2   6  -5    8.58    4.88 
   2  -6   5   20.82   23.97 
   2   6   5   20.03   20.56 
  -2   6  -5   14.65   10.58 
  -1   9   5 3795.02  104.87 
  -1   9   5 3853.03  118.40 
   1 -10  -4 1167.61   56.05 
  -1  10   4 1120.79   84.91 
  -1  10   4 1222.93   64.70 
  -1 -10   4 1168.62   69.27 
  -1  -9   5 3983.94  140.42 
  -1   9   5 3969.53  104.26 
  -1  10   4 1257.45   61.71 
   0 -11  -313792.87  231.03 
   0 -11  -315009.34  295.30 
   0 -11   315801.80  298.41 
   0  11   314870.90  258.86 
   0  11   314890.81  288.14 
  -2  -6   611018.28  241.33 
  -2   6   610610.14  226.55 
  -2  -3   7 4650.56  120.18 
  -2  -6   610765.39  221.32 
  -2   3   7 4978.62  145.36 
  -2   6   610731.44  189.20 
  -2   3   7 4810.81  107.55 
   2  -3  -7 4605.20  105.88 
  -2  -3   7 4812.94  152.59 
  -2   6   610602.10  188.22 
  -1  11  -2 1159.37   56.77 
   1  11   2 1336.22   44.24 
   1  11   2 1373.99   77.16 
  -1 -11  -2 1296.14   76.19 
  -1  11  -2 1281.02   62.02 
   1 -11   2 1435.73   70.51 
   2  10   1 1583.01   29.41 
  -2  10  -1 1588.66   63.21 
  -2 -10  -1 1163.46   67.66 
   2 -10   1 1581.83   59.97 
  -2  10  -1 1648.18   78.00 
  -2  10  -1 1495.44   53.07 
  -2  10   2 2914.45  100.44 
  -2 -10   2 2803.26  107.05 
  -2  10   2 2920.12   99.67 
   2 -10  -2 2689.39   74.62 
  -2  10   2 2788.23   72.20 
   1  -4   7 5403.64  131.60 
  -1   4  -7 5252.90  114.99 
   1   4   7 5525.95  134.93 
   1   4   7 5209.39  149.17 
   1  -4   7 5366.07  203.00 
  -3  -3  -4 3779.41   91.04 
   3  -3   4 3904.98  118.52 
   3   3   4 3710.10   84.50 
   3   3   4 3883.89  124.99 
  -3   3  -4 3776.39  112.21 
   0   0   8  730.76  170.51 
   0   0   8  601.99   61.55 
   0 -12   0   31.91   33.19 
  -3  -6   4  352.52  121.87 
  -3   6   4  392.59  139.81 
   0  12   0   28.43   19.03 
  -3  -6   4  362.54   88.47 
   0  12   0   30.42   22.07 
  -3   6   4  343.26   37.26 
  -1   0   8    4.82   13.61 
  -1   0   8    6.49   27.46 
  -3  -7   3  532.69   49.86 
  -3   7   3  392.83   40.36 
   0  -1   820356.03  356.86 
   0   1   820825.60  231.46 
   0   1   821492.52  239.19 
   0  -1   820476.87  362.35 
  -3   7   3  414.93   39.92 
   0   8   6 2551.52   93.88 
   0  -8  -6 2334.76   80.50 
   0   8   6 2631.27   96.92 
   0  -8   6 2473.71   97.61 
  -1   1   8 9934.34  223.65 
  -1  -1   8 9865.51  203.48 
  -1   1   8 9562.20  198.48 
  -1  -1   810030.56  226.48 
   2  -9   3   54.79   30.60 
  -2   9  -3   67.88   30.96 
   2   9   3   57.67   32.01 
  -2  -9  -3   48.40   24.14 
  -2   9  -3   66.86   22.76 
   1   7   6 1115.43  134.35 
   1  -7   6 1170.50   73.51 
   1   7   6 1156.94   59.41 
  -1   7  -6 1047.67   68.28 
  -1  -7  -6 1023.61   55.65 
   0   6   7  417.59   42.81 
  -2   9   4  590.44   57.13 
  -2   9   4  661.38   48.74 
   0  -6  -7  303.41   25.62 
   2  -9  -4  659.14   45.73 
  -2  -9   4  677.88   53.44 
   0   6   7  453.42   41.53 
   0  -6   7  485.85   45.97 
  -2   9   4  668.20   52.52 
   0  -6   7  486.70   42.67 
  -3   0   6   12.32   16.66 
   3   0  -6    2.28    6.30 
   0 -12   1   40.08   25.19 
   0  12  -1   55.62   21.25 
  -3   0   6   35.57   34.88 
   0  12   1   65.75   29.50 
   0  12   1   45.76   27.10 
   0  12  -1   28.06   16.64 
   0 -12  -1   27.73   24.64 
  -2   8  -4    8.18   24.84 
   2  -8   4   27.05   14.22 
  -2   8  -4   12.76    8.12 
   2   8   4   46.61   26.56 
  -2   8  -4   32.44   14.52 
  -2   8   5 1269.31   57.17 
  -2   8   5 1334.30   63.83 
  -2   8   5 1221.65   42.42 
  -2   8   5 1298.03   77.96 
  -2  -8   5 1263.50   68.92 
   3   1  -6    1.53    8.63 
  -3   1   6  -10.73   33.39 
   3  -1  -6    8.38    5.96 
  -3  -1   6   24.57   44.21 
  -3  -1   6    7.60   12.02 
  -1  11   3   17.48    9.29 
  -1 -11   3    3.45   18.86 
   1 -11  -3   13.42   13.84 
  -1  11   3   18.02   20.84 
  -1  11   3   -2.04   27.86 
   0  -2   8 5970.78  145.35 
   0   2   8 6065.77  153.77 
   0   2   8 6134.97  153.33 
   0  -2   8 5758.29  170.68 
  -1   8   6 2261.52   91.40 
  -1  -8   6 2388.94  107.26 
  -1   8   6 2042.08   72.63 
  -1  -8   6 2365.71   97.57 
  -1   8   6 2300.11   79.35 
  -1   6   7   -0.79   16.59 
  -1  -6   7   29.45   12.63 
  -1   6   7   15.74    6.67 
  -1  -6   7   16.71   18.94 
  -1   6   7    4.10   28.36 
  -2   4  -6  939.51   31.42 
   2  -4   6  919.36   78.45 
  -2  -4  -6  892.23   80.47 
   2   4   6  894.49   46.08 
   2   4   6  872.68   97.37 
  -3   8   1   42.75   22.43 
  -3  -8   1   56.97   36.82 
   3  -8  -1   45.25   17.29 
   3   8  -1   29.16   12.32 
  -3   8   1   46.97   14.04 
  -3   8   1   44.97   17.43 
  -1   2   8 6924.09  178.04 
  -1  -2   8 6980.53  175.16 
  -1  -2   8 7304.46  185.95 
  -1   2   8 6917.34  157.93 
  -2  -4   7  650.13   58.94 
  -2   4   7  608.59   34.00 
  -2   4   7  673.47   57.08 
  -2  -4   7  648.75   47.00 
   2  -4  -7  582.52   37.82 
  -3  -8   0 2055.52   92.88 
  -3   8   0 1905.97   65.10 
  -3   8   0 1862.95   68.22 
   3  -8   0 1851.67   60.96 
  -3   8   0 1845.16   82.76 
   3  -8   0 1917.67   70.76 
   3   8   0 2077.63   55.87 
  -4   0   1    6.78   18.47 
   4   0  -1    8.16   10.94 
   4   0  -1    8.63   13.11 
   4   0  -1    5.30    7.71 
  -4   0   1    6.61   16.92 
   3  -7   2   41.06   21.65 
   1 -10   415427.10  361.50 
  -3   7  -2   11.82   16.72 
   1  10   415203.44  307.56 
  -1 -10  -414965.08  303.09 
  -3   7  -2   22.19   11.74 
  -3  -7  -2   21.61   31.12 
  -3   7  -2   13.33   15.08 
  -1 -10  -414733.18  221.05 
  -3  -5   5  555.73   85.41 
  -3  -5   5  620.53  148.87 
  -3   5   5  601.58   60.95 
  -3   2   6  481.18   27.11 
  -3  -2   6  493.13   40.12 
   3  -2  -6  452.53   49.40 
   3   2  -6  381.85   26.02 
  -3   2   6  534.59   53.05 
  -3  -2   6  539.90  189.55 
  -3   4  -4  962.89   55.56 
   4   1  -1 2293.19   76.21 
  -4  -1   1 2380.91   86.06 
   3  -4   4 1061.82   61.85 
  -4   1   1 2358.29   87.78 
  -4  -1   1 2231.59   83.08 
  -4   1   1 2359.52   93.93 
   4   1  -1 2282.67   73.16 
   4  -1  -1 2225.05   70.80 
   4  -1  -1 2573.88   81.55 
   3   4   4  972.74   49.15 
   3   4   4  943.55   75.19 
  -3  -4  -4  990.68   54.99 
   4  -1  -1 2261.53   80.33 
  -2 -10  -2  979.65  149.12 
  -2  10  -2 1027.78   74.01 
   2 -10   2  978.80   94.21 
  -2  10  -2  959.10   55.28 
   2  10   2 1001.52   66.27 
  -3   6  -3   62.33   30.08 
  -3   6  -3   33.95   15.17 
   3   6   3   48.53   23.57 
   3  -6   3   18.59   11.35 
   3   6   3   41.14   21.35 
   2 -10  -3  153.69   51.30 
  -2  10   3  182.35   83.18 
  -2  10   3  137.69   40.77 
  -2 -10   3  165.08   80.98 
  -2  10   3  190.18   79.75 
  -3   8   2  489.22   22.82 
   3  -8  -2  499.88   55.63 
   4   0   012200.48  225.18 
  -3  -8   2  426.68   43.79 
  -4   0   011421.48  220.60 
   4   0   011017.91  256.05 
   4   0   011043.57  232.48 
  -4   0   011923.02  232.37 
  -3   8   2  453.98   48.35 
  -3   8   2  574.58   44.76 
   4   0  -2 6315.71  140.70 
  -4   0   2 6109.46  149.70 
   4   0  -2 5970.41  119.71 
  -4   0   2 5909.88  145.60 
   1   9   5 1944.54  110.64 
  -1  -9  -5 1935.68   50.03 
   1  -9   5 2037.87   87.71 
   1   9   5 1782.83   87.66 
  -1   9  -5 1754.38  187.04 
  -1   5  -7  640.55   46.90 
   1   5   7  618.12   48.73 
   1   5   7  761.67   62.69 
   1  -5   7  647.21   38.05 
   1  -5   7  643.98   72.51 
   4   1   0  451.05  134.15 
  -4   1   0  349.78   62.28 
  -4  -1   0  440.27   63.63 
   4  -1   0  274.68   92.97 
  -4   1   0  401.50   41.06 
  -4  -1   0  384.02   37.08 
   4  -1   0  352.09   35.54 
   4   1   0  315.50   29.07 
   4   1   0  308.39  103.22 
   4  -1   0  324.58  110.97 
   0   3   8 2575.85   95.05 
   0   3   8 2381.96   96.66 
   0  -3   8 2524.47   89.77 
   0  -3   8 2639.77  114.25 
   4  -1  -2 5312.83  109.70 
  -4   1   2 5279.98  137.05 
   4  -1  -2 4886.40   98.65 
  -4   1   2 5038.60  139.37 
  -4  -1   2 5392.79  140.29 
   4   1  -2 4979.77  109.18 
  -4  -1   2 5232.45  155.45 
   0 -12  -2 2815.79  111.48 
   0  12   2 2683.12   98.91 
   0  12   2 2639.48   82.20 
   0 -12   2 2739.70  104.77 
  -1   3   8   48.37   21.87 
  -1  -3   8   52.99   26.53 
  -1  -3   8   54.36   35.37 
  -1   3   8   64.62   41.38 
  -4  -2   1  324.50   83.43 
   4  -2  -1  221.51   78.89 
  -4   2   1  327.21  100.32 
  -4   2   1  256.95  102.66 
   4   2  -1  333.80   29.13 
  -4  -2   1  247.11   39.51 
   4  -2  -1  255.83   41.39 
   4  -2  -1  331.73   82.67 
   1  12   0  345.91   63.16 
   1  12   0  309.26   39.23 
  -1  12   0  368.00  126.27 
  -1  12   0  353.76   72.72 
  -1 -12   0  349.70  166.29 
   1 -12   0  320.73   55.17 
  -2   7  -5  839.12   31.41 
   1 -11   3  840.11   56.55 
   2   7   5  907.63   82.09 
  -2  -7  -5  756.63   18.48 
   1  11   3  846.07   30.47 
  -1 -11  -3  775.10   58.95 
  -1  11  -3  667.13   47.33 
   2  -7   5  941.43  117.47 
  -1  11  -3  843.16   56.34 
  -2   7  -5  891.60   34.33 
   1  11   3  787.15   57.72 
   2   7   5  954.37   98.24 
  -2   7   6 1896.97   89.51 
  -2  -7   6 1988.72  100.61 
  -2  -7   6 1810.27   84.98 
  -2   7   6 1771.53   56.57 
  -2   7   6 1841.42   79.69 
   1 -12  -1 3780.95  138.50 
  -1 -12   1 4400.26  150.68 
  -1  12   1 4094.70  122.91 
  -1  12   1 4078.78  120.97 
  -3   8  -1  129.49   46.48 
  -3   8  -1   60.19   19.53 
  -3   8  -1   87.39   29.88 
  -3  -8  -1   85.59   47.20 
   3  -8   1  102.31   42.08 
   3  -8   1   48.14   18.19 
   3   8   1   69.43   25.38 
  -3  -3   6  999.10   55.08 
  -3  -3   6  995.75   71.16 
  -3   3   6 1040.51   94.07 
   3  -3  -6  961.47   29.88 
  -3   3   6 1014.39   31.67 
  -4  -2   0 6276.78  145.24 
   4  -2   0 5887.67  134.73 
  -4   2   0 6258.16  156.20 
   4  -2   0 5682.90  122.56 
   4   2   0 6035.16  135.32 
   4   2   0 6525.86  154.79 
  -4   2   0 5986.96  142.69 
   4  -2   0 6303.50  132.31 
  -4  -2   2  902.51   57.00 
   4  -2  -2  963.17   52.05 
   4  -2  -2  977.40   37.35 
  -4  -2   2 1006.41   49.54 
  -4   2   2  953.82   64.27 
   4   2  -2  874.48   41.07 
  -4   2   2  993.54   53.71 
   0 -10   532369.33  390.89 
   0  10   531593.47  325.89 
   0 -10  -529809.23  213.66 
   0 -10  -532449.06  424.99 
  -1  12  -1  276.76   70.56 
  -2   5  -6  273.98   21.27 
  -1 -12  -1  280.68   98.15 
   2   5   6  360.45   83.42 
   2  -5   6  365.25  119.02 
   2   5   6  355.33  112.14 
   1  12   1  239.46   34.14 
  -1  12  -1  278.95  102.41 
  -2  -5  -6  239.75   75.62 
   1 -12   1  317.45  115.18 
   1  12   1  218.23   21.15 
   0 -11  -4 4181.49  100.53 
   0 -11  -4 4430.89  137.94 
   0  11   4 4403.34  129.81 
   0  11   4 4496.71  139.00 
  -3  -7   4 2486.91  106.99 
  -3  -7   4 2325.95   92.32 
  -3   7   4 2405.60  124.64 
   0 -11   4 4227.42  135.93 
  -3   7   4 2410.90   97.67 
  -2   5   7  872.80   40.66 
  -2   5   7  831.87   63.96 
  -2  -5   7  762.52   51.82 
   2  -5  -7  833.04   38.45 
  -2  -5   7  845.68   87.28 
   3   0   5 5381.82   88.01 
   3   0   5 4952.96  149.01 
   3   0   5 5195.53   83.82 
  -3   0  -5 4938.80  121.88 
   4   0   1   -1.28   24.06 
  -4   0  -1   18.50   24.73 
   4   0   1    5.82   13.49 
   4  -3  -1 1264.73   40.49 
  -4   3   1 1222.83   53.39 
   4  -3  -1 1253.44   44.56 
  -4   3   1 1202.73   63.75 
   4  -3  -1 1117.62   55.84 
  -4  -3   1 1234.56   61.70 
  -4  -3   1 1206.65   67.11 
   4   0  -3    1.93   10.82 
  -4   0   3    3.64   17.39 
  -4   0   3    4.10    6.91 
   3   1   5 2152.88   53.24 
  -3  -1  -5 2172.99   74.79 
  -3   1  -5 1997.08   92.16 
   3   1   5 2169.48   97.25 
   3  -1   5 2118.11   91.46 
   2 -11  -1  729.28   42.68 
   0   7   7 4390.92  144.12 
  -2  11   0  753.36   48.82 
   2 -11   0  833.34   47.93 
  -2  11   0  715.82   41.04 
  -2  11   1  636.94   49.88 
  -2  11   1  726.07   86.28 
  -2  11   1  696.42  117.89 
   0  -7   7 4655.34  140.84 
   0  -7  -7 3714.00   95.49 
  -2 -11   0  762.82   63.62 
   0   7   7 4174.34  123.80 
  -2  11   0  772.56   66.18 
  -2 -11   1  672.27   61.34 
   0  -7   7 4661.69  133.67 
   4   1   1   19.60   26.22 
  -4   1  -1   31.36   19.28 
   4  -1   1   32.81   19.94 
   4   1   1    8.89   12.84 
   4  -1   1   15.45   10.85 
  -4  -1  -1   21.72   23.73 
   4  -1   1   19.73   19.20 
  -4   1  -1   42.28   24.43 
   3  -5   4  837.04   54.24 
   3   5   4  866.41  131.49 
  -3  -5  -4  749.17   32.84 
   3   5   4  782.53   41.55 
  -3   5  -4  787.98   55.17 
  -3  -8   3 1923.82   89.70 
  -4  -1   3 4744.46  108.68 
   0   4   8  681.73  120.27 
   0  -4   8  531.87   47.31 
  -4  -1   3 4551.72  143.53 
   0   4   8  641.32   63.69 
   4   1  -3 4554.82  101.19 
   0  -4   8  579.45   64.91 
  -3   8   3 1924.53   88.43 
  -4   1   3 4747.58  131.22 
   4  -1  -3 4861.86  101.04 
   4  -1  -3 4519.47  106.57 
  -3   8   3 1894.52   85.77 
  -1  10   5   51.47   52.70 
  -1  10   5   44.28   21.22 
  -1  10   5   41.41   20.55 
  -1 -10   5   80.21   41.78 
  -1  10   5   61.35   31.53 
  -1  12   2  168.29   57.26 
  -1   4   8 1817.91   86.45 
  -1  12   2  177.54   62.91 
  -1   4   8 1823.38  111.79 
  -1  -4   8 1695.14   78.98 
  -1 -12   2  122.81   52.06 
   1 -12  -2  131.28   53.68 
  -1  -4   8 1745.90   83.97 
   4  -3   0 2318.55   74.21 
   4  -3   0 2036.20   83.97 
   4  -3   0 1638.70   65.22 
  -4  -3   0 2364.84  123.16 
   4   3   0 2239.78   72.93 
  -4   3   0 2345.14  109.85 
  -4   3   0 2209.02   70.39 
  -4   3   2 1496.34   65.41 
   4  -3  -2 1452.58   33.09 
  -1  -7   7 6346.74  167.25 
   4  -3  -2 1476.95   50.34 
  -1   7   7 5981.06  140.66 
  -1  -7   7 6239.58  169.85 
  -4  -3   2 1512.87   73.45 
  -4  -3   2 1509.42   63.17 
  -4   3   2 1532.03   80.99 
  -1   7   7 6270.75  178.02 
  -1  -8  -6  506.14   43.01 
   1   8   6  535.59   46.21 
   1   8   6  592.02   68.24 
   1  -8   6  553.71   51.03 
  -3   6   512123.40  260.19 
  -3   6   512002.68  251.66 
  -3  -6   511975.50  261.59 
  -3  -6   511965.43  245.22 
  -1   8  -6  449.03   57.17 
   0   9   6  473.99   82.35 
  -3   2  -5 6803.97  160.30 
  -3  -2  -5 7148.85  146.09 
   0  -9   6  553.17   91.22 
   3   2   5 7021.69  126.91 
  -1   0  -8   11.22   13.06 
   0  -9  -6  481.23   32.82 
   0   9   6  510.05   45.27 
   1   0   8   -0.58   20.05 
   1   0   8   -4.13   37.11 
   3  -2   5 7208.58  180.56 
   3   2   5 7190.41  192.29 
  -1 -11   4 7179.10  185.59 
  -1  11   4 7032.89  161.64 
   1 -11  -4 7300.00  168.60 
  -1  11   4 7181.61  181.86 
  -4  -2  -1  753.38   44.90 
   4   2   1  672.92   57.75 
   4   2   1  729.47   39.34 
  -4   2  -1  804.79   38.54 
   4  -2   1  673.21   39.85 
   4  -2   1  713.08   34.93 
   4  -2   1  814.51   45.02 
  -4   2  -1  771.91   57.58 
  -3   4   6  354.04   71.89 
   3  -4  -6  313.89   18.36 
  -3  -4   6  326.03   35.06 
  -3   4   6  312.67   27.23 
  -3  -4   6  328.86   69.41 
  -4  -2   3  680.91   55.29 
  -4   2   3  640.90   61.06 
   4   2  -3  564.37   54.84 
   4  -2  -3  671.48   30.14 
  -4  -2   3  639.82   48.61 
   4  -2  -3  608.83   22.64 
  -4   2   3  654.10   55.71 
   1  -1   8  419.94  120.45 
  -1  -1  -8  255.91   72.93 
   1   1   8  282.37   46.80 
   1   1   8  287.34   38.22 
   1  -1   8  341.35   44.27 
  -1   1  -8  294.77   63.46 
   1  -6   7 4242.80  142.57 
   1   6   7 4160.44  133.36 
   1  -6   7 4394.35  125.98 
   1   6   7 4327.29  124.95 
  -1   6  -7 3727.13   98.48 
  -2   0  -7    4.15    9.86 
   2   0   7   11.89    9.04 
   2   0   7   14.03   26.68 
   2  11   1   52.97   23.41 
  -2 -11  -1   90.16   46.48 
  -2  11  -1  100.00   39.39 
   2 -11   1   84.27   41.61 
  -2  11  -1   83.52   47.98 
   2 -11  -2   10.47   14.90 
  -2  11   2   15.21   30.11 
  -2  11   2    5.39    8.87 
  -2 -11   2   22.67   32.89 
  -2  11   2   12.59   29.92 
   2  -9   4 1044.17   61.28 
  -2   9  -4 1130.25   41.86 
   2   9   4 1027.48   56.59 
  -2  -9  -4  964.89   70.27 
  -2   9  -4 1110.69   65.14 
  -2   9  -4 1004.10   62.02 
  -2   0   8  239.74   32.54 
  -2   0   8  253.60  106.58 
  -2   9   5  938.02   39.80 
  -2   9   5  939.17   38.85 
  -2   9   5  989.25   60.35 
  -2   9   5  941.24   99.45 
  -2  -9   5 1013.54   68.96 
  -2  -1  -7   26.35   12.54 
   2   1   7   37.56   14.19 
   2  -1   7   37.72   14.99 
   2   1   7   18.80   24.88 
   2  -1   7   71.90   29.43 
  -2   1  -7   36.52   11.60 
   0  12   3 3895.31  117.36 
   0 -12  -3 3830.94   93.98 
   0 -12  -3 3969.34  127.91 
   0 -12   3 4098.76  146.51 
   0  12   3 4063.37  131.05 
   3   7   3 1130.14   60.90 
  -3   7  -3 1161.15   81.17 
  -3   7  -3 1045.29   34.13 
   3  -7   3 1110.21   57.26 
  -1   9   6 3817.45  192.08 
  -1  -9   6 3451.25  124.99 
  -1   9   6 3547.54  110.83 
   1  12   2  560.33   54.95 
  -1 -12  -2  490.64   54.34 
  -1  12  -2  430.51   45.73 
   1 -12   2  467.58   46.79 
   1  12   2  502.82   48.41 
  -1  12  -2  482.26   88.97 
  -2  10  -3  738.14   55.30 
   2 -10   3  802.69  112.25 
  -2  10  -3  729.67   39.41 
  -2 -10  -3  903.90   70.67 
   2  10   3  881.42   84.42 
  -3  -8  -2  620.78   92.30 
  -3   8  -2  614.28   53.14 
   3  -8   2  646.58   62.37 
  -3   8  -2  615.24   42.16 
  -2   1   8  124.11   63.77 
  -2 -10   4  219.05   96.38 
  -2  10   4  169.45   41.14 
   2 -10  -4  170.45   51.84 
  -2   1   8  124.47   83.48 
  -2  10   4  285.72  112.89 
  -2  -1   8  103.91   44.44 
  -2  10   4  226.47   89.62 
  -2  -1   8   98.16   42.34 
   3  -9  -1 7683.08  139.93 
  -3   9   1 6600.02  173.09 
  -3   9   1 6369.00  125.39 
  -3  -9   1 6407.70  179.48 
  -3   9   1 6080.06  147.47 
  -4  -4   1 1585.92  105.90 
   4  -4  -1 1598.40   42.95 
  -4   4   1 1649.80   92.42 
  -4   4   1 1579.43   60.15 
   4  -4  -1 1510.71   52.81 
   4  -4  -1 1673.28   47.56 
   1  -2   8   61.79   29.46 
   1   2   8   62.09   42.01 
  -1   2  -8   61.83   23.16 
   1   2   8   70.16   41.70 
   1  -2   8  118.82   73.02 
  -3   9   0   26.27   14.86 
  -3   9   0   29.39   21.95 
   3  -9   0   17.90   15.48 
  -3   9   0   56.56   20.97 
  -3  -9   0   22.61   23.75 
   3  -9   0   20.18   13.88 
   3   9   0   19.16   10.93 
   3  -3   5  440.11  103.55 
  -3   3  -5  455.85   86.43 
   3   3   5  368.86   93.41 
   3   3   5  383.64  102.49 
  -3  -3  -5  360.24   59.36 
  -4   3  -1  167.45   60.18 
  -2   2  -7    7.92    7.32 
  -2  -2  -7   19.15   20.08 
   2  -2   7    4.61    9.14 
  -4  -3  -1  224.37   83.13 
   2   2   7   18.29   17.18 
   4   3   1  226.45   80.27 
   4   3   1  124.46   44.85 
   4  -3   1  154.12   31.80 
   2   2   7   10.84   21.04 
   4   3   1  133.20   67.97 
   4  -3   1  103.81   48.19 
  -4   3  -1  152.56   42.96 
   2  -2   7   14.83   21.37 
   4  -3   1  196.57   64.06 
  -4   3   3 7514.14  188.43 
  -4   4   0  719.80   38.92 
  -4   4   0  763.57   59.69 
   4  -4   0  738.16   35.06 
   4   4   0  743.62   61.59 
  -4  -3   3 7470.64  180.02 
   4  -4   0  727.43   37.85 
  -4  -4   0  762.96   54.59 
  -4   3   3 7494.26  175.59 
  -4  -3   3 7398.20  161.19 
   4  -3  -3 7322.30  108.17 
   4  -4   0  779.45   35.82 
   4  -3  -3 7571.45  112.30 
   4   3  -3 6653.35  139.26 
  -4  -4   2 3010.42  103.83 
   2  -6   6  371.87  147.36 
  -4  -4   2 3362.62  113.08 
   4  -4  -2 3414.60   62.52 
   4  -4  -2 3507.25   64.04 
   2   6   6  272.18   57.36 
  -4   4   2 3404.24  106.80 
   2   6   6  419.50  130.40 
  -4   4   2 3377.80  117.20 
  -2   6  -6  295.63   21.42 
  -2  -2   8   39.46   17.55 
  -2   2   8   57.06   25.84 
  -2   2   8   44.10   22.93 
  -2  -2   8   44.70   22.99 
   2  -2  -8   17.23    7.98 
  -2   6   7 1636.87   84.09 
  -2   6   7 1502.00   51.24 
  -2   6   7 1678.62   85.92 
  -2  -6   7 1687.20   82.85 
  -2  -6   7 1646.32   87.09 
   0  -5   8 1211.69   69.54 
   0  -5   8 1078.91   66.08 
   0   5   8 1111.41   69.76 
   3  -9  -2  983.32   31.52 
  -3   9   2  959.72   33.54 
   0   5   8 1213.89   73.17 
  -3   9   2 1021.28   67.58 
  -3  -9   2  978.17   79.12 
  -3   9   2 1007.32   58.82 
   2  -8   5 1067.64   62.58 
  -2   8  -5  958.97   37.50 
   2   8   5 1096.37   57.90 
  -2   8  -5 1059.33   38.55 
   0  13   0   19.68   15.65 
   0  13   0   36.54   16.69 
   2   8   5 1045.81   75.10 
  -1   5   8  344.46  129.95 
   4   0   213643.27  293.12 
   4   0   211876.56  196.54 
  -4   0  -212865.33  260.81 
  -1  -5   8  266.67   79.52 
  -1   5   8  253.00   45.83 
  -1  -5   8  299.52   47.01 
  -2   8   6   37.60   18.14 
  -2   8   6   54.83   41.17 
  -2  -8   6   45.12   26.32 
  -2  -8   6   80.83   38.65 
  -2   8   6   67.91   29.01 
  -4   0   4  282.33   52.56 
  -4   0   4  341.38  119.05 
   4   0  -4  192.40   33.30 
   4   1   213661.34  225.72 
  -4   1  -213296.06  258.90 
   3  -6   4   46.60   27.36 
   4   1   214569.14  281.22 
  -3  -6  -4   27.19   11.56 
   3   6   4   80.39   55.59 
   3   6   4   56.44   25.54 
  -3   6  -4   68.87   35.75 
   4  -1   212451.24  243.57 
  -4  -1  -214141.50  264.53 
   4  -1   213231.40  213.28 
  -1  12   3  152.45   70.23 
   1 -12  -3   92.20   70.99 
  -1 -12   3  155.69   54.37 
  -1  12   3  185.44   67.31 
   1  11   4 4989.98  149.87 
  -1 -11  -4 4780.66  204.65 
   1 -11   4 5103.51  145.24 
  -4  -1   4 1300.08   70.42 
   1  -3   8   40.38   17.51 
   1   3   8   19.42   21.75 
  -4   1   4 1306.39   40.53 
  -4   1   4 1199.02   70.34 
   1   3   8   30.23   35.83 
   1  -3   8   41.78   20.35 
  -4  -1   4 1281.53   50.66 
   4  -1  -4 1271.02   33.76 
   4   1  -4 1258.66   42.43 
  -1   3  -8   25.60   15.70 
   1 -10   5 1218.90   68.90 
   1  10   5 1106.99   68.61 
  -1 -10  -5 1207.81   34.16 
   0 -13  -1 4307.90  140.85 
  -3   5   6 1739.54   39.74 
  -3  -5   6 1952.73   80.48 
   0 -13   1 4569.18  158.41 
   0  13   1 4395.38  137.35 
   0  13   1 4487.98  121.64 
  -3   5   6 1870.95   41.64 
   0  13  -1 4040.43  128.66 
  -3   5   6 1904.47   94.33 
   0  13  -1 4343.08  116.67 
  -3  -5   6 2098.31   98.08 
   3   9   1  219.51   22.94 
  -3  -9  -1  262.93  138.64 
  -3   9  -1  212.52   64.40 
   3  -9   1  278.33   44.72 
  -3   9  -1  278.35   45.77 
  -3   9  -1  403.67  148.24 
   3  -9   1  213.40   77.16 
  -3  -8   4  531.74   50.26 
  -3   8   4  559.60   48.65 
  -3   8   4  594.39   54.22 
  -3   0   714518.72  347.62 
  -3   0   714300.94  247.13 
   3   0  -711605.12  200.71 
  -2   3  -7  564.21   25.51 
  -2  -3  -7  524.88  116.51 
   2  -3   7  625.56  108.60 
   2  -3   7  575.72   66.84 
   2   3   7  621.94  193.67 
   2   3   7  565.63   38.78 
   2  11   2  801.37   66.78 
   2 -11   2  801.42   65.50 
  -2  11  -2  747.49   56.32 
  -2 -11  -2  666.50   74.17 
  -2  11  -2  785.18   48.71 
  -2  11   3 1223.27   71.77 
  -2  11   3 1111.64   85.41 
  -2 -11   3 1025.86   66.33 
   2 -11  -3 1062.92   46.22 
  -2  11   3 1064.78   45.16 
  -2   3   8  587.41   37.84 
  -2  -3   8  584.05   56.10 
  -2  -3   8  570.76   47.25 
   2  -3  -8  449.85   35.61 
  -2   3   8  522.52   91.12 
  -3  -1   7 6757.22  182.38 
  -3   1   7 6776.23  211.68 
  -3   1   7 6535.76  167.50 
   3   1  -7 6189.26  163.69 
   3  -1  -7 6427.21  165.54 
  -3  -1   7 6718.67  215.89 
  -4  -2  -2 2707.58  100.29 
  -4   2  -2 2557.46  150.09 
   4   2   2 2317.30   85.61 
   4  -2   2 2449.27   67.24 
   4  -2   2 2718.51  139.14 
   4   2   2 2566.61   91.88 
   4   2   2 2773.82  131.20 
  -3  -4  -5 2830.90   85.66 
   3   4   5 2698.27  119.33 
   3   4   5 2944.15   92.41 
   3  -4   5 2816.98  111.43 
  -3   4  -5 2824.79  109.76 
  -4  -2   4  310.29  121.78 
  -3  -7   5 2304.67   97.05 
   0   8   7  575.83   46.26 
   4   2  -4  222.44   39.57 
  -3  -7   5 2513.09  121.45 
   0  -8   7  668.05  115.25 
   4  -2  -4  255.85   17.53 
   0   8   7  593.34   64.72 
  -4  -2   4  267.01   34.13 
   0  -8  -7  546.48   35.29 
  -3   7   5 2526.87  114.47 
   4  -2  -4  264.11   12.81 
  -3   7   5 2435.32  110.34 
  -4   2   4  354.64  126.26 
  -4   4  -1 2346.94   99.98 
   4   4   1 2270.07   77.71 
  -4   4  -1 2077.17   76.54 
  -4   4  -1 2223.19   71.29 
  -4  -4  -1 2346.47   80.08 
   4   4   1 2332.51  100.70 
   4  -4   1 2210.13   68.53 
   4  -4   1 2246.69   81.41 
   4  -5  -1 2504.78   71.44 
  -4   5   1 2468.20  111.03 
   4   5  -1 2333.19   97.30 
   4  -5  -1 2099.43   75.39 
  -4  -5   1 2409.79  102.62 
  -4   5   1 2459.53   91.10 
   4  -5  -1 1856.44   58.05 
  -4  -4   3  212.83  115.02 
  -4   4   3  203.06   76.63 
  -4   4   3  223.00   89.32 
  -4  -4   3  206.02   80.56 
  -1  -8   7 1504.19   92.56 
  -1   8   7 1697.38   90.29 
  -1   8   7 1614.80   75.00 
  -1  -8   7 1592.73   84.50 
  -3  -2   7  329.88   37.88 
   1  -7   7   23.20   18.32 
   3  -2  -7  307.49   54.22 
  -1   7  -7   10.31    6.32 
   1   7   7   20.80   33.70 
  -3   2   7  398.04  213.95 
  -3   2   7  319.79   43.35 
  -3  -2   7  403.45  117.07 
   1   7   7   47.01   30.44 
  -3  -9   3  119.41   57.14 
  -3   9   3   53.55   22.57 
   4  -5   0 4110.85  118.30 
   4  -5   0 4333.50  168.15 
   4   5   0 4431.45  134.68 
  -3   9   3   85.08   56.65 
  -4  -5   0 4271.90  149.40 
   4  -5   0 4538.79  119.73 
  -3   9   3   89.58   44.49 
   3  -9  -3   65.41   25.92 
  -4   5   0 4464.04  161.29 
  -4   5   0 4394.27  125.19 
  -4  -5   2  967.74   59.39 
  -4   5   2 1016.01  105.06 
   4  -5  -2  954.60   16.10 
  -4   5   2  954.53   55.08 
   4  -5  -2 1125.57   18.80 
   1  12   3 1028.29   64.96 
  -1  12  -3 1030.97  119.63 
  -1  12  -3 1016.91   64.27 
   1  12   3 1070.72   36.36 
  -1 -12  -3 1081.33   87.04 
   1 -12   3  986.48   61.24 
   0 -11   5  146.06   67.34 
   0 -11  -5   69.02   27.26 
   0 -11  -5   72.36   34.24 
   0  11   5   76.19   44.70 
   1   4   8  870.25   76.97 
   1  -4   8  862.00  114.49 
   1   9   6 7572.12  232.43 
  -1   4  -8  812.15   58.55 
  -1   9  -6 7031.87  185.63 
   1   9   6 7674.00  218.88 
   1  -4   8  867.12   50.62 
   1   4   8  901.87   93.24 
   1  -9   6 8202.35  240.43 
  -1  -9  -6 7060.16  169.46 
   0  13   2 4430.32  130.69 
   0  13  -2 4507.32  143.31 
   0 -13  -2 4381.44  158.76 
   0 -13   2 4367.06  184.01 
   0  13  -2 4163.65  159.88 
   0  13   2 4197.24  149.43 
   4   3   2 4373.54  179.68 
   4  -3   2 4325.52  133.81 
   4   3   2 4122.80  124.10 
   4   3   2 4096.22  119.00 
  -4   3  -2 3884.64  134.32 
  -4  -3  -2 4362.51  126.51 
   4  -3   2 4073.61  100.10 
  -1 -13   0  660.07   68.47 
   1  13   0  608.89   35.95 
   1 -13   0  609.78   67.79 
  -1  13   0  633.74   48.62 
  -1  13   0  699.00   97.36 
   1  13   0  517.44   49.92 
   4   3  -4 2336.88   81.07 
  -4  -3   4 2683.26  110.76 
  -4   3   4 2689.88  138.01 
  -4  -3   4 2717.60  165.60 
   2   4   7  160.46   72.37 
  -2  -4  -7  132.90   47.22 
  -2   4  -7  119.92   31.04 
   2  -4   7  159.91   71.41 
   2   4   7  155.29   44.33 
   3  -8   3  389.77   39.39 
   3   8   3  449.64   59.29 
  -3   8  -3  459.99   26.45 
  -3  -8  -3  413.91  176.74 
  -3   8  -3  345.33   43.59 
   0   6   8  833.26   60.71 
  -1  13   1 4648.64  155.81 
   0  -6   8  790.62   53.00 
   0  -6   8  774.06   75.99 
   0   6   8  766.58   60.84 
   1  13  -1 4804.01  137.18 
  -1 -13   1 4839.32  176.88 
   1 -13  -1 4678.41  152.08 
  -1  13   1 4620.39  147.96 
   0 -12  -4 2296.60   78.24 
  -2  -4   8 2436.00  110.57 
   0  12   4 2444.33  143.26 
  -2   4   8 2433.83  114.95 
  -2  -4   8 2507.92  101.61 
   2  -4  -8 2137.30   91.08 
  -2   4   8 2332.66   82.67 
   0 -12  -4 2473.87  111.49 
   0 -12   4 2586.18  136.06 
   0  12   4 2630.14  117.82 
  -1  -6   8   27.49   35.85 
  -1  -6   8   22.22   23.65 
  -1   6   8    0.55   18.65 
  -1   6   8    9.48   14.04 
   2  -7   6   22.41   24.71 
   2   7   6   12.35   22.25 
  -2   7  -6    5.81    4.56 
   0  10   6 2811.72  117.52 
   2   7   6    1.01   12.38 
   0  10   6 2738.89  113.87 
   0 -10   6 2812.78  123.76 
   0 -10  -6 2515.95  106.34 
  -3   3   7  307.59   21.28 
   3  -3  -7  279.11   34.03 
  -3  -3   7  321.07   46.56 
  -1  11   5 2699.24  101.08 
   1 -11  -5 2715.79  124.56 
  -1 -11   5 2594.27  119.12 
  -3  -3   7  408.46  146.92 
  -1  11   5 2616.82  109.62 
  -3   3   7  445.42  167.07 
  -1   0   9  605.56   51.99 
  -1   0   9  724.79  183.55 
  -2   7   7  307.66   30.36 
  -2   7   7  379.31  137.03 
  -2  -7   7  373.72  102.19 
  -2  -7   7  421.99  147.01 
  -2   7   7  285.74   40.34 
   0   0   9   21.53   15.82 
   0   0   9   45.16   20.99 
  -1 -13  -1 1658.05   94.47 
  -3   9  -2  125.86   58.39 
   1  13   1 1663.48   64.49 
  -3  -9  -2   49.69   46.89 
  -3   9  -2   72.95   24.70 
   3  -9   2   71.17   30.52 
  -1  13  -1 1681.32   85.57 
   1 -13   1 1755.47   86.52 
   1  13   1 1692.67   90.13 
  -1  13  -1 1638.81   79.74 
   2 -12   0  943.67   53.85 
  -2  12   0 1002.47   58.86 
  -2  12   1  572.25   51.58 
  -2 -12   0  912.76   66.61 
  -2  12   1  579.53  104.55 
  -2 -12   1  681.11   66.10 
  -2  12   0  896.15   57.70 
   2 -12  -1  562.31  106.78 
  -2  12   1  501.61  122.62 
  -1  -1   9 5236.18  176.41 
  -3   6   6  337.71   16.32 
  -1  -1   9 4667.24  155.46 
  -3   6   6  480.29  164.36 
  -3  -6   6  445.51   68.80 
  -1   1   9 5190.96  182.81 
  -3  -6   6  493.95  143.87 
  -1   1   9 4866.48  152.31 
  -3   6   6  363.70   14.76 
  -2  10  -4  117.82   38.68 
  -2  10  -4   57.16   28.55 
   2  10   4   86.36   40.20 
  -2  10  -4  136.87   51.30 
  -2 -10  -4  156.67   78.25 
   2 -10   4  134.25   50.29 
  -3   5  -5 1688.81  127.00 
   3   5   5 1519.72   64.89 
   3   5   5 1486.88  113.96 
   3  -5   5 1606.95   84.40 
  -3  -5  -5 1465.14   49.84 
   0  -1   9 1577.06   93.60 
   0  -1   9 1616.14   79.32 
   0   1   9 1448.05   73.40 
   0   1   9 1563.78   89.31 
  -2 -10   5  458.81   71.74 
  -2  10   5  344.46   26.28 
  -2  10   5  471.45  113.17 
  -2  10   5  351.50   93.54 
  -2  10   5  413.00  128.64 
  -4   5  -1 1867.82   63.48 
   4   5   1 1694.97   62.09 
  -4  -5  -1 1784.28   94.28 
  -4   5  -1 1754.15   71.06 
   4  -5   1 1761.71   64.53 
   4  -5   1 1897.70   77.07 
  -4   5  -1 1855.76   96.41 
   3   7   4 4521.57  167.19 
  -3   7  -4 3490.47   81.65 
   3  -7   4 4753.61  150.42 
  -3   7  -4 4763.21  161.95 
   3   7   4 4539.53  139.14 
  -3   7  -4 3730.39   85.69 
  -4   5   3  800.09   57.71 
  -4  -5   3  958.79   84.50 
  -4   5   3  786.72   64.68 
  -4  -5   3  810.35   54.64 
  -1  10   6 1857.57  103.60 
  -1  10   6 1811.74   79.41 
  -1 -10   6 1748.11   87.25 
  -3  10   1    6.72   15.72 
  -3  10   1    6.52   22.42 
   3 -10  -1   -0.58   13.27 
  -3  10   1    0.80   35.65 
  -3 -10   1   23.68   34.68 
  -4   0  -3   12.68   22.47 
   4   0   3   -2.66   25.72 
   4   0   3    4.16    7.34 
   1 -12  -4   43.97   32.98 
  -1  12   4   33.81   16.56 
  -1  12   4   12.80   25.59 
  -1 -12   4   23.95   18.00 
  -4   4  -2 3750.82  136.54 
  -4  -4  -2 3635.45  108.20 
   4  -4   2 3513.92   86.95 
   4   4   2 3578.63  148.93 
  -3 -10   0 2161.24  118.98 
  -1  -2   9 4501.43  148.47 
   4  -4   2 3708.08  118.51 
   4   4   2 3590.18  113.22 
  -1   2   9 4513.24  147.15 
  -4   4  -2 3641.91   92.54 
  -1 -13   2  839.16   64.67 
   3  10   0 1987.24   62.25 
  -1  -2   9 4739.20  160.03 
  -1  13   2  850.40   73.60 
  -3  10   0 1882.03   95.50 
  -1   2   9 4881.52  170.63 
   1 -13  -2  810.14   58.67 
  -3  10   0 2020.89   86.78 
  -3  10   0 1918.57   81.16 
   4   4   2 3389.93  100.57 
   3 -10   0 2125.04   90.97 
  -1  13   2  815.04   73.81 
  -4   6   1 1016.39   52.67 
  -4  -6   1  987.60   65.26 
   4   6  -1 1031.29   47.40 
   4  -6  -1 1103.68   33.27 
   4  -6  -1 1014.71   34.38 
  -4   6   1  988.04   90.06 
   2  11   3   88.48   54.66 
  -4   0   5   14.31   13.19 
  -2  11  -3   59.51   43.60 
  -4   0   5    5.70   40.98 
   2 -11   3   58.25   23.39 
  -2 -11  -3   69.57   30.37 
   4   0  -5    1.48    8.74 
  -2  11  -3   51.56   21.75 
   0   2   9  642.97   92.08 
   3   0   6    2.33    4.11 
   0   2   9  616.35   53.34 
   0  -2   9  690.51   50.31 
   3   0   6    9.68   16.91 
  -3   0  -6    2.95   22.80 
   0  -2   9  711.07   55.04 
  -4   1  -3   12.05   18.83 
  -4   4   4  153.19   60.55 
   4   1   3   32.13   26.65 
   4  -1   3   28.55   15.01 
  -4   4   4  114.97   49.04 
  -4  -4   4  143.56   71.02 
   4   1   3   10.18   14.20 
  -4  -1  -3   15.56   22.29 
   4  -1   3    4.97    4.83 
  -4  -4   4  127.18   57.27 
  -2   9  -5  632.75   59.88 
  -2 -11   4  687.32  141.05 
  -2  11   4  674.35   53.33 
  -2   9  -5  551.56   47.89 
  -2  11   4  679.47   56.55 
  -2   9  -5  658.98   54.23 
   2   9   5  667.04   60.99 
   2  -9   5  628.11   50.23 
   2   9   5  652.66  208.13 
   2 -11  -4  707.34   79.92 
  -2  11   4  560.28   34.76 
   2  12   1 3887.79   98.16 
  -2 -12  -1 4059.40  151.27 
   2 -12   1 4020.91  134.94 
   2  12   1 3998.71  145.68 
  -2  12  -1 3991.34  137.14 
  -2  12  -1 3980.30  146.87 
   2 -12  -2 2747.85   96.68 
  -2  12   2 2490.07  107.75 
  -2  12   2 2296.79   81.92 
  -2   9   6  165.77   66.21 
  -2   9   6  221.72   99.12 
  -2  -9   6  270.82  112.55 
  -2   9   6  213.63   28.46 
  -2  12   2 2681.63  113.69 
  -2 -12   2 2458.96  117.53 
  -4   1   5   25.93   21.83 
   4   1  -5    5.80    8.12 
  -4  -1   5    6.18   45.17 
   4  -1  -5    8.25    6.88 
  -4  -1   5   14.40   14.91 
  -4   1   5    7.69    7.83 
   3   1   6  138.17   32.45 
  -3  -1  -6  153.68   67.58 
   3  -1   6  124.19   49.56 
  -3   1  -6  143.88   61.51 
   3   1   6  171.23   76.18 
   1  -5   8 2513.09   91.18 
  -1   5  -8 2121.93   78.65 
   1  -5   8 2386.15  107.22 
   1   5   8 2313.68   97.92 
   1   5   8 2337.73  121.57 
  -4   6   0 2362.47   80.82 
  -4   6   0 2462.31  128.30 
   4  -6   0 2589.43   83.95 
   4  -6   0 2308.81   76.24 
   4   6   0 2562.19   84.53 
  -4  -6   0 2534.54  112.24 
  -4   6   0 2377.50   87.49 
  -3  10   2 6684.39  210.75 
   3 -10  -2 6484.49  177.75 
  -3 -10   2 6523.93  210.26 
  -3  10   2 6642.81  197.86 
  -3  10   2 6487.67  166.00 
  -4  -6   2  935.92   61.51 
  -4   6   2  952.42   67.70 
  -4   6   2  849.46   87.98 
  -3   4   7   93.41   73.41 
  -3  -4   7  110.73   41.39 
  -3   4   7   76.28   32.39 
   3  -4  -7   52.49   22.42 
  -3  -4   7   71.48   37.49 
   2  -5   7 1886.34  143.73 
  -2   5  -7 2011.82   60.96 
   2   5   7 1970.49  105.24 
   2   5   7 2029.73   80.72 
   4   2   3 3710.57  106.48 
  -2  -5   8  172.92   94.43 
   2  -5  -8   70.20   47.65 
  -3  -8   5   15.55   19.25 
   4   2   3 3645.41  143.06 
  -2   5   8  141.83   52.11 
  -3  -8   5   20.39   24.31 
  -4   2  -3 3323.99  118.22 
  -3   8   5   -0.70   30.45 
   4  -2   3 3569.32   79.37 
   4  -2   3 3743.78  128.91 
  -2  -5   8  154.92   61.77 
  -2   5   8  145.99   62.75 
  -3   8   5   10.34   25.05 
  -4  -2  -3 3616.24  115.14 
  -3   9   4 1199.55   20.03 
  -3  -9   4 1120.43  121.69 
  -3   9   4 1118.00   71.29 
  -3   9   4 1188.20   74.97 
  -3   9   4 1071.89   18.85 
   0 -13  -3 4466.61  162.77 
   0 -13   3 4686.86  166.76 
   0  13   3 4731.22  140.72 
   0  13   3 4366.04  154.68 
   1 -13   2 1874.63   92.37 
  -1  13  -2 1718.31   80.98 
  -4  -2   5   59.22   28.94 
  -4   2   5   25.04   21.30 
  -1 -13  -2 1742.22   90.97 
   4   2  -5   23.77   11.47 
  -4  -2   5   13.24   33.99 
   1  13   2 1840.89   95.16 
   4  -2  -5   26.79    9.43 
  -1  13  -2 1779.57   90.33 
   1  13   2 1776.51   63.41 
  -4   2   5   30.53   12.67 
   3   2   6  584.45  141.96 
  -3   2  -6  596.59  103.22 
  -3  -2  -6  496.00   65.47 
   3   2   6  548.21   31.68 
   3  -2   6  612.80  194.17 
  -1  -3   9  364.90  130.73 
  -1   3   9  348.35   48.99 
  -1   3   9  432.40  151.10 
  -1  -3   9  365.57   65.32 
   0  -3   9  790.53   66.86 
  -3  10  -1 3231.30  126.04 
   3  10   1 3161.28   72.05 
   0   3   9 1214.52   74.48 
  -3 -10  -1 3303.47  144.01 
  -3  10  -1 2938.76   94.96 
  -3  10  -1 3427.90  159.17 
   3 -10   1 3390.17  114.90 
   0   3   9 1335.81  184.79 
   0  -3   9 1096.54   65.08 
   0   9   7 1836.23   88.48 
   0   9   7 1724.78   88.92 
   0  -9   7 1842.68  119.46 
  -1  -8  -7  128.77   44.31 
   1   8   7  220.31   97.11 
   1   8   7  193.54   84.06 
   1  -8   7  179.43   73.52 
  -1   8  -7  118.09   52.65 
  -1 -11  -5  101.53   39.48 
   1 -11   5   69.20   40.92 
   1  11   5   77.75   30.94 
  -1 -11  -5   66.15   25.97 
   0  -7   8 3147.99  132.79 
   0   7   8 3214.90  124.28 
   0   7   8 2968.43  118.40 
   0  -7   8 3158.99  126.22 
  -1   9   7  200.92   73.38 
  -1  -9   7  204.41   81.67 
  -1   9   7  193.81   92.97 
  -1   7   8  263.77   52.80 
  -1   7   8  380.48  142.11 
  -1  -7   8  438.06  160.64 
  -1  -7   8  286.59   87.05 
  -1 -12  -4 7736.23  254.57 
   1  12   4 7614.61  224.17 
   3  -6   5 2656.84  108.42 
   3   6   5 2777.38   94.95 
   1 -12   4 7925.15  276.77 
  -3  -6  -5 2563.02   67.97 
  -3   6  -5 2790.02  116.34 
  -1  12  -4 7494.22  280.72 
   3   6   5 2669.12  125.48 
  -4   3  -3 2680.29  109.76 
   4   3   3 2695.07  138.51 
  -4  -3  -3 2809.48   93.30 
   4   3   3 2688.89   88.25 
   4  -3   3 2915.54  132.73 
   4   6   1    5.33    7.93 
  -4  -6  -1   10.10   17.61 
   4  -6   1   10.45   10.92 
  -4   6  -1    6.30    7.44 
   4  -6   1   12.23   10.90 
  -4   6  -1   19.47   12.09 
  -4   6  -1   22.07   26.09 
  -4   5  -2  645.08   60.04 
   4   5   2  677.23   35.39 
   4  -5   2  712.64   44.75 
   4  -5   2  645.46   29.77 
   4   5   2  668.98   54.22 
  -4  -5  -2  437.64   33.12 
  -4   5  -2  626.04   31.65 
  -4   6   3 2850.32  116.22 
  -4   6   3 2887.73  121.37 
  -4  -6   3 2857.87  122.90 
  -4  -3   5  948.23   51.99 
  -4  -3   5  992.98   68.11 
  -4   3   5 1130.55   69.19 
   3   3   6   40.18   23.18 
   3  -3   6   89.66   30.86 
  -3  -3  -6   59.80   25.42 
  -3   3  -6   65.66   21.50 
   3   3   6  107.35   35.33 
  -4  -5   4 3370.79  124.63 
  -4   5   4 3258.51  124.13 
  -4   5   4 3266.09  129.01 
  -4  -5   4 3293.72  144.15 
  -3  -7   6 2457.47  103.36 
  -3   7   6 2654.48   64.07 
  -3  -7   6 2427.83  110.93 
  -3   7   6 2405.88  108.62 
  -2 -12  -2  331.15  142.83 
   2 -12   2  315.20  134.22 
   2  12   2  367.97  138.95 
  -2  12  -2  318.00   99.73 
  -2  12  -2  299.39  109.42 
   1 -13  -3  790.26   58.65 
  -1  13   3  760.47   62.72 
  -1 -13   3  813.94   67.68 
  -1  13   3  888.11   88.80 
  -3  10   3 1290.61   44.82 
  -2  12   3  350.47   41.01 
  -2  12   3  375.80   54.94 
   2 -12  -3  313.92   78.66 
  -3 -10   3 1378.37  141.62 
  -2 -12   3  402.37  164.83 
  -3  10   3 1328.50   80.65 
  -3  10   3 1307.61   69.88 
   3 -10  -3 1326.93   46.42 
  -2  12   3  272.55   89.28 
   2   8   6  858.50  115.61 
  -2   8  -6  780.04   36.59 
  -2  -8  -6  766.80   22.42 
   2   8   6  926.84   84.03 
   2  -8   6  894.06   62.33 
   0  14   0  467.28   94.69 
   0  14   0  452.52   96.95 
   0 -14   0  464.84  154.58 
  -3  -9  -3 1352.08   93.59 
   3   9   3 1598.88  119.57 
  -3   9  -3 1436.77   56.03 
   3  -9   3 1580.81   76.30 
  -3   9  -3 1566.62   91.00 
  -2  -8   7 1061.41  118.20 
  -2   8   7 1016.19   42.39 
  -2   8   7 1137.47   71.58 
  -2  -8   7 1032.03   67.52 
  -2   8   7 1199.83   50.31 
   1 -10   6  676.48  196.13 
   1  10   6  488.34   59.06 
   1  10   6  440.46   44.34 
  -1 -10  -6  472.05   28.04 
  -3   5   7 1682.30   53.68 
  -3   5   7 1620.42   88.43 
  -3  -5   7 1637.61   92.38 
  -3   5   7 1568.99   53.34 
  -3  -5   7 1586.53   80.20 
  -1  -4   9  424.49  101.07 
  -1   4   9  430.37   75.79 
  -1  -4   9  478.94  158.29 
  -1   4   9  601.13  195.11 
   0  -4   9   33.47   27.07 
   0  -4   9   24.58   26.39 
   0   4   9   21.74   20.17 
   0   4   9   15.00   36.79 
   1   6   8  550.76   58.95 
   1  -6   8  657.29   44.25 
  -1   6  -8  487.23   96.47 
   1   6   8  745.88   99.32 
   1  -6   8  624.12   52.21 
   0 -14   1  903.80  136.83 
   0 -14  -1 1003.90  106.96 
   0  14   1 1039.74  113.59 
   0  14  -1  924.36   59.28 
   0  14  -1  865.00   62.34 
   0  14   1  891.69   61.68 
   4  -7  -1  442.73   24.80 
  -4  -7   1  386.01   43.89 
   4   7  -1  368.67   43.19 
   3   8   4   14.56   14.48 
  -3   8  -4   18.41   13.59 
  -3   8  -4   21.13   10.68 
  -4   7   1  454.52  183.64 
   3  -8   4   15.75   15.42 
  -3   8  -4   31.02   41.96 
  -4   7   1  471.82   90.59 
   3   8   4   46.57   21.94 
   2   0   8 2465.66   87.14 
  -2   0  -8 2386.13   77.87 
   2   0   8 2494.84  115.69 
   2  -6   7  448.23   45.43 
   2   6   7  586.62  185.84 
   2   6   7  453.19   45.07 
  -2   6  -7  499.28   26.77 
  -2   0   9    7.79   22.24 
  -2   0   9   -7.51   35.65 
  -2  -6   8  351.04   94.17 
  -2   6   8  183.16   85.49 
  -2  -6   8  328.53  116.20 
  -2   6   8  326.73   80.79 
  -2   6   8  365.57  129.71 
   0 -12  -515827.10  406.22 
   2   1   8   66.07   28.97 
  -2  -1  -8   42.17   28.55 
   0  12   515539.36  398.85 
   0 -12  -513931.56  322.81 
   2   1   8   61.45   21.77 
  -2   1  -8   50.18   18.54 
   0 -12   515546.66  436.21 
   2  -1   8   65.85   38.23 
   2  -1   8   67.81   23.22 
  -4   7   0  418.80   69.15 
   4   7   0  505.40   37.92 
  -4  -7   0  494.13   57.56 
  -4   7   0  546.72   57.98 
   4  -7   0  469.26   37.22 
   4  -7   0  545.91   42.90 
  -4   7   0  589.94   64.53 
  -4  -7   2 1304.00   85.47 
  -4   7   2 1266.98   65.39 
  -4   7   2 1286.24   75.63 
  -2   1   9 1354.80   93.52 
   3 -10   2  397.76  112.82 
  -3  10  -2  319.91   42.57 
  -2  -1   9 1280.21   64.61 
  -3 -10  -2  401.79  155.08 
  -2  -1   9 1402.21   94.03 
  -2   1   9 1263.35   62.45 
  -3  10  -2  367.51   65.42 
   3  10   2  403.22  114.98 
  -4  -4  -3  415.64   29.77 
  -4   4  -3  582.63  143.66 
   4   4   3  281.44  118.79 
   4  -4   3  457.08   41.48 
   4   4   3  472.16  116.73 
   1   0   928501.27  318.29 
   1   0   928134.49  645.57 
   0 -11  -6   23.84   11.82 
  -4   4   5  356.22  133.61 
  -3  -4  -6    0.91   12.85 
  -3   4  -6   31.60   23.45 
   3   4   6   28.19   12.32 
   3   4   6    9.47   47.22 
   0  11   6   53.36   88.71 
  -4  -4   5  340.83   50.77 
   0 -11   6  122.58   50.00 
   3  -4   6   10.90   23.06 
  -4  -4   5  385.31  157.90 
   0  11   6   47.25   33.23 
  -1  13  -3   93.03   39.62 
  -1 -13  -3   39.16   32.50 
  -1  13  -3   84.66   35.29 
   1  13   3   40.92   37.48 
   1  13   3   58.35   24.32 
   1 -13   3   52.53   22.83 
   1  -1   9  425.98   49.25 
   1   1   9  426.84   63.07 
   1   1   9  423.66   56.00 
   1  -1   9  489.42  164.97 
  -3   0   8    6.66   22.37 
   3   0  -8    4.71    7.87 
  -3   0   8   -4.80   35.25 
  -2  -2  -8 5411.99  160.10 
   2   2   8 6080.90  201.97 
  -2   2  -8 5938.50  147.27 
   2  -2   8 5727.32  210.51 
   2  -2   8 5837.91  151.48 
   2   2   8 5939.87  166.27 
   3  -1  -8   54.32   34.92 
   2 -11   4 2461.47  107.38 
  -2 -11  -4 2376.14  175.92 
  -3  -1   8  104.08   30.42 
   2  11   4 2178.54  115.99 
  -3  -1   8  134.08   51.93 
  -2  11  -4 2289.25   83.32 
  -3   1   8  116.41   46.35 
  -3   1   8  116.59   52.31 
  -2  11  -4 2454.81  147.80 
  -2   2   9   -5.95   35.60 
  -2  -2   9   17.05   24.05 
  -2  -2   9   19.73   28.41 
  -2   2   9   11.32   17.81 
  -1 -12   5  494.94   56.23 
  -2 -11   5    6.54   16.38 
  -2  11   5   21.09   13.60 
  -2  11   5   38.06   32.67 
  -2  11   5   19.04   11.19 
  -1  12   5  507.44   52.13 
  -2  11   5   13.10    9.20 
   1 -12  -5  548.73  130.15 
  -1  12   5  567.56  107.98 
  -1  11   6  216.31  104.23 
  -1  11   6  249.22   81.14 
  -1 -11   6  240.40   95.38 
  -2  10  -5  240.34   84.62 
   4   0   4  573.63   64.94 
   0 -13  -4  806.98   55.36 
  -2  10  -5  111.29   38.76 
   0  14  -2   99.50   42.55 
   0 -14   2   76.98   33.66 
   0  14   2   77.76   32.91 
   2  10   5  172.00   58.37 
   0  13   4 1023.65   53.49 
   0 -13   4  993.04  146.22 
   4   0   4  397.25   15.71 
   0  13   4  927.29   72.50 
  -2  10  -5  155.87   64.73 
   2 -10   5  208.67   69.59 
   0 -13  -4  927.74  152.78 
   0  14  -2   89.14   63.92 
  -4   0  -4  458.91   74.50 
   0 -14  -2   93.68   42.69 
   2  10   5  146.35   52.94 
   4   0   4  455.14   16.64 
   0  14   2   72.60   30.61 
   1  -2   910919.01  308.83 
   1   2   910783.13  299.34 
   1  -2   910426.21  265.03 
   1   2   911158.01  293.12 
  -3  11   1 7877.24  194.59 
  -3 -11   1 8722.21  265.81 
  -3  11   1 8528.25  234.55 
  -3  11   1 8384.46  249.38 
   3 -11  -1 8845.77  218.95 
  -4   6  -2  846.45   30.15 
   4  -6   2  901.84   51.53 
  -4   6  -2  876.92   67.96 
   4  -6   2  844.38   33.79 
   4   6   2  877.87  110.50 
  -2  10   6   64.55   21.30 
  -1  14   0  658.79   85.50 
   1 -14   0  702.41   61.60 
   1  14   0  827.12  108.98 
  -2 -10   6   97.72   39.18 
  -2  10   6   93.09   45.13 
  -2  10   6   83.81   33.45 
  -1  14   0  669.14   91.49 
   1  14   0  724.35   96.37 
  -1 -14   0  674.96   66.03 
  -4  -6   4   16.94   37.07 
  -4   6   4    5.09   26.07 
  -3  -9   5   29.07   31.92 
  -4   6   4   32.69   25.48 
  -3   9   5   46.45   30.34 
  -3   9   5   30.67   16.98 
  -4  -6   4   20.17   19.10 
  -3   9   5   29.59   16.66 
  -3   9   5   42.83   28.86 
   4   1   4  161.38   38.02 
  -4  -1  -4  185.27   62.47 
  -4   0   626995.93  664.95 
  -4   0   627383.19  605.04 
   4   0  -625566.87  552.22 
  -4   1  -4  217.17   87.11 
   4   1   4  183.25   28.11 
   4  -1   4  212.47   68.74 
   4   1   4  255.64   80.33 
  -3 -11   0  938.23   69.98 
  -3  11   0  983.68   63.71 
  -3  11   0  866.05   63.65 
  -1  -5   9  553.91  174.45 
  -1  -5   9  483.13   52.24 
  -1   5   9  451.09   56.85 
  -3  11   0  876.58   41.78 
   3  11   0  879.39   30.96 
  -1   5   9  505.26   45.92 
   3 -11   0  982.80   48.57 
   3  -2  -8  357.85   27.18 
  -3  -2   8  379.63   44.30 
  -3   2   8  416.55  140.09 
  -3  -2   8  524.62  200.08 
  -3   2   8  438.65   30.84 
  -1 -14   1  133.08   46.46 
   1  14  -1   96.42   34.22 
  -1  14   1   61.20   26.73 
   1  14  -1   67.70   46.92 
  -1  14   1   61.87   34.64 
   1 -14  -1   78.33   32.29 
  -3   7  -5   31.54   28.58 
   3  -7   5   61.66   25.30 
   3   7   5   74.50   43.76 
   0  -5   9   64.04   39.98 
   0  -5   9   42.06   32.24 
   0   5   9   54.93   34.13 
   0   5   9   31.70   16.34 
   3   7   5   47.98   25.77 
   2 -13   0   19.81   16.86 
   2 -13  -1   54.44   23.97 
  -2 -13   0   30.75   23.60 
  -2 -13   1   26.69   24.63 
   2  13   0    8.75   11.80 
   4   1  -611968.98  278.18 
  -4  -1   613115.68  151.06 
  -4  -1   612933.39  244.17 
  -4   1   613063.50  298.52 
   4  -1  -612387.82  277.56 
  -2  13   1   83.19   31.00 
  -2  13   1   50.76   26.91 
  -2  13   0   14.87   13.65 
  -4   1   612577.23  402.11 
  -2  13   0   39.92   31.84 
   4  -7   1  969.56   63.02 
  -4  -7  -1  977.51   75.98 
  -4   7  -1  825.83   58.58 
  -4   7  -1  924.35   53.42 
  -4   7  -1  937.05   85.44 
   4   7   1  959.56   36.75 
   4  -7   1  888.74   37.00 
  -4   7   3   63.30   34.34 
   0   8   8 1279.74   73.52 
   0   8   8 1273.95   72.61 
   0  -8   8 1319.23  133.12 
  -4   7   3   53.86   21.78 
   0  -8   8 1343.80   85.59 
  -4  -7   3   64.02   25.31 
  -3  10   4  699.61   65.20 
  -3 -10   4  669.76   59.51 
  -3  10   4  692.36   28.18 
  -3  10   4  638.82   22.25 
  -3  10   4  689.95   89.07 
  -2   3  -8  359.48   90.11 
  -2  -3  -8  263.16  107.07 
  -3   6   7 1833.27   61.00 
  -3  -6   7 1973.29  102.41 
  -3  -6   7 2168.35  113.59 
  -3   6   7 1948.40  108.99 
   1   9   7  451.19   63.82 
   2   3   8  398.10   45.43 
  -3   6   7 2082.28   69.33 
   2  -3   8  502.28  153.36 
   1   9   7  466.21   65.99 
  -1  -9  -7  366.31   40.93 
   1  -9   7  486.79   52.21 
   2   3   8  540.56  148.04 
   2  -3   8  324.23   36.90 
  -1   8   8  755.16   52.71 
  -1  -8   8  769.48   66.51 
  -1   8   8  781.68   62.37 
  -1  -8   8  710.72   59.35 
  -2  12  -3  920.39   72.96 
   3 -11  -2 2806.56  109.53 
   2  12   3  911.11   65.63 
   2 -12   3  997.96   69.98 
  -2  12  -3  998.32   71.42 
  -3 -11   2 2894.71  141.21 
  -3  11   2 2773.96   91.46 
  -2 -12  -3  970.26   88.39 
  -3  11   2 2895.25  134.80 
  -3  11   2 2857.10  122.87 
  -1 -14  -1 1792.54  106.36 
   1  14   1 1806.94   73.40 
  -2   3   9  765.74   65.00 
  -2  -3   9  720.08   92.16 
  -2  -3   9  882.05   60.87 
   1  14   1 1832.29   99.13 
  -1  14  -1 1821.19   95.93 
  -2   3   9  799.24   52.33 
   1 -14   1 1765.59  101.50 
  -1  14  -1 1854.79   91.44 
  -2  12   4   30.62   32.56 
   4   2   4 5306.76  156.13 
   4  -2   4 5854.27  198.90 
  -2  12   4   52.19   24.97 
  -2 -12   4   10.23   24.69 
   4   2   4 5680.51  219.35 
   4   2   4 5412.65  157.03 
  -4  -2  -4 5217.75  179.95 
  -4   2  -4 5754.08  193.01 
   2 -12  -4    6.02   11.04 
  -2  12   4    6.22    9.90 
  -1 -13   4 6178.26  219.41 
  -4  -2   6 3539.52  149.10 
  -1  13   4 6081.20  203.99 
   4  -2  -6 3500.08   99.47 
  -4   2   6 3486.28  103.77 
  -4  -2   6 3769.85  133.03 
   4   5   3  399.58  121.77 
  -4   2   6 3442.10  150.47 
   0  10   7  471.17   57.91 
   0 -10   7  534.91   53.43 
  -1  13   4 5973.31  208.78 
   0  10   7  517.77  106.03 
   4   2  -6 3179.96  107.38 
   4  -5   3  391.65  119.90 
  -4   5  -3  466.92  158.24 
   1 -13  -4 6296.18  214.51 
   4   5   3  293.90   37.39 
  -4  -5  -3  340.81   52.03 
   1  -3   9  812.07  141.76 
   1   3   9  790.05   63.61 
   1  -3   9  778.64   85.48 
   1   3   9  864.10   62.47 
  -3  -8   6  189.13   81.29 
  -3   8   6  144.84    9.68 
  -3  -8   6  200.55   75.45 
  -3   8   6  142.45   12.03 
  -3   8   6  221.64   90.70 
  -4  -5   5 1718.97  132.44 
   3   5   6   43.02   29.43 
  -3   5  -6    9.72   20.65 
   3  -5   6   16.22   23.45 
  -4  -5   5 1715.09  102.23 
  -4   5   5 1812.16  101.70 
  -3  -5  -6   13.18   12.97 
   3   5   6   16.53   12.92 
   1   7   8  113.12   65.92 
   1   7   8   52.87   52.38 
   1  -7   8   93.94   54.97 
  -1   7  -8   51.45   24.56 
   2  13   1  187.10   43.60 
  -2  13  -1  261.87  105.24 
  -2  13  -1  174.48   65.24 
   2  13   1  258.24  110.84 
   2 -13   1  215.43   87.67 
  -2 -13  -1  210.67  113.94 
   3  -3  -8  377.18   44.77 
  -3  -3   8  507.16  214.97 
  -3   3   8  392.25   40.23 
  -2 -13   2   58.54   29.55 
  -3  -3   8  429.47  104.32 
  -2  13   2   23.88   16.74 
  -2  13   2   20.64   27.75 
  -3   3   8  469.07  158.67 
   2 -13  -2   14.46   14.89 
  -1  10   7  589.40   53.80 
  -1  10   7  655.79   52.18 
  -1 -10   7  531.46   52.15 
  -3  11  -1  667.88   58.47 
  -3 -11  -1  718.93   71.05 
  -3  11  -1  731.04  133.77 
   3 -11   1  605.39   81.35 
   2  -7   7   87.61   38.20 
   2   7   7   76.52   35.83 
   2   7   7   79.89   29.02 
  -2   7  -7   41.47   19.91 
   1 -14  -2 4929.00  177.66 
  -1 -14   2 5152.99  202.07 
  -1  14   2 5097.74  193.46 
  -1  14   2 4884.31  180.02 
   2   9   6   10.68   24.34 
  -2  -9  -6    3.85    3.30 
   2  -9   6   23.13   21.03 
  -2   9  -6    9.98   10.88 
   2   9   6   17.00   21.12 
  -2   9  -6   15.28    9.87 
  -2  -7   8  891.99   91.85 
  -2   7   8  922.82   49.39 
  -2   7   8  787.07   84.41 
  -2  -7   8  871.97   68.15 
  -2   7   8  941.37   66.24 
  -4   8   1  395.70  153.06 
  -4  -8   1  305.65  100.81 
  -4   8   1  291.24   58.83 
   4   8  -1  201.15   84.93 
  -4   8   1  348.48  121.01 
   4  -8  -1  325.05   49.19 
  -2   9   7  392.36   37.54 
  -2   9   7  429.39  180.55 
  -2  -9   7  431.45  162.14 
  -2  -9   7  443.63  152.57 
  -2   9   7  329.94   36.04 
  -4  -3  -4   18.04   24.72 
   4   3   4   15.02   26.94 
   4  -3   4   42.76   30.42 
   4   3   4   10.76   13.28 
  -4   3  -4   20.22   19.37 
   4   3   4   15.49   13.55 
  -4  -3   6 6078.23  198.23 
   4  -3  -6 5588.88  141.91 
  -4  -3   6 5559.69  204.63 
  -4   3   6 5780.28  211.36 
  -2   4  -8 5498.88  156.02 
   2  -4   8 5666.79  165.70 
   1 -12   5 7895.49  264.08 
   1  12   5 7374.22  247.13 
  -1 -12  -5 7021.88  190.39 
  -1 -12  -5 7322.77  256.84 
   2   4   8 5847.84  215.27 
   2  -4   8 5734.79  208.78 
   2   4   8 5822.57  187.38 
   3  10   3 2638.68  124.48 
  -3   9  -4 3063.83  135.14 
  -3   9  -4 2603.02   88.30 
   3   9   4 3084.31  123.88 
  -3  10  -3 2520.29  162.17 
  -3 -10  -3 2435.81  170.38 
  -3  10  -3 2449.94   89.96 
  -3   9  -4 2918.38   93.26 
   3  -9   4 2962.87  124.63 
   3   9   4 3124.12  195.14 
   3 -10   3 2585.02  109.76 
   4  -8   0 1887.21   77.76 
   4   8   0 2199.98   78.15 
  -4  -8   0 2070.04  113.58 
  -4   8   0 2139.04  106.06 
  -4   8   0 2086.56   85.62 
  -4   8   0 2080.13   77.13 
   4  -8   0 2250.64   83.95 
  -4  -8   2 1819.58   98.07 
  -4   8   2 1805.24  110.32 
  -4   8   2 1873.81   96.45 
  -2   4   9   22.97   13.16 
  -2  -4   9   33.97   23.67 
  -2   4   9   62.96   33.55 
  -2  -4   9   43.18   47.75 
   0  14   3  855.91   65.54 
   0  14   3  893.94   48.73 
   0 -14  -3  875.80   61.86 
   0 -14   3  953.29  100.89 
  -3 -11   3  443.06   67.67 
  -3  11   3  376.71   34.50 
  -3  11   3  388.19   85.42 
  -3  11   3  352.92   44.73 
   3 -11  -3  402.23   77.49 
   1  14   2 5016.75  242.13 
  -1  14  -2 5508.54  195.15 
   1  14   2 5146.00  156.37 
  -1  14  -2 5028.97  293.28 
  -1 -14  -2 5179.28  199.31 
   1 -14   2 5149.70  209.94 
   1   4   9 3898.73  145.97 
   1  -4   9 3696.25  130.17 
   1  -4   9 3579.07  151.14 
   1   4   9 3754.53  183.17 
  -1  -6   9 1883.59  122.86 
  -1  -6   9 1740.60   97.65 
  -1   6   9 1713.74   88.50 
  -1   6   9 1854.66  103.41 
   0  -6   9  152.61   61.63 
   0   6   9  170.20   49.74 
   0   6   9  155.42   58.46 
   0  -6   9  156.76   54.57 
   1  11   6 7485.44  251.82 
  -1 -11  -6 6206.12  172.49 
   1  11   6 7443.84  269.40 
   1 -11   6 7596.76  317.56 
   3   0   7  776.45   37.11 
   3   0   7  751.03   77.64 
  -4   7  -2 5923.35  218.23 
  -3   0  -7  778.75  103.10 
  -4   7  -2 5959.15  169.25 
   4  -7   2 6130.15  201.18 
   4  -7   2 5675.92  167.45 
  -4  -7  -2 5786.88  211.68 
  -3   4   8 2232.47  120.31 
   3  -4  -8 1934.18   80.05 
  -3  -4   8 2039.38  117.63 
  -3   4   8 2222.31   97.14 
  -3  -4   8 2235.43  100.69 
  -4   7   4 2196.62  113.71 
  -1  13  -4  297.99   94.81 
   1  13   4  253.83   80.88 
  -1  13  -4  261.46   99.99 
  -4   7   4 2090.80  101.71 
  -1 -13  -4  264.55   95.92 
  -4  -7   4 1996.98  107.23 
   1 -13   4  205.10   57.90 
  -4  -7   4 2348.13  132.85 
  -3   1  -7   37.57   26.18 
   3  -1   7   91.42   45.24 
   3   1   7   37.94   21.77 
   3   1   7   85.47   44.21 
   3  -1   7   25.68   11.04 
  -3  -1  -7   48.26   28.57 
  -2 -13  -2  530.93  148.27 
   2  13   2  486.42   16.24 
  -2  13  -2  463.84   48.25 
   2  13   2  508.91   52.10 
   2 -13   2  592.16  187.12 
  -2  13  -2  492.20   49.52 
   2 -13  -3  118.71   52.60 
  -2  13   3  105.44   47.72 
  -2 -13   3  124.50   43.33 
  -2  13   3  109.86   51.78 
   4  -6   3  256.97   95.70 
   4   6   3  371.20  124.59 
   4   6   3  312.92   91.83 
  -4   6  -3  384.76  149.88 
  -4   4  -413545.84  214.16 
   4   4   413409.87  315.27 
   4   4   411324.31  313.23 
  -4  -4  -411786.92  323.09 
   4  -4   413224.21  214.71 
   4   4   412789.45  148.11 
  -3   7   7 1658.65   63.38 
  -3   7   7 1857.59  109.14 
  -3  -7   7 1857.07  105.92 
  -3   7   7 1843.27   59.81 
  -3  -7   7 1779.87   98.59 
  -4  -6   5  753.50   71.34 
  -4   6   5  705.57  157.81 
  -4   6   5  704.45   58.34 
  -4  -6   5  754.86   91.68 
  -3  11  -2 3874.03  159.89 
  -3   8  -5 2378.57   67.78 
   3  -6   6   14.98   23.61 
   3   8   5 2499.47  124.28 
   3  -8   5 2618.92  135.06 
  -3   8  -5 2465.51  113.99 
   3  11   2 3688.51  166.36 
  -3 -11  -2 3519.53  183.02 
   3 -11   2 3662.38  134.76 
  -3   6  -6    5.76   22.09 
  -3  11  -2 3695.81  128.19 
   3   6   6   -1.41   17.38 
   3   6   6   19.95   29.01 
  -3   8  -5 2475.32   71.30 
   3   8   5 2535.64  108.53 
  -3  -6  -6    6.36   10.12 
  -4   4   6 1023.83   70.14 
  -4  -4   6 1102.83   78.35 
  -4  -4   6 1082.35   60.28 
  -4   8  -1   32.70   18.70 
   3   2   7 6278.50  180.15 
  -4   8  -1   30.59   19.16 
   4  -8   1    7.01   11.62 
  -3   2  -7 6150.59  208.69 
  -4  -8  -1   22.73   32.88 
  -4   8  -1   12.02   10.10 
   4  -8   1   18.93   10.74 
   3   2   7 6340.63  277.26 
  -3  -2  -7 5919.21  190.53 
   3  -2   7 6184.83  222.24 
   4   8   1    7.16    7.38 
  -1  14   3  831.16   66.22 
   1 -14  -3  827.92   62.04 
  -1  14   3  843.79   63.10 
  -1 -14   3  938.63   75.88 
  -4   8   3 6558.68  228.66 
  -4   8   3 6606.67  218.99 
  -4  -8   3 6751.74  233.61 
  -1   0  10   18.92   22.76 
  -1   0  10  -12.48   30.83 
  -1  -1  10  385.04  107.35 
  -1   1  10  371.70  151.98 
  -1   1  10  411.74  121.14 
  -1  -1  10  352.78  102.88 
  -2   5  -8 1242.74   41.91 
   2   5   8 1288.53  109.22 
   2   5   8 1285.65   71.55 
   2  -5   8 1300.99   81.52 
   0   0  1012402.08  213.25 
   0   0  1011763.05  406.83 
   0   9   8 4531.20  174.98 
   0  -9   8 4300.34  177.19 
   0   9   8 4113.62  162.38 
   0 -12  -6  554.32   58.86 
   0 -12   6  637.29  135.12 
   0  12   6  676.10   67.17 
   0  12   6  633.36   61.96 
  -2  -5   9  120.05   60.39 
  -3  10   5 4661.28  177.69 
  -2   5   9  150.63   80.68 
  -3  10   5 4521.98  127.85 
  -3  10   5 4477.36  121.95 
  -2   5   9  102.52   51.20 
  -2  -5   9  151.73   62.50 
  -3 -10   5 4501.93  186.61 
  -3  10   5 4734.81  181.24 
   0  15   0   21.32   20.18 
   0 -15   0   54.23   31.48 
   0  15   0   29.31   33.32 
   0 -13  -5  632.34   38.81 
   0 -13  -5  839.97   64.68 
   0 -13   5  724.02   84.35 
   0  13   5  631.11   71.02 
   0   1  10  570.63  143.47 
   0  -1  10  602.98  227.45 
   0  -1  10  591.72  133.01 
  -1   9   8  444.41   66.33 
   0   1  10  487.36  138.97 
  -1   9   8  374.68   46.30 
  -1  -9   8  433.48  157.76 
  -1  -9   8  346.46  115.82 
   1   8   8 1081.77   69.22 
  -1  -8  -8  710.52  101.88 
   1   8   8  890.74   74.52 
   1  -8   8  992.60  168.08 
  -2  11  -5 3448.99  117.58 
   2  11   5 4078.31  155.23 
   2 -11   5 4290.61  166.75 
   2  11   5 3818.35  163.72 
  -2  11  -5 3890.73  161.52 
  -2  11  -5 4452.75  174.26 
   1   5   9  119.61   40.71 
   1   5   9  135.55   58.13 
   1  -5   9  150.76   44.90 
   1  -5   9  113.19   55.33 
  -2 -12  -4   85.15   40.18 
  -2  12  -4   78.84   41.39 
  -2  12  -4   95.89   43.24 
  -2  11   6  873.68   46.12 
  -2  11   6  965.21   61.76 
  -2 -11   6  926.67   85.00 
  -2  11   6  962.63   68.70 
   2  12   4  107.11   49.22 
  -2  11   6  853.02  107.07 
   2 -12   4   94.91   35.22 
  -1  -2  10  561.54  117.83 
  -1   2  10  501.99   45.50 
  -1  -2  10  512.11   56.54 
  -1   2  10  565.38   55.26 
  -2 -12   5   84.54   34.97 
  -2  12   5  130.45   55.94 
  -2  12   5   56.72   38.88 
  -2  12   5  109.24   42.16 
   1 -10   7  468.39  145.18 
   1  10   7  295.83  121.19 
   1  10   7  361.68  104.71 
  -1 -10  -7  181.68   56.98 
   0  15  -1   67.86   26.74 
  -3  -3  -7  359.13   84.69 
  -3   9   6  771.63   22.86 
   3   3   7  403.23  121.55 
   0  15  -1   87.69   32.48 
   3  -3   7  424.86  120.43 
   0 -15  -1   74.14   40.93 
  -3   9   6  674.38   24.62 
   0  15   1   44.25   36.63 
   2   8   7   13.66   32.70 
  -2  -8  -7   21.57    9.28 
   0 -15   1   51.16   26.99 
   0  15   1   66.47   26.20 
   2   8   7   44.60   25.13 
   2  -8   7   33.02   29.37 
  -2   8  -7   22.11   23.47 
  -3  -9   6  850.26  129.04 
  -3   9   6  791.92   69.30 
  -3   3  -7  416.22  118.05 
   3   3   7  363.21   65.01 
  -3  -5   8   24.69   33.07 
  -3   5   8   16.96   22.79 
  -3   5   8   26.12   22.87 
  -3  -5   8   50.30   52.72 
  -1  12   6  269.34  146.19 
  -1  12   6  424.76  168.05 
  -1 -12   6  308.60  119.16 
  -2   8   8  601.62   61.50 
  -2   8   8  695.17   42.07 
  -2  -8   8  705.60   60.47 
  -2  -8   8  664.55   96.55 
  -2   8   8  488.26   48.23 
   3 -12  -1   76.49   31.48 
  -3  12   1   49.47   41.96 
  -3  12   1   38.35   16.65 
  -3  12   1   95.92   41.78 
  -3 -12   1  119.24   53.88 
   0   2  10 7132.92  245.77 
   0  -2  10 7350.76  235.92 
   0  -2  10 7332.82  267.92 
   0   2  10 7526.05  260.47 
  -1  14  -3  939.40   69.86 
  -1 -14  -3  951.62  100.91 
   1 -14   3 1072.15  153.30 
   1  14   3  968.83   41.12 
   1  14   3  960.77   67.80 
  -3  11   4  539.42   32.53 
  -3 -11   4  788.70  244.91 
  -3  11   4  614.66  138.32 
  -1  14  -3  993.06   67.99 
  -3  11   4  555.94   26.10 
  -3  11   4  551.67   65.38 
   1 -13  -5  211.88   79.00 
  -1  13   5  317.29   89.99 
  -1 -13   5  218.59   96.56 
  -1  13   5  292.10  103.33 
  -3  12   0  920.66   89.23 
  -3  12   0  848.65   56.70 
   3 -12   0  924.78   48.66 
  -3 -12   0  852.47   80.71 
  -4   0  -5   12.09   23.28 
   4   0   5    3.71   19.32 
  -4  -5  -4  787.45   46.11 
  -4   5  -4  698.74   58.13 
   4  -5   4  859.44   69.04 
   4   5   4  773.89   48.28 
   4   5   4  901.73  259.53 
  -4   9   1 6688.97  185.84 
   4  -9  -1 7956.15  225.46 
  -1   7   9  583.01   71.38 
  -4   9   1 7144.16  229.20 
  -1  -7   9  814.72  228.39 
  -1  -7   9  701.65   78.03 
  -1   7   9  613.56   48.35 
   4   9  -1 6446.20  237.64 
  -4  -9   1 7376.17  258.05 
  -4   9   1 7208.00  248.53 
   4   1   5   14.88   11.54 
  -4  -1  -5   19.02   18.14 
   4  -1   5   33.70   44.89 
   4   1   5   52.93   23.58 
  -4   1  -5   29.82   30.07 
   0   7   9   16.37   25.37 
   0  -7   9    3.77   25.04 
   0  -7   9   14.79   31.76 
  -4   0   7   42.43   36.39 
   4   0  -7    1.48    9.05 
  -4   0   7   -3.37   17.45 
   0   7   9   10.17   22.03 
  -4   5   6 2912.08  142.34 
   0  11   7   12.04   29.37 
   0  11   7   14.67   27.90 
  -4  -5   6 3017.39  171.79 
  -4  -5   6 2790.09  135.17 
   0 -11   7   28.65   24.77 
  -3 -12   2 1350.00  110.72 
  -3  12   2 1265.71   48.84 
  -3  12   2 1490.80   91.03 
  -3  12   2 1453.78   86.10 
   3 -12  -2 1396.77   64.88 
   4  -1  -7   33.47   19.64 
  -4   1   7   63.43   26.84 
  -4  -1   7   42.33   25.05 
  -4  -1   7   56.57   34.35 
   4   1  -7  117.91   18.09 
  -4   1   7   56.26   22.52 
  -2  10  -6  212.23   76.88 
  -1  -3  10 1411.98   81.37 
   0  14   4   38.60   44.12 
  -1  -3  10 1531.68  102.01 
  -1   3  10 1460.52   91.14 
   0  14   4   64.29   32.57 
   2  10   6  453.56  153.80 
  -1   3  10 1439.09   83.97 
   2 -10   6  423.76  166.92 
  -2  10  -6  366.83   98.15 
   0 -14   4   49.70   22.67 
   0 -14  -4   76.14   41.09 
   2  10   6  418.91  148.34 
  -2  10   7 1700.94  100.58 
  -2  10   7 1579.49   72.74 
  -2  10   7 1486.05   65.37 
  -2 -10   7 1588.21   96.58 
   4   9   0  117.24   60.90 
  -4   9   0  172.93   74.50 
  -4   9   0  216.52   78.83 
  -4   9   0  116.44   32.92 
  -4  -9   0  211.91  115.57 
   4  -9   0  162.99   29.97 
  -1 -11   7  987.46   79.18 
  -4  -9   2  454.18  174.56 
  -1  11   7  939.37   60.71 
  -4   9   2  362.25   49.17 
  -1  11   7  927.72   67.85 
   4  -9  -2  354.10   12.97 
  -4   9   2  439.37  161.91 
   4  -8   2 1688.78   78.37 
  -4   8  -2 1987.94  108.99 
  -4  -8  -2 1809.47  103.26 
  -4   8  -2 1753.11   75.78 
   0  -3  10 4090.74  168.56 
   0   3  10 3954.22  164.07 
   0  -3  10 4154.86  163.78 
   0   3  10 3968.64  207.45 
  -4   2  -5 1201.96   69.07 
   5   0  -1 4133.84  215.96 
  -5   0   1 3971.40  162.24 
   4   2   5 1331.29  190.39 
   4  -2   5 1273.31   76.73 
  -5   0   1 3951.48  145.85 
   4   2   5 1083.81   44.02 
   4   2   5 1189.96   37.10 
  -4  -2  -5 1117.10   60.68 
  -2  13  -3  322.00   85.69 
   2  13   3  359.66  140.83 
  -2  13  -3  291.28   77.99 
  -2 -13  -3  276.19  114.12 
   2 -13   3  273.75  127.58 
  -4  -8   4 1265.90  118.93 
  -4   8   4 1203.74   74.77 
  -4   8   4 1170.40   76.88 
  -4   7  -3  958.35   74.52 
   4  -7   3  950.90   62.04 
   0 -15   2   73.67   31.24 
   4   7   3  915.06   53.56 
  -2  14   1  364.30   96.77 
  -2 -14   1  347.05  138.03 
   0  15  -2   66.82   36.75 
   0  15   2   49.76   36.55 
   0  15   2   42.22   32.28 
   4   7   3  919.38   72.81 
   2 -14  -1  333.14  122.13 
  -2 -14   0 3714.01  171.33 
  -2  14   1  282.33   96.32 
   0 -15  -2   60.66   30.61 
   0  15  -2   41.66   23.19 
   2  14   0 3649.27  117.52 
   2 -14   0 3790.54  146.07 
  -2  14   0 3808.37  150.52 
  -2  14   0 3619.83  147.69 
   2 -13  -4 2540.25  104.20 
  -2 -13   4 2627.98  132.06 
  -2  13   4 2670.12  123.16 
  -2  13   4 2629.84  130.34 
  -3   4  -7 2041.13  104.23 
   3   4   7 1986.65  123.58 
  -3  -4  -7 1961.01   96.59 
   3  -4   7 2071.46  114.81 
   3   4   7 2085.34   83.39 
  -3 -10  -4   23.60   46.30 
   3 -10   4   23.66   31.06 
  -3  10  -4   21.27   15.50 
  -3  10  -4   23.55   12.73 
   3  10   4   22.71   24.14 
  -3  10  -4   45.14   31.93 
   5  -1  -1 1876.08   82.30 
  -1 -15   0 3795.42  173.19 
   5   1  -1 1956.86  113.86 
   1 -15   0 3832.74  158.30 
  -5   1   1 2012.16   92.23 
   5  -1  -1 2119.75   91.70 
  -5  -1   1 1948.41   97.68 
  -5   1   1 1981.54   99.42 
   1  15   0 3881.86  149.23 
  -1  15   0 3860.44  178.88 
   1  15   0 3581.31  167.98 
  -1  15   0 3926.52  147.98 
  -5  -1   1 2031.68   96.69 
  -4  -7   5 1337.56  105.30 
  -4   7   5 1407.14   91.26 
  -4  -7   5 1490.75   90.16 
  -4   7   5 1381.09   99.76 
  -5   0   2    5.29   15.51 
  -4  -2   7 1281.90  157.05 
  -3 -12  -1  487.59  209.98 
  -3  -7  -6   10.55    8.28 
   3  -7   6   31.68   30.29 
  -3  12  -1  381.85   77.24 
   3   7   6   39.87   23.94 
  -4   2   7 1247.79   75.69 
  -4   2   7 1204.91   46.90 
  -3   7  -6   22.54   21.97 
   4  -2  -7 1087.34   33.70 
  -3  12  -1  407.65  133.05 
   5   0  -2   -1.07   10.25 
   3   7   6   15.49   29.93 
  -5   0   2   12.58   28.96 
   3 -12   1  381.49   65.54 
   5   0  -2   12.58   23.96 
  -4  -2   7 1339.66   70.72 
   2   6   8 2418.25  131.44 
   2  -6   8 2301.88  159.16 
   2   6   8 2468.61  111.90 
  -2   6  -8 2252.92   78.87 
   1 -15  -1 1334.22   84.31 
  -1  15   1 1235.98   76.77 
  -1  15   1 1335.76   75.42 
  -1 -15   1 1255.67   86.83 
   1  15  -1 1281.70   88.56 
   1  15  -1 1312.11   83.25 
   5  -1  -2  375.03   52.68 
  -5  -1   2  451.23   81.49 
  -5   1   2  427.17  137.16 
   5   1  -2  397.61   94.44 
   5  -1  -2  292.15   33.58 
  -5   1   2  404.51  170.03 
  -2  -6   9   47.58   33.36 
  -2   6   9   24.37   36.55 
  -2  -6   9   43.16   36.29 
  -2   6   9   32.09   20.11 
  -3   8   7  786.01   72.39 
  -3   8   7  734.82   29.56 
  -3   8   7  814.37   38.34 
  -3  -8   7  773.95   76.52 
  -3  -8   7  835.10   93.92 
   3 -11   3 2197.91   99.91 
  -3  11  -3 1748.35  104.61 
  -3  11  -3 2172.63   86.01 
  -3 -11  -3 2208.12  130.82 
   3  11   3 2189.43  105.98 
  -5   0   0   -0.31   18.48 
   5   0   0   27.13   21.04 
  -5   0   0    2.50   16.86 
  -1  14   4 1532.19   84.81 
  -1 -14   4 1431.01  107.73 
   1 -14  -4 1463.18   90.39 
  -1  14   4 1416.30   86.41 
   1  -6   9 4171.66  148.62 
   1   6   9 4104.82  217.87 
   1  -6   9 4115.28  178.82 
   1   6   9 4509.81  166.62 
  -3   0   9  551.03   98.27 
  -3   0   9  741.05  241.08 
   5  -2  -1  700.87   39.90 
  -5   2   1  700.73   60.42 
  -5  -2   1  630.91   54.79 
   5   2  -1  605.32   44.95 
  -5   2   1  650.88   49.54 
   5  -2  -1  605.46   57.65 
  -1  15  -1 1128.23   68.64 
  -1  15  -1  992.73   92.08 
   5  -1   0   45.19   23.52 
   1 -15   1 1051.95  122.87 
  -5   1   0   41.06   20.15 
  -1 -15  -1 1006.14   73.30 
   1  15   1 1002.17   47.64 
   5   1   0   49.64   22.07 
   1  15   1 1006.84   77.17 
  -5  -1   0   23.36   31.31 
  -5   1   0   44.82   24.44 
   2  14   1  862.50  108.21 
   2  14   1  793.31   35.70 
  -2  14  -1  881.57   75.74 
  -3   1   9 3590.51  170.03 
   2 -14   1  820.85   88.66 
  -2  14  -1  730.89   53.98 
  -3  -1   9 3745.33  191.60 
  -3  -1   9 3638.27  138.29 
  -3   1   9 3714.57  162.80 
  -2 -14  -1  812.56   70.42 
   4   3   5  258.14   45.60 
  -3  -6   8  605.33  230.00 
  -3   6   8  668.06  150.25 
  -2  14   2 2239.50  109.76 
  -4  -3  -5  318.57   62.69 
  -2 -14   2 2399.80  121.18 
  -3   6   8  501.25   28.24 
  -4   3  -5  510.42  160.83 
   2 -14  -2 2362.22  106.05 
  -2  14   2 2320.93  110.20 
   4   3   5  494.12  138.10 
  -3  -6   8  532.30   72.61 
   4  -3   5  381.80  141.07 
  -3   6   8  411.14   49.61 
   4   3   5  343.28   39.19 
   3  -9   5  369.48  102.80 
  -3   9  -5  293.53   20.04 
  -3   9  -5  237.35   16.72 
  -1   4  10 3032.93  126.25 
  -1   4  10 3273.44  149.60 
   3   9   5  370.62   95.91 
  -5  -2   2  170.35   61.91 
  -3   9  -5  433.38  141.26 
  -5   2   2  197.97   71.32 
  -5   2   2  203.46   75.62 
  -1  -4  10 3220.24  144.52 
   5   2  -2  134.31   50.43 
  -1  -4  10 3145.17  139.25 
   3   9   5  364.26  179.72 
   5  -2  -2  149.75   47.06 
   5  -2  -2  104.26   48.52 
   4  -9   1  963.32   45.51 
  -4   9  -1  837.11   45.26 
   4  -9   1  750.46   45.63 
  -4   9  -1  940.00   58.89 
  -4   9  -1  957.43   76.05 
   4   9   1  967.64   28.54 
  -4  -9  -1  946.88   85.16 
   2   0   9    6.64   14.03 
   3 -12  -3 1507.93   64.20 
  -3 -12   3 1417.70  166.19 
  -3  12   3 1328.20   60.00 
  -3  12   3 1607.23  104.09 
  -4   9   3 1880.12  101.23 
  -3  12   3 1600.94   84.98 
  -4  -9   3 1676.19   91.56 
  -4   9   3 1898.35   90.09 
  -4   3   7   11.61   10.45 
  -4  -3   7   13.64   33.40 
   4  -3  -7   10.53    6.18 
  -4  -3   7   34.00   53.47 
   1 -13   5 1715.06   99.34 
   1  13   5 1549.89   93.51 
  -1 -13  -5 1495.59  111.19 
   2  -1   9  477.08  130.62 
   0   4  1013847.95  228.91 
   0  -4  1012976.37  241.58 
   2   1   9  465.64  159.80 
  -2   0  10 1410.24   69.95 
  -2  -1  -9  282.78  105.31 
   2  -1   9  430.41   41.40 
  -2   1  -9  365.50   91.55 
   2   1   9  426.92   56.55 
  -2   0  10 1421.34   90.09 
   0  -4  1012456.86  245.05 
   0   4  1012732.06  262.88 
   5   0  -3  215.37   84.87 
   5   0  -3  138.67   65.98 
  -5   0   3  222.46   86.93 
   5   2   0   -6.26   27.66 
   5  -2   0    0.72   13.65 
   5  -2   0    9.15    8.46 
  -5   2   0   10.92   14.69 
  -5   2   0   11.88   41.49 
   5  -2   0    6.22    4.92 
  -5  -2   0    4.87   12.55 
  -1 -12  -6   17.71    8.74 
   1  12   6   44.52   55.98 
   1  12   6   30.64   48.58 
   1 -12   6   11.79   26.44 
   4   6   4 4741.70  114.94 
   4  -6   4 4736.53  125.31 
   4   6   4 4568.21  301.94 
  -4  -6  -4 4639.80   82.24 
  -4   6  -4 4705.14  144.41 
  -1  15   2 3025.15  113.44 
  -1  15   2 3256.79  110.33 
  -2   1  10   24.77   30.52 
   3  -2  -9    4.13    8.02 
  -1 -15   2 2972.97  124.41 
  -3  -2   9   43.85   33.00 
   1 -15  -2 3112.32  129.68 
   1  15  -2 3035.33   94.05 
  -2  -1  10    8.80   21.50 
  -3  -2   9   17.19   42.63 
  -2  -1  10   21.04   30.53 
  -3   2   9   13.27   17.29 
  -3   2   9   31.26   41.79 
  -2   1  10   24.25   29.17 
   5  -1  -3  275.14   60.96 
  -5  -1   3  369.98  142.52 
   5   1  -3  264.74   25.01 
   5  -1  -3  236.71   62.51 
  -5   1   3  342.27  122.49 
  -4  -6   6 3839.21  123.31 
  -4   6   6 4191.95  140.78 
  -4  -6   6 3916.78  143.13 
   5  -3  -1 1903.92   56.57 
  -5   3   1 2067.66   80.97 
   5  -3  -1 2130.34   63.54 
   5   3  -1 2181.44   87.12 
  -5   3   1 2127.61  102.19 
   1   9   8   89.48   40.36 
  -1  -9  -8   48.70   28.99 
   1   9   8   85.32   28.08 
   1  -9   8  100.05   43.48 
   3  -5   7  302.90   95.28 
  -3   5  -7  296.09  113.52 
  -3  -5  -7  193.95   69.52 
   3   5   7  235.53   79.23 
   3   5   7  288.81   83.02 
   2   2   9  113.27   66.90 
   2   2   9  140.82   75.84 
   2  -2   9  158.32   57.83 
   2  -2   9  109.99   59.89 
  -2   2  -9   88.75   29.28 
   0  10   8 3921.23  129.31 
   0  10   8 3717.49  130.45 
   0 -10   8 3134.41  153.24 
  -5  -3   2   21.76   29.64 
  -5  -3   2   14.77   24.71 
  -5   3   2   13.63   20.60 
   5  -3  -2   14.91   10.01 
  -5   3   2   27.69   26.56 
  -2  -9  -7  565.64   25.59 
  -2   9  -7  537.38   32.34 
   2  -9   7  602.22   65.06 
   2   9   7  703.13   80.99 
   2   9   7  614.25   81.21 
  -2   2  10 4196.80  118.47 
  -2   2  10 4320.50  147.77 
  -1  10   8 2690.94  117.70 
  -1  10   8 2330.05  112.05 
  -1 -10   8 2599.61  118.36 
  -2  -2  10 4286.90  147.82 
  -2  -2  10 4122.74  127.78 
   5  -2  -3  743.37   42.14 
  -5  -2   3  727.09   68.15 
   5  -2  -3  719.51   28.12 
   5   0   1   93.44   33.39 
  -5   0  -1  113.02   44.65 
  -5   2   3  782.30  123.50 
  -5  -2   3  781.27   49.67 
  -5   2   3  831.94   69.48 
   5   0   1   45.65   31.25 
  -3  12  -2 6187.35  139.72 
  -3 -12  -2 7176.34  206.55 
   1   0  10   24.77   34.90 
   3  12   2 7330.77  183.64 
   1   0  10   18.40   26.08 
   3 -12   2 7171.54  187.76 
  -3  12  -2 7442.76  200.37 
  -2  -9   8   70.16   46.87 
  -2   9   8   93.06   47.05 
  -2  -9   8  115.47   67.92 
  -2   9   8   73.97   35.80 
  -1  -8   9 1226.65   78.39 
   0 -15  -3  147.85   85.96 
   0  15  -3  161.35   78.46 
  -1  -8   9 1165.62   85.22 
   0  15  -3  197.59   44.59 
   0  15   3  159.57   59.82 
   0  15   3  167.04   56.78 
  -1   8   9 1347.72   83.66 
   0 -15   3  183.62   70.50 
  -1   8   9 1211.75   72.36 
   5   1   1 1072.39   66.85 
   5   1   1  857.81   43.35 
  -4  -4  -5 3129.04   82.62 
   4   4   5 2952.31   80.52 
  -5   1  -1 1121.00   80.96 
   5  -1   1  940.58   40.62 
  -5  -1  -1  996.90  101.40 
   4   4   5 3195.05  125.62 
   4  -4   5 3343.44  110.45 
   4   4   5 3253.80   79.35 
  -4   4  -5 3338.52  117.96 
   5  -1   1 1090.04   58.63 
  -1  15  -2 2862.67  113.90 
  -1  15  -2 2833.82  103.73 
   0  -8   9 1125.15   68.51 
   0  -8   9 1306.04   87.88 
   1  15   2 2929.84  123.69 
   0   8   9 1258.59   79.26 
  -1 -15  -2 2832.38  119.46 
   1  15   2 2900.62   80.92 
   1 -15   2 3054.34  131.15 
   0   8   9 1133.11   73.84 
   5  -3   0   64.20   50.20 
  -5   3   0  180.93   63.73 
  -3  11   5   53.80   24.06 
  -5   3   0  183.23   65.73 
  -3  11   5   34.44   19.18 
   1 -14   4 9061.17  209.13 
   1   1  10  164.83   86.02 
  -1  14  -4 8284.85  194.75 
   1  14   4 9042.66  233.37 
  -1  14  -4 8953.62  223.18 
   1   1  10  194.44   74.16 
  -3 -11   5   91.17   49.78 
  -3  11   5   89.89   46.40 
   5  -3   0  104.58   43.42 
   1  -1  10  189.72  102.97 
   1  -1  10  199.93   93.64 
  -1 -14  -4 8865.59  215.73 
   5  -3   0  161.56   63.60 
  -3  11   5   50.51   44.55 
   5   3   0  111.45   44.51 
  -3  10   6  899.87   28.41 
  -3  10   6  911.87   28.86 
  -3 -10   6  942.06   69.32 
  -3  10   6  901.07   65.16 
  -3  -3   9 3349.41  138.35 
  -3   3   9 2862.28  119.20 
  -3  -3   9 3199.63  124.42 
   3  -3  -9 2776.75   81.25 
  -3   3   9 3295.06   84.95 
  -3  10   6  915.50  100.16 
  -4  -4   7   80.73   50.73 
  -4  -4   7   91.63   34.58 
  -4   4   7   91.19   64.68 
  -2 -14  -2 1345.80  102.67 
   2  14   2 1247.30   30.08 
  -2  14  -2 1210.39   73.65 
   2 -14   2 1260.17   87.60 
   2  14   2 1357.09  114.97 
  -2  14  -2 1295.40   75.23 
  -2  14   3 1720.81   85.26 
  -2  14   3 1646.53   89.37 
  -2 -14   3 1655.41   96.51 
   2 -14  -3 1727.01   75.63 
  -1   5  10   18.80   28.96 
  -1  -5  10   30.53   15.45 
  -1   5  10   51.79   36.73 
  -1  -5  10   13.73   18.83 
   1  11   7  893.11   68.25 
  -2   7  -8    6.17    7.17 
   2   7   8   11.53   24.40 
   2  -7   8    7.60   21.81 
  -1 -11  -7  761.29   35.58 
   1 -11   7  894.96   67.64 
   1  11   7  927.22  111.48 
   2   7   8   61.61   37.04 
   2  -3   9 1811.44   96.47 
   2   3   9 1694.79  109.35 
   2   3   9 1837.71  118.10 
  -2   3  -9 1552.79   46.14 
   2  -3   9 1673.08   63.42 
   5   2   1  444.72  100.29 
  -5  -2  -1  366.48   40.11 
   5  -2   1  508.23  154.01 
  -5   2  -1  425.21   61.79 
  -5   2  -1  499.48  149.64 
   5  -2   1  321.67   42.93 
   1   2  10 2587.37   96.46 
   1  -2  10 2482.12   95.34 
  -2  -7   9 3085.46  117.17 
  -2   7   9 2656.37   86.67 
  -2  -7   9 3264.35  131.33 
   1  -2  10 2520.90  109.00 
  -2   7   9 3177.12  123.88 
   1   2  10 2544.39  111.61 
   2 -12   5  744.89   60.10 
   4   8   3  413.74  165.89 
  -2  12  -5  727.46  230.94 
   2  12   5  752.64   58.15 
  -2  12  -5  754.91  143.41 
  -4   8  -3  549.92  141.83 
  -2 -12  -5  757.96  178.36 
   4  -8   3  396.55   93.17 
   4   8   3  507.25  155.91 
  -4   8  -3  405.41   25.70 
  -2   3  10   47.30   22.08 
  -2   3  10   59.09   22.41 
  -2  -3  10   73.78   30.93 
  -2  -3  10  110.34   43.96 
   0  -5  10 2481.18  194.46 
   0   5  10 2360.67  103.01 
  -4  10   1 5499.44   95.28 
   0   5  10 2566.42  113.90 
  -4  10   1 4701.73  156.46 
  -4 -10   1 5902.65  180.51 
   4  10  -1 5213.98  102.04 
   4 -10  -1 7590.91  119.02 
   0  -5  10 2457.44  104.96 
  -4  10   1 5897.41  147.73 
  -5   3   3   20.73   14.37 
  -5   4   1   49.76   40.57 
   5  -4  -1   34.06   21.22 
  -5  -3   3   18.29   16.87 
  -5  -4   1   25.47   22.61 
  -2  12   6  377.73   78.39 
   5  -3  -3    9.70    4.91 
  -5   3   3   20.37   27.49 
  -2  12   6  366.56   56.31 
  -2  12   6  344.04   49.82 
   5  -4  -1   27.67   15.88 
  -2 -12   6  414.26  167.52 
  -5  -3   3   36.13   24.81 
   5  -3  -3    4.49    6.51 
  -5   4   1   55.09   27.56 
  -4  -8   5   22.08   34.09 
  -4   8   5   28.41   32.72 
  -4   8   5   26.34   30.47 
  -3   8  -6   -5.76   30.85 
   0  13   610080.43  236.00 
   3  -8   6   20.68   31.48 
   0  13   6 9141.20  222.20 
   3   8   6   51.48   29.43 
   3   8   6   21.48   28.07 
   0 -13   610195.32  232.27 
   1   7   9  598.42  106.59 
   1  -7   9  647.40  206.08 
   1  -7   9  584.24  127.81 
   1   7   9  519.07   69.61 
  -4   9  -2 5233.92  106.04 
  -4   9  -2 5383.71  163.29 
   4  -9   2 5758.74  130.65 
  -4  -9  -2 5726.14  176.68 
  -5   0   4   12.66   24.31 
   5  -4  -2 4471.26   72.81 
  -5   4   2 4323.91  125.90 
   5  -4  -2 4079.14   69.95 
  -5  -4   2 4114.89  127.36 
  -5   4   2 4264.55  138.13 
  -4  -9   4 6087.10  168.16 
  -4   9   4 5933.05  164.40 
  -4   9   4 5858.42  204.99 
   1 -15  -3   16.06   25.96 
  -1  15   3   35.33   21.53 
  -1  15   3   17.97   11.21 
  -1 -15   3   46.39   40.36 
  -3  -7   8 1057.71  212.03 
  -3   7   8 1113.89   45.20 
   4 -10   0 2805.39  101.81 
  -4  10   0 2625.73  120.92 
  -4  10   0 2524.06   77.46 
  -4 -10   0 2935.84  128.51 
  -3   7   8  969.60   38.34 
  -2 -13  -4   57.05   28.81 
  -3   7   8 1139.70   77.34 
  -4  10   0 2635.90   95.18 
   2 -13   4   89.90   35.73 
   4  10   0 2823.97   64.97 
  -3  -7   8 1238.76   79.86 
  -2  13  -4   32.32   29.91 
   2  13   4   58.66   34.33 
  -2  13  -4   67.80   29.44 
  -5  -1   4   18.23   18.08 
   5  -1  -4   15.12   12.07 
   5   1  -4    9.37   14.34 
  -5   1   4   36.64   33.60 
   5  -1  -4   12.28   11.48 
  -5  -1   4   28.45   28.45 
  -4 -10   2  745.08   72.45 
  -4  10   2  812.98   71.67 
  -4  10   2  748.67   23.31 
   4 -10  -2  758.93   23.56 
  -4  10   2  864.32   74.45 
  -3  12   4 2469.24   58.85 
   2 -13  -5  287.11   59.22 
  -2  13   5  425.25  156.74 
  -3  12   4 2625.24  110.37 
  -2 -13   5  471.01  145.81 
  -3  12   4 2564.93  107.94 
  -3 -12   4 2724.79  117.26 
  -2  13   5  350.09   70.05 
   3 -12  -4 2479.77   85.75 
   0  14   5 6546.50  134.49 
   0  14   5 7396.31  184.03 
   0 -14  -5 7539.90  238.49 
   0 -14   5 7824.59  206.11 
  -1  13   6  339.87  148.70 
  -1 -13   6  221.80  110.38 
  -1  13   6  249.44  138.12 
   2  11   6  617.67  202.39 
   5  -4   0  125.66   58.57 
   5  -4   0   87.67   44.96 
   5  -4   0   87.94   47.97 
  -5   4   0  183.12   69.96 
  -2  11  -6  740.90  110.60 
   2 -11   6  611.39   68.29 
  -5   4   0  199.05   73.00 
  -2  11  -6  698.55  219.69 
  -2  11  -6  382.87  109.72 
   5   4   0  143.51   59.38 
   2  11   6  737.91   87.23 
  -3  -9   7 1574.24  106.73 
  -3   9   7 1434.95   39.07 
  -3   9   7 1520.34   39.12 
  -3   9   7 1451.28   97.78 
  -3  -9   7 1444.73  151.74 
  -3  13   1  226.30   86.24 
  -3  13   1  198.97   63.57 
  -3  13   1   92.43   47.13 
   3 -13  -1  192.13   85.38 
  -3 -13   1  299.53  126.32 
  -3   4   9  105.53   49.13 
   3  -4  -9   68.10   38.63 
  -3  -4   9  136.22   52.62 
  -3   4   9  117.78   53.76 
  -3  -4   9  150.50   53.60 
   5   3   1 6591.15  165.34 
  -2  11   7 2123.48   78.74 
  -5   3  -1 6299.16  165.16 
   5  -3   1 6444.43  139.84 
  -2 -11   7 2224.55  129.81 
  -5   3  -1 6369.93  135.01 
   5  -3   1 5621.97  110.59 
  -5  -3  -1 6175.42  143.64 
  -2  11   7 2197.68  105.55 
   1  -3  10  233.44   87.54 
   1  -3  10  268.11  120.04 
   1   3  10  257.34  110.48 
   1   3  10  284.43  112.74 
   4   7   4  139.97  116.26 
   0  12   7 4451.82  145.76 
   4   7   4  164.16   61.26 
   0  12   7 3769.59  130.39 
   0 -12   7 4313.71  152.17 
   4  -7   4  122.04   48.99 
  -4   7  -4  192.32   77.25 
   3   6   7  884.50  100.16 
   3  -6   7  945.42   68.01 
  -3 -13   0   95.50   49.11 
  -3  13   0   31.78   25.14 
  -3   6  -7  959.14   67.83 
  -3  13   0   14.97   27.72 
   3 -13   0   35.51   21.52 
  -3  -6  -7  942.24   39.82 
   3   6   7  918.88   74.33 
   4   5   5  632.14  169.13 
   4  -5   5  662.25  141.61 
   4   5   5  555.73   36.85 
  -4  -5  -5  522.97   51.05 
  -4   5  -5  675.64  185.51 
   5  -2  -4  208.29   39.24 
  -5  -2   4  296.75  119.53 
  -5  -2   4  288.58   92.96 
  -5   2   4  339.41  127.94 
   5  -2  -4  243.11   17.70 
  -4  -7   6 3966.66  133.72 
  -4   7   6 3785.40  137.51 
  -4  -7   6 3869.94  148.15 
   3   0   8    2.69    6.74 
   3   0   8   18.57   23.88 
   3  11   4 6321.48  163.87 
  -3  11  -4 5835.39  109.41 
   2  -4   9 1368.48   86.15 
  -3 -11  -4 6529.66  195.04 
   2   4   9 1175.81   60.59 
   2  -4   9 1187.15   49.61 
  -3  11  -4 7089.78  188.79 
   2   4   9 1342.71   97.88 
   3 -11   4 6641.30  163.89 
  -2   4  -9 1120.59   39.57 
  -4  -5   7 1458.60  102.00 
  -4   5   7 1494.18   98.23 
  -1 -12   7   81.87   44.38 
  -4  -5   7 1514.55  101.38 
  -1  12   7   74.20   49.71 
  -1  12   7   65.92   39.22 
   0  16   0  369.67   80.94 
   0 -16   0  387.58  149.17 
   0  16   0  391.82  156.45 
  -1  14   5  156.84   61.58 
  -1  14   5  162.88   66.32 
   3   1   8   89.72   36.84 
   3   1   8  100.30   46.13 
   1 -14  -5  119.86   44.62 
   3  -1   8   70.81   30.39 
   3  -1   8  148.96   53.48 
  -1 -14   5  126.69   52.43 
  -2   4  10  712.92   61.22 
  -2   4  10  594.90   97.06 
  -2  -4  10  626.19  142.66 
  -2  -4  10  681.61   61.28 
  -5  -4   3 3677.94  132.23 
  -5  -4   3 3574.71  178.46 
  -5   4   3 3749.29  133.39 
  -5   4   3 3582.17  124.84 
  -5   0  -2   18.30   27.24 
  -3 -13   2 2194.00  114.06 
  -3  13   2 2327.72  111.38 
   5   0   2    0.75    8.30 
   3 -13  -2 2332.77   74.79 
   5   0   2    9.27   23.34 
  -3  13   2 2054.55   60.40 
  -3  13   2 2274.97  205.73 
  -5   1  -2 1305.43   87.91 
  -5  -1  -2 1197.34  126.89 
   5   1   2 1311.06   72.83 
   5  -1   2 1080.53   43.40 
   5  -1   2 1333.14  140.96 
   5   1   2 1044.60   44.98 
   3  10   5 2705.38  106.49 
  -3  10  -5 2200.46   84.21 
  -3  10  -5 2677.97  119.98 
  -3  10  -5 2670.04   65.50 
   3  10   5 2652.10  126.97 
   3 -10   5 2786.61  104.58 
  -1  15  -3  306.60  101.33 
  -1  15  -3  363.12  140.86 
   1  15   3  301.41   95.13 
  -1 -15  -3  305.64  130.51 
   1  15   3  241.22   75.28 
   1 -15   3  344.26  124.66 
  -4  10  -1  580.85   86.02 
  -4  10  -1  645.87  226.25 
   4 -10   1  576.79   39.75 
   4  10   1  505.90   17.84 
  -4 -10  -1  586.72   77.40 
   0  16   1 1301.88   64.81 
   0  16  -1 1331.45   68.14 
   0  16  -1 1362.35   82.22 
   0  16   1 1183.75   78.53 
   0 -16  -1 1347.38   93.28 
   0 -16   1 1242.57   77.65 
  -4  10   3 5262.00  167.09 
   5  -5  -1 5022.76   99.40 
  -4 -10   3 5454.43  169.21 
  -5  -5   1 4911.50  143.95 
  -5   5   1 4903.87  154.48 
   5  -5  -1 4494.63   95.34 
  -5   5   1 5032.35  122.89 
  -4  10   3 5228.29  226.00 
   4   0   6 2275.18  134.08 
  -4   0  -6 2124.19   94.16 
  -1   6  10 1668.36  162.07 
  -1  -6  10 1710.94  187.59 
  -1  -6  10 1707.09  111.66 
  -1   6  10 1572.90   78.23 
   3   2   8 1482.60  111.72 
   3   2   8 1379.27   70.41 
   3  -2   8 1441.71   86.77 
   3  12   3  626.63  169.31 
  -3  12  -3  564.35  181.42 
   3 -12   3  531.41  161.24 
  -3  12  -3  431.46  119.10 
  -3 -12  -3  427.71  219.92 
   5  -5  -2 2589.00   45.05 
  -4   1  -6  773.82   98.17 
  -5  -5   2 2460.78  123.08 
  -5  -3   4   94.50   41.04 
  -5   5   2 2448.82  143.98 
   5  -5  -2 2404.77   42.51 
   4   1   6  774.40   21.48 
   4   1   6  916.58  181.59 
   4  -1   6  888.20   66.73 
  -4  -1  -6  846.70  109.00 
  -5   5   2 2502.52  104.67 
  -5  -3   4   93.89   60.88 
  -5   3   4  101.49   41.50 
  -3 -13  -1  141.29   87.99 
   3 -13   1   93.41   40.89 
  -3  13  -1   87.82   47.61 
  -3  13  -1   76.32   45.82 
  -4   0   8 2955.84  135.09 
  -4   0   8 3253.42   94.65 
   4   0  -8 2665.13   69.17 
   0   6  10 5311.64  169.78 
   0   6  10 5084.82  150.96 
   0  -6  10 4887.89  158.19 
   0  -6  10 5125.31  140.23 
   5   4   112579.21  294.31 
  -5   4  -111928.54  175.29 
  -5   4  -112442.56  246.83 
   5  -4   112418.36  214.42 
   5  -4   110896.51  198.08 
   1   4  10  322.90  117.39 
   5   2   2   71.56   37.49 
   5   2   2   26.12   20.25 
   2 -14   3 6508.20  165.89 
  -5   2  -2   47.67   26.08 
  -2 -14  -3 6093.59  188.47 
   5  -2   2   25.52   22.47 
  -2  14  -3 6220.60  157.49 
   5  -2   2   81.53   40.59 
  -5  -2  -2   98.01   53.39 
   2  14   3 6199.73  174.80 
  -2  14  -3 5955.73  172.48 
   1   4  10  331.70   42.04 
   0 -15   4 1277.70   88.37 
   0  15   4 1188.63   78.42 
   1  -4  10  336.83  124.33 
   0  15   4 1146.49   59.59 
   0 -15  -4 1328.31   97.96 
   1  -4  10  306.82  114.24 
  -4   1   8 4827.03  161.89 
  -2  14   4  122.60   56.07 
  -2 -14   4  159.25   87.59 
  -2  14   4  161.80   83.49 
   2 -14  -4  123.14   85.44 
  -4  -1   8 4786.35  124.20 
  -4   1   8 4885.87  120.90 
  -4  -1   8 5063.72  176.44 
   4  -1  -8 4222.38   86.06 
  -5   5   0 1771.93  138.94 
   5  -5   0 1650.59   56.57 
   5  -5   0 1341.26   57.13 
   5   5   0 1604.71  100.38 
  -5   5   0 1593.23   62.21 
  -1 -10  -8 1159.92   53.57 
   1 -10   8 1485.05  100.28 
   1  10   8 1315.83   98.09 
   1  10   8 1471.70   83.36 
  -1   9   9 1803.27  104.51 
  -3  -5   9 3926.09  144.75 
  -1   9   9 1592.66   76.93 
  -1  -9   9 1582.62   86.86 
  -3   5   9 3768.42  146.15 
  -3  -5   9 3829.14  129.05 
   3  -5  -9 3465.64   86.02 
  -3   5   9 3841.97   87.54 
  -4  -2  -6 3923.96  107.87 
   4   2   6 3991.60   73.77 
  -4   2  -6 3808.28  125.20 
   4   2   6 3609.84   71.93 
   4  -2   6 3841.64  144.10 
   4   2   6 4088.11  246.14 
   0  -9   9 1446.97   91.95 
   0   9   9 1333.76   91.21 
   0   9   9 1376.82   93.20 
  -2  15   112082.59  299.69 
  -2 -15   112906.24  247.74 
   2 -15   0  294.46  144.34 
  -2  15   0  341.06   94.35 
   2  15   0  167.90   75.00 
   2  15  -112367.02  188.97 
  -2  15   0  393.13  121.00 
   2  15   0  255.53   98.83 
   2 -15  -112260.87  236.51 
  -2 -15   0  317.68   97.94 
  -2  15   112880.81  242.26 
   2   8   8  945.27   59.75 
  -2  -8  -8  629.86   28.49 
  -2   8  -8  810.15   37.56 
   2   8   8  820.34   76.79 
   2  -8   8 1061.78  209.87 
  -2 -10  -7    4.66    3.55 
  -2  10  -7    5.57    6.46 
   2  10   7   20.09   38.02 
   2 -10   7   41.95   23.60 
  -2   8   9 1212.91  143.59 
  -2  -8   9 1163.04  108.84 
  -2   8   9 1130.76   57.49 
  -2  -8   9 1125.89   74.79 
  -4  -2   8 5769.17  196.89 
  -2  10   8    3.01   17.84 
  -4   2   8 5686.52  268.98 
  -2 -10   8   26.81   46.15 
  -4   2   8 6148.87  109.32 
   4  -2  -8 5142.65  114.04 
  -4  -2   8 6145.73  142.80 
  -2  10   8   28.20   16.34 
   3  -3   8   97.83   32.28 
   3   3   8  143.22   46.05 
   3   3   8  109.87   58.55 
   2   5   9   88.55   69.10 
   2  -5   9   83.22   38.26 
  -2   5  -9   43.93   15.14 
   2   5   9   71.55   38.11 
  -3 -13   3   34.22   26.36 
   3 -13  -3    5.27   11.86 
  -3  13   3   31.46   27.29 
  -3  13   3    0.62    7.96 
   0  11   8   10.04   18.23 
   0 -11   8    9.72   34.98 
   0  11   8   34.15   53.77 
   0  16   2    2.56   20.22 
   0  16  -2   28.60   28.20 
   0 -16  -2   20.33   39.81 
   0  16   2    1.08   32.35 
   0 -16   2   65.01   38.57 
   0  16  -2   40.43   25.05 
   1   8   9 6834.21  174.62 
   1  -8   9 6750.92  181.11 
   1   8   9 6560.33  187.98 
  -1  11   8  217.52  101.07 
  -2  -5  10   69.25   32.07 
  -2   5  10   55.72   25.37 
  -1  11   8  236.79   65.67 
  -1 -11   8  240.64   97.28 
  -2  -5  10   70.57   34.07 
  -2   5  10   53.68   33.76 
  -5   0   5 5543.49  179.29 
  -5   0   5 4833.78   96.00 
  -5   5   3 2420.65  100.86 
  -5  -5   3 2552.11  113.89 
  -1  16   0 1666.48   90.58 
   1 -16   0 1927.61   96.40 
  -4   6  -5  213.24   68.33 
   4   6   5  155.88   55.49 
   4   6   5  136.07   34.83 
  -5   5   3 2403.61  131.25 
   1  16   0 1785.01  173.05 
  -1 -16   0 1724.07  127.77 
  -1  16   0 1803.35   85.63 
  -4  -6  -5  130.79   27.06 
  -5  -5   3 2351.49  101.39 
   1  16   0 1729.04   65.57 
   4  -6   5  154.95   76.59 
   5  -3   2   -9.28   22.46 
  -5   3  -2   21.96   31.22 
   5   3   2   -6.11   40.39 
  -5  -3  -2    7.01   16.09 
   5  -3   2    0.81    7.28 
   1  13   6 5218.68  172.24 
  -1 -13  -6 4291.13   75.21 
   1  13   6 5061.19  154.68 
   1 -13   6 5130.20  165.93 
  -1  15   4 1884.62  109.12 
  -1  15   4 1937.10   82.41 
   4   9   3 1530.23   75.38 
  -1 -15   4 2044.69  142.88 
  -4   9  -3 1461.32   41.88 
   1 -15  -4 1951.79   90.26 
   4  -9   3 1657.42  127.49 
   4   9   3 1356.53   86.98 
  -4   9  -3 1394.98   84.26 
  -5   1   5  255.97   81.06 
  -5  -1   5  225.27   81.86 
   5  -1  -5  125.11   34.47 
  -3   8   8   12.01   13.61 
  -3   8   8   36.24   18.06 
  -3   8   8   64.68   32.96 
  -3  -8   8   23.71   33.97 
   5   1  -5  111.13   72.42 
   5  -1  -5  121.12   75.05 
  -5  -1   5  258.98   51.32 
  -3  -8   8   27.81   19.50 
   3   9   6   77.83   27.98 
   3   9   6   32.75   29.11 
  -4  -6   7  211.70   85.29 
   1  16  -1  798.15   48.37 
  -4  -6   7  183.59   90.01 
  -1  16   1  985.05   64.99 
  -5  -4   4  437.01   45.78 
  -1  16   1  902.54   75.00 
  -5  -4   4  499.19  108.47 
  -3   9  -6   18.14   12.83 
  -4   6   7  229.75   97.47 
  -3   9  -6   64.26   27.31 
   1  16  -1  863.45  100.40 
  -4   9   5 1470.03   87.49 
  -5   4   4  463.81   53.08 
  -5   4   4  406.37   83.81 
   1 -16  -1  926.74  103.53 
   3  -9   6   43.50   20.95 
  -4  -9   5 1554.64   98.08 
  -1 -16   1  893.58   79.03 
  -4   9   5 1509.35  136.14 
  -1  14  -5  510.60   86.59 
   1 -14   5  607.07  174.90 
   1  14   5  711.39  198.86 
  -1 -14  -5  640.04  195.98 
   3   7   7   61.84   22.16 
   3   7   7   36.79   26.56 
  -3  11   6 2791.60   60.54 
  -2  15  -1   21.66   20.96 
  -3  11   6 2751.21   58.50 
  -3  -7  -7   43.00   22.50 
   2  15   1   18.37   14.43 
   2  15   1    1.62   24.70 
  -2  15  -1   31.44   26.55 
   3  -7   7  117.97   41.70 
  -3 -11   6 2928.40  126.90 
  -2 -15  -1   51.13   41.58 
  -3   7  -7   89.90   39.85 
   2 -15   1   24.09   32.76 
  -3  11   6 2966.73  111.87 
  -3  11   6 2979.64  127.72 
  -2  15   2   81.32   37.59 
  -2  15   2   87.40   34.94 
   2 -15  -2  111.30   40.08 
  -2 -15   2  115.12   69.55 
  -4  -3  -6 6085.62  130.11 
   4   3   6 5995.19  194.74 
  -4   3  -6 6169.77  160.97 
   4   3   6 5180.50  102.86 
   4   3   6 5884.51  104.86 
   4  -3   6 6184.19  175.27 
  -1  16  -1  773.43   90.58 
   1  16   1  830.54  243.93 
  -1  16  -1  858.59  222.02 
   1 -16   1  822.76  144.90 
   1  16   1  682.56  110.04 
  -1 -16  -1  688.08   71.76 
  -4  -3   8 1345.49   68.98 
  -3  12   5 5919.69   99.40 
  -4  -3   8 1363.04  159.29 
  -4   3   8 1360.30   90.61 
  -1   0  11 1960.63  120.71 
  -3  12   5 6507.93  174.07 
  -4   3   8 1217.13   59.85 
  -3 -12   5 6095.36  182.91 
  -3  12   5 6495.21  172.53 
  -1   0  11 1985.57  111.83 
  -3  12   5 5232.49   87.54 
   4   8   4  980.31   58.25 
   4  -8   4  942.45   61.62 
   4   8   4 1015.65  182.09 
  -4   8  -4 1110.85   81.14 
  -4  10  -2  213.14   79.57 
  -4  10  -2  306.15  118.35 
  -4 -10  -2  240.39   90.13 
   4 -10   2  251.67   88.56 
  -5  -2   5 4539.83  123.32 
  -5  -2   5 4631.67  149.49 
   5  -2  -5 4490.40   64.66 
  -5   2   5 4390.63  140.12 
   5  -6  -1  491.27   27.58 
  -5   6   1  517.22  107.48 
  -5  -6   1  483.60   87.77 
  -5   6   1  577.02  204.31 
  -5   5  -1  222.86   83.79 
   5  -5   1  161.28   74.49 
   5  -5   1   91.51   53.34 
  -5   5  -1  197.37   78.09 
   5   5   1  192.93   95.63 
   3 -13   2   88.35   42.94 
  -3 -13  -2   90.03   55.19 
  -1  -1  11 5862.94  165.48 
   3  13   2   73.98   34.37 
  -3  13  -2  126.68   51.96 
  -3  13  -2  111.47   47.55 
   1   5  10  237.25  121.28 
   1  -5  10  288.33  114.14 
   1   5  10  303.65  115.75 
  -1   1  11 5698.92  154.86 
  -4  10   4 1874.95   91.84 
  -1  -1  11 6210.21  317.82 
   1  -5  10  253.65   92.63 
  -4 -10   4 1860.48   97.39 
  -1   1  11 6154.67  220.44 
  -4  10   4 1898.80  136.43 
  -4  -8   6 3923.82  165.52 
  -4   8   6 4330.65  148.37 
  -4  -8   6 4113.60  172.60 
  -4 -11   1 1342.21   89.54 
   4 -11  -1 1432.84   57.82 
  -4  11   1 1440.48   97.95 
  -4  11   1 1554.02   84.57 
   4  11  -1 1200.46   58.33 
  -5  -6   2 2509.33  108.02 
  -5   6   2 2389.56  114.01 
  -5   6   2 2430.03   93.40 
   3   4   8  453.56   51.40 
   3   4   8  411.00  147.85 
   1 -12   7 4125.55  139.12 
   1  12   7 3846.16  143.30 
   1  12   7 4111.01  139.21 
   3  -4   8  459.48  146.04 
   0   0  11   36.42   52.22 
   0   0  11   22.76   25.17 
  -1   7  10  646.30   65.27 
  -1  -7  10  788.97   78.75 
  -1  -7  10  706.08   68.43 
  -1   7  10  849.79   74.27 
  -3 -10   7   10.47   19.31 
  -3  10   7    7.68    9.19 
  -3  10   7   21.77   34.61 
  -3  10   7   10.58    8.74 
   1  16  -2  867.39   52.42 
  -1  16   2  886.52   58.56 
  -1  16   2  677.88   69.25 
   1 -16  -2  778.03   78.33 
  -1 -16   2  919.74  118.30 
   1  16  -2  826.49   68.80 
   0   1  11  110.51   72.65 
   0  -1  11  113.53   79.98 
   0  -1  11  111.89   36.48 
   0   1  11  124.25   60.78 
  -4  11   0    6.19    9.20 
  -4  11   0   11.57   19.50 
  -4 -11   0   25.00   36.72 
   4 -11   0    6.52   22.06 
  -4  11   0    3.39   30.01 
   5  -4   2   14.41    6.96 
  -4 -11   2  115.44   54.08 
   5  -6   0 5065.80  158.47 
  -4  11   2  110.51   53.78 
  -5  -6   0 4892.54  193.22 
  -4  11   2   94.34   40.78 
  -5  -4  -2   23.24   17.66 
   5  -4   2   11.55   11.86 
   4 -11  -2   67.86   26.48 
  -5   4  -2   47.07   24.84 
   5   4   2   27.92   38.58 
  -5   6   0 5153.27  202.62 
  -5   6   0 5064.82  171.91 
  -4  11   2   44.81   24.75 
  -1  -2  11  204.44   75.50 
  -1   2  11  169.75   66.16 
  -1  -2  11  208.64   74.36 
  -1   2  11  200.65   69.13 
  -3  -6   9  325.35  154.24 
  -3   6   9  396.69  174.87 
   0   7  10  132.05   47.56 
   0  -7  10  171.82   84.38 
  -3   6   9  331.48   27.31 
  -3   6   9  182.45   77.25 
   0  -7  10  142.10   70.35 
   0   7  10  135.34   57.83 
  -3  -6   9  444.46  147.44 
  -5   0  -3 9286.46  303.61 
   5   0   3 9761.79  314.54 
   2 -13   5 3586.47  160.52 
   2  13   5 3433.27  200.04 
  -2  13  -5 3686.10  163.71 
  -2  13  -5 3319.83  123.99 
  -2 -13  -5 3334.31  162.31 
  -5  -3   5 1491.42  107.71 
  -5  -1  -3 5685.75  201.11 
  -5  -3   5 1516.79   79.72 
   5  -1   3 5895.23  252.26 
  -5   3   5 1412.67  112.57 
  -5   1  -3 5513.61  228.66 
   5   1   3 5963.96  222.37 
  -2  13   6 3032.99  131.07 
  -2  13   6 3139.82  145.35 
  -2  13   6 2876.77  113.00 
  -2 -13   6 2875.58  152.92 
   4  -4   6  149.50   52.37 
  -4   4  -6  130.31   51.45 
   4   4   6   90.36   55.00 
   4   4   6   62.07   32.16 
   4   4   6  142.98   52.54 
  -4  -4  -6   86.04   47.39 
   1 -15   4 8881.79  313.85 
  -1 -15  -4 8349.71  294.52 
  -1  15  -4 9048.34  298.25 
   1  15   4 8439.86  295.50 
  -1  15  -4 8461.12  360.98 
   0   2  11 1544.72  158.22 
   0   2  11 1483.68  100.17 
   0  -2  11 1505.73   93.17 
   2   6   9  397.56   60.65 
   0  -2  11 1537.48   99.55 
   2   6   9  465.19   70.40 
   2  -6   9  451.31  150.62 
  -5  -5   4  178.27   87.68 
  -5   5   4  279.57  117.83 
  -5  -5   4  249.83   65.49 
  -5   5   4  283.03  135.38 
   2 -12   6 1797.01  107.06 
   2  12   6 1545.22   97.36 
  -2  12  -6 1998.67  114.10 
   2  12   6 1534.91  103.48 
  -2  12  -6 1707.89   80.02 
  -4   4   813373.63  120.16 
  -4  -4   814481.75  367.48 
  -4   4   814490.24  300.27 
   0  16  -3 1235.09  150.78 
   0 -16  -3 1258.05   93.41 
   0  16  -3 1339.62   79.81 
   0  16   3 1275.61   95.32 
   0 -16   3 1155.62   93.35 
   0  16   3 1378.03   72.37 
  -2  15  -2  361.48   47.10 
   2 -15   2  481.80  152.25 
  -2  15  -2  449.49  172.29 
  -2   6  10 3228.62  139.18 
   2  15   2  439.40   89.15 
  -2 -15  -2  526.92  224.06 
   2  15   2  396.98   19.72 
  -2  -6  10 3303.93  142.66 
  -2   6  10 3543.08  164.75 
  -2  -6  10 3451.55  162.68 
  -2  15   3   84.87   38.35 
  -2 -15   3   71.55   38.64 
  -2  15   3   59.00   32.98 
  -5   6   3   25.03   19.98 
  -2 -12   7 1251.74   98.32 
   2 -15  -3   68.21   45.92 
  -2  12   7 1334.91   71.29 
  -5   6   3   10.53   19.12 
  -2  12   7 1360.05   99.36 
  -5  -6   3   15.54   35.40 
  -3   0  10    8.67   33.20 
  -1  16  -2 2000.89  106.78 
  -1 -16  -2 1763.21  191.84 
   1  16   2 1448.99   92.16 
   1 -16   2 2032.16  173.76 
  -1  16  -2 1866.83  171.13 
   1  16   2 1852.12   99.26 
   0  14   6  279.59   84.24 
   0 -14   6  184.89   75.72 
  -3  13   4   65.31   27.70 
  -3 -13   4   16.11   36.60 
   3 -13  -4   19.01   15.55 
  -3  13   4   22.87   26.55 
  -5   2  -3 5635.38  224.00 
  -5  -2  -3 5904.22  198.97 
   5   2   3 6296.49  231.94 
   5  -2   3 6213.94  217.80 
  -3   1  10 1435.12   97.78 
  -3   1  10 1241.75   68.25 
  -3  -1  10 1231.17   82.49 
  -3  -1  10 1378.88   99.42 
  -1   3  11 1217.82   90.36 
  -1   3  11 1058.54  116.47 
  -1  -3  11 1194.35   86.76 
  -1  -3  11 1096.34  111.73 
   3  12   4 1209.78   82.55 
  -3 -12  -4 1049.07   92.18 
  -3  12  -4  850.69   80.11 
  -3  12  -4 1203.32   68.97 
   3 -12   4 1278.40  110.80 
   2  14   4 1097.84   80.66 
  -2  14  -4 1247.91   87.17 
   2 -14   4  985.25  179.97 
   4   7   5  318.25   91.47 
  -4   7  -5  325.77  109.10 
   4   7   5  241.51  104.99 
  -2 -14  -4 1051.27  129.19 
  -2  14  -4 1147.05   63.47 
   4  -7   5  289.63  128.66 
   3 -11   5  551.72   55.95 
   3  11   5  603.97  187.97 
   3  11   5  643.18  116.29 
  -3  11  -5  694.41  177.10 
  -3  11  -5  512.51   40.30 
  -2 -14   5  907.94   76.50 
  -2  14   5  860.45   81.27 
   0  13   7 2535.27  128.27 
   2 -14  -5  966.14   57.66 
  -2  14   5  948.34   69.34 
   0 -13   7 2792.54  199.94 
   0  13   7 2630.07  133.58 
  -4 -11  -1 1744.99  114.27 
  -4  11  -1 1889.68  117.99 
  -4  11  -1 1560.45   97.23 
   4 -11   1 1825.38   94.64 
  -4  11   313222.92  306.12 
  -1 -14   6 4988.49  205.37 
  -1  14   6 4777.44  189.95 
  -1  14   6 4529.98  179.96 
  -4 -11   313158.03  257.36 
  -4  11   313072.87  408.78 
  -4  -7   7  626.34  239.92 
  -4  -7   7  576.33   52.12 
  -4   7   7  528.37   64.19 
   2   9   8   17.58   26.13 
   2   9   8    5.09   19.72 
   2  -9   8    2.72   27.71 
   3  -5   8  104.52   51.89 
  -3  14   1  643.95   54.16 
  -3  14   1  810.25  228.18 
   3   5   8   94.14   50.20 
  -3 -14   1  707.86  205.36 
  -3  -5  -8   94.98   37.39 
   3 -14  -1  703.73  103.26 
   3   5   8   72.55   46.97 
   0  -3  11 1437.12   86.01 
   0   3  11 1450.78   96.87 
  -5   6  -1  593.23   61.10 
   0   3  11 1489.21   97.31 
  -5   6  -1  588.25  225.02 
   0  -3  11 1573.45  119.01 
   5  -6   1  563.14   87.32 
   5   6   1  663.02  105.47 
  -1  13   7  148.86   70.90 
  -3   2  10  113.78   53.72 
  -1  13   7  114.44   83.87 
  -3   2  10  122.78   55.15 
  -3  -2  10   74.46   38.15 
  -1 -13   7  133.25   51.05 
  -3  -2  10   98.73   55.53 
   1   6  10   25.86   36.54 
   1   6  10   53.06   28.33 
   1  -6  10   24.49   20.70 
  -2   9   9    9.94   17.29 
  -2   9   9   21.47   15.10 
  -2  -9   9   29.90   20.11 
  -2  -9   9   45.81   55.02 
   1  -6  10   38.49   22.68 
   0 -15  -5 1969.80  115.13 
   0  15   5 1995.85  112.28 
   0 -15   5 1987.54  112.25 
   0  15   5 2125.27   94.52 
  -1  10   9 2162.21  122.27 
  -3  14   0 2393.58  116.83 
   3 -14   0 2387.39  101.33 
  -3 -14   0 2482.58  143.36 
  -1 -10   9 1942.00  119.15 
   3  14   0 2181.17   74.11 
  -3  14   0 2419.52  126.79 
  -1  10   9 1957.80   98.75 
  -5  -4   5 7076.22  258.24 
  -5  -4   5 7206.81  243.84 
  -5   4   5 7221.60  251.74 
  -5   5  -2  273.35   88.46 
  -5   5  -2  254.14   19.48 
   5  -5   2  264.36   99.24 
   5   5   2  295.26   93.66 
   0  10   9    0.01   32.05 
   0  10   9   21.92   46.12 
   0 -10   9   52.18   41.47 
   1  -9   9  744.62   66.00 
   1   9   9  873.30   66.59 
   1   9   9  958.05  282.07 
   3   8   7  567.90  137.36 
  -3   8  -7  717.78  261.68 
   3  -8   7  584.63  144.48 
  -3  -8  -7  514.00   16.44 
   3   8   7  616.85  223.99 
  -1  16   3   60.22   33.68 
   5  -7  -1 1688.43   59.79 
  -1 -16   3  101.49   48.57 
   5  -3   3 5119.91  198.52 
  -5   3  -3 5038.74  191.07 
  -5   7   1 1595.18  118.37 
  -5   7   1 1641.24  183.74 
   1 -16  -3   66.07   34.72 
  -1  16   3   62.04   27.48 
  -5  -7   1 1656.85  103.58 
  -5  -3  -3 4974.53  168.98 
   5   3   3 4912.79  189.92 
   1  11   8  175.53  103.53 
   1 -11   8  237.18   97.18 
   1  11   8  122.75   42.13 
  -3   9   8  357.82   42.01 
  -3   9   8  350.64   50.41 
  -3  -9   8  340.28  157.83 
  -3  -9   8  389.89  167.75 
   4   5   6 1597.36   73.60 
  -4  -5  -6 1506.69   64.14 
   3 -14  -2   50.87   24.56 
  -3 -14   2   14.74   28.87 
  -3  14   2   14.50   38.49 
  -3  14   2   17.25   19.89 
  -4   5  -6 1721.63  104.33 
   4   5   6 1567.33  104.42 
   4  -5   6 1627.24  122.83 
  -5   7   2 3936.90  155.16 
  -5  -7   2 3863.89  160.62 
  -5   7   2 3865.66  176.28 
   2   0  10  922.30  154.42 
  -2  11  -7  318.03   54.52 
   2  11   7  324.83  149.61 
   2   0  10 1021.83   51.45 
   2  11   7  364.58  149.93 
   2 -11   7  449.92  122.36 
  -3 -13  -3  726.32   78.07 
  -3  13  -3  749.55   69.06 
   3 -13   3  905.37   87.73 
  -3  13  -3  734.35   48.58 
   3  13   3  838.28   79.21 
  -5   0   6   13.28   33.04 
  -5   0   6   10.12   10.48 
  -1   4  11 1170.98  180.56 
  -1  -4  11  992.43  105.12 
  -2  11   8  542.92   70.89 
   4  10   3  452.59  147.82 
  -4  10  -3  472.38  178.37 
  -1  -4  11 1075.28  111.44 
   4 -10   3  378.46   45.78 
  -2 -11   8  563.97   62.67 
  -4 -10  -3  431.81  166.21 
  -1   4  11 1054.79   67.28 
  -4  10  -3  402.68   32.43 
  -2  11   8  433.57   40.47 
   1 -15  -5   60.76   64.87 
  -1  15   5   65.45   33.08 
  -1  15   5   41.62   23.40 
  -4   5   8  750.34  251.93 
  -4  -5   8  574.97  190.08 
  -1 -15   5   78.08   38.80 
  -4  -5   8  752.20  263.96 
   2  -1  10 3517.07  127.54 
   2   1  10 3355.16  160.29 
   2  -1  10 3588.24  158.75 
   2   1  10 3479.62  131.19 
  -2   0  11   20.95   31.04 
  -2   0  11   15.29   25.98 
  -5   1   6  538.54   27.75 
  -3   3  10  514.34   53.88 
  -4 -10   5  659.05   75.60 
  -4  10   5  700.36   76.13 
  -4  10   5  781.14  143.80 
  -3  -3  10  742.15  208.15 
  -5  -1   6  550.57   60.19 
  -3  -3  10  619.12   54.05 
  -5  -1   6  620.89  125.80 
  -5   1   6  544.35   59.54 
  -3   3  10  638.50   94.85 
  -5   7   0  219.64   81.51 
   5  -7   0  248.99   64.73 
   3  10   6  142.53   53.93 
  -3  10  -6  148.60   43.19 
  -5  -7   0  281.97  157.81 
  -3  10  -6  173.99   19.92 
   3  10   6  179.21   63.62 
  -5   7   0  259.53  109.90 
   3 -10   6  236.76  113.71 
   4   9   4   62.20   32.75 
   4  -9   4   78.09   38.87 
  -4   9  -4   58.09   47.40 
   4   9   4   46.12   29.84 
  -2   1  11  144.24   63.80 
  -2  -1  11  189.61   71.80 
  -2  -1  11  153.27   73.43 
  -2   1  11  112.09   73.16 
  -3  -7   9 1674.53  102.27 
  -3   7   9 1888.61  115.66 
  -3   7   9 1828.81   78.09 
  -3  -7   9 1861.98  132.85 
  -5   6   4 3240.99  147.82 
  -5  -6   4 2749.26  210.76 
  -5  -6   4 3026.03  143.05 
  -5   6   4 2991.63  182.00 
  -3  14  -1  137.62   60.90 
  -3  14  -1  174.31   58.12 
   3  14   1  174.07   79.45 
  -3 -14  -1  145.50   80.72 
  -1   8  10 3171.17  133.81 
  -1  -8  10 3424.29  154.78 
  -1   8  10 3565.08  167.81 
  -1  -8  10 3403.51  151.48 
   3 -14   1  108.97   60.11 
  -4   9   6 1458.34   93.46 
  -4  -9   6 1718.62  102.85 
  -4   9   6 1732.78  110.04 
   0   4  11  248.75  140.22 
   0  -4  11  268.08  146.40 
   0  -4  11  247.32  112.35 
   0   4  11  226.41   92.37 
   0  12   8   88.42   42.18 
   0 -12   8  105.83   50.69 
   0  12   8  121.86   76.31 
   2  -2  10  336.83   54.50 
   2   2  10  471.86  195.77 
   2  -2  10  454.31  196.12 
   2   2  10  400.40   60.80 
  -1  12   8 6661.58  227.59 
  -1 -12   8 7037.27  257.29 
   0   8  10 3665.47  154.58 
   2   7   9  660.48   80.50 
   0  -8  10 3967.53  185.36 
   2   7   9  691.15  264.56 
   0   8  10 3980.44  168.24 
   0  -8  10 3928.40  182.52 
   2  -7   9  573.23   58.99 
  -5  -2   6   82.06   43.68 
   5  -2  -6   65.84   15.15 
  -5  -2   6   97.18   59.90 
  -5   2   6   87.51   38.23 
   0  17   0   49.62   39.76 
   1  16   3  391.65  127.08 
   1  16   3  282.18   36.55 
  -1 -16  -3  239.24   80.39 
  -1  16  -3  273.05   91.69 
   0  17   0   55.29   46.83 
   0 -17   0   55.85   32.20 
   1 -16   3  312.71   83.49 
  -1  16  -3  311.56  129.17 
  -2   2  11  419.00  152.56 
  -2  -2  11  389.12   74.78 
  -2   2  11  449.58   66.23 
  -2  -2  11  543.86  140.88 
  -2  -7  10   25.07   32.17 
  -2  -7  10   38.21   34.66 
  -2   7  10    3.00   19.27 
  -2   7  10  -16.59   41.05 
  -5  -4  -3 4357.47  149.60 
  -5   4  -3 5365.91  238.24 
   5   4   3 5293.79  207.73 
  -5   7   3  371.54   80.98 
   5  -4   3 5469.53  207.55 
  -5   7   3  346.98  127.93 
  -5  -7   3  405.69  122.57 
   2  15   3 1728.11  100.53 
  -2  15  -3 1751.87  103.44 
  -2 -15  -3 1830.22  127.57 
  -2  15  -3 1694.62   94.08 
   2 -15   3 1859.31  108.57 
   2 -15  -4 2459.87  111.01 
  -2  15   4 2132.96  120.37 
  -2 -15   4 2196.97  127.58 
  -2  15   4 2316.90  192.21 
  -3  12   6  359.90   26.87 
  -3 -12   6  582.40  233.60 
  -3  12   6  372.14  186.90 
  -3  12   6  530.21  200.08 
  -4  11  -2  115.85   49.09 
  -5  -5   5  418.66  155.96 
  -5  -5   5  498.12  116.13 
  -4 -11  -2  130.53   53.99 
  -5   5   5  347.67  179.28 
   4  11   2   86.17   47.01 
  -4  11  -2  138.50   62.24 
   4 -11   2  104.74   63.07 
  -4 -11   4 1306.07  101.05 
  -4  11   4 1470.80  154.74 
  -4  11   4 1418.23   95.80 
  -3  -6  -8   21.50   23.56 
   3   6   8   47.68   52.41 
   3  -6   8   43.41   25.87 
   3   6   8   37.93   19.53 
   0  17   1  408.93  133.19 
   0 -17  -1  323.72  176.22 
   0  17  -1  418.65  118.10 
   0  17   1  425.92  142.10 
   0 -17   1  455.87  214.09 
   0  17  -1  436.13   44.40 
  -3  14   3  333.66   51.02 
  -3  14   3  369.30  146.47 
  -3 -14   3  361.16  168.73 
   3 -14  -3  310.63   29.01 
   0  16  -4  367.48  129.11 
   0  16   4  327.27   96.76 
   0 -16   4  432.06  143.80 
   0 -16  -4  326.51  135.65 
   0  16   4  374.80  144.75 
   4   0   7  -13.45   36.85 
  -4   0  -7   30.42   25.83 
  -3  -4  10  423.84  161.86 
  -3   4  10  406.70  186.43 
  -3   4  10  355.09   43.47 
  -3  -4  10  418.21  148.37 
   5  -6   2  328.53   43.78 
   5   6   2  315.16  185.04 
   1  14   6  136.30  116.52 
   1 -14   6  233.36  111.69 
  -5   6  -2  312.20  119.07 
   1  14   6  151.36   64.37 
  -5   6  -2  284.10   26.28 
   1   0  11  139.67   59.61 
   1   0  11   63.92   42.05 
  -3 -11   7  763.41   82.83 
  -3  11   7  674.82   69.32 
  -3  11   7  820.23   32.16 
  -4  -1  -7 1555.10   94.06 
   2  -3  10  831.97  277.88 
   4   1   7 1651.52  110.34 
   2   3  10  941.06   84.01 
  -4   1  -7 1567.98   91.22 
   4  -1   7 1550.47  189.77 
   2   3  10  831.75  112.67 
   2  -3  10  726.08   43.25 
   4 -12  -1 2305.52  101.09 
  -4  12   1 2051.14  102.34 
  -4 -12   1 2172.22  131.21 
  -4  12   1 2031.57  124.94 
  -5   7  -1    7.91   13.26 
  -5  -3   6  179.96   77.51 
   5  -7   1    4.40   12.04 
  -4   8  -5 1841.64  119.92 
   4   8   5 1787.59   88.20 
  -5   7  -1   23.51   36.56 
   4   8   5 1784.14  136.96 
  -5  -3   6  195.75   67.40 
   5   7   1   -7.30   36.40 
   4  -8   5 1964.29  211.78 
  -5   3   6  174.74   75.69 
  -4   0   9   11.16   24.67 
  -4   0   9    6.60   14.45 
  -3 -13   5  174.27   76.26 
   2  16   0  269.84   61.44 
  -3  13   5  120.36   43.00 
  -2  16   0  338.75  118.82 
  -2  16   0  292.31  110.39 
  -1  -5  11  445.10   50.92 
  -1   5  11  420.67  151.21 
   2  16   0  372.78  147.71 
   1  -7  10   44.84   42.67 
   1  -7  10   43.68   22.87 
   1   7  10   12.54   24.84 
  -2 -16   0  404.52  132.45 
  -3  13   5  132.72   36.25 
   1   7  10   -0.19   44.13 
   2 -16   0  329.47  135.97 
  -3  13   5  176.72   94.01 
  -1  -5  11  429.65   94.38 
  -1   5  11  465.39   73.16 
   2  16  -1 3555.55  125.87 
   1  -1  11 6418.10  312.31 
  -2  16   1 3673.82  191.84 
  -2 -16   1 3826.95  181.27 
  -2  16   1 3575.47  167.61 
   1  -1  11 6882.86  240.28 
   2 -16  -1 3825.74  157.13 
   1   1  11 6702.42  231.14 
   1   1  11 6741.55  252.86 
  -2   3  11  837.65   58.76 
  -2   3  11  928.33   83.42 
  -2  -3  11  780.10   64.55 
  -2  -3  11 1292.72  312.29 
  -4  -6  -6  675.97   30.49 
   4   6   6  912.24  266.04 
   4   6   6  681.73   61.58 
   5   0   4   26.17   22.15 
  -5   0  -4    7.92   31.15 
   5   0   4    1.77    2.83 
  -4   6  -6  851.11  232.88 
   4  -6   6  747.19  128.06 
  -4  -8   7   22.33   30.65 
  -4   1   9 1740.30   93.99 
  -4   8   7   21.39   41.77 
  -4  -1   9 1903.76  113.67 
  -4  -1   9 1800.18   84.09 
  -4  -8   7   26.75   42.69 
  -4   1   9 1717.31  109.99 
  -4  12   0  397.48  132.19 
  -4 -12   0  337.50   88.08 
  -4  12   0  369.36  125.48 
   4 -12   0  362.41   74.69 
   5  -1   4  680.05  100.54 
  -4  12   2 1434.60  101.75 
   5   1   4  618.39   25.70 
   4 -12  -2 1335.11   54.11 
  -4  12   2 1404.87   87.88 
  -4 -12   2 1417.73  101.83 
  -5  -1  -4  613.00   98.28 
   5   1   4  658.20  198.40 
  -5   1  -4  715.39  120.92 
  -1  15  -5    9.21   16.78 
   1  15   5   -1.09   41.97 
   1 -15   5   21.09   44.56 
  -4   6   8 3183.50  257.60 
  -4  -6   8 3107.51  165.42 
  -1  15  -5    6.64   23.56 
  -1 -15  -5   29.13   45.14 
  -4  -6   8 3182.10  164.35 
   4   2   7   15.83   29.66 
  -4  -2  -7   13.48   20.35 
   1  13   7 2560.47  130.01 
   1  13   7 2447.97  198.52 
   1 -13   7 2490.07  129.72 
   4   2   7    5.16    6.44 
  -4   2  -7   -3.49   28.28 
   4  -2   7   -3.20   37.22 
   0  -5  11  715.13  126.81 
   0   5  11  763.14   71.61 
   0  -5  11  675.03   61.91 
   0   5  11  827.56  221.09 
   3   0   9 2154.19  218.01 
   3   0   9 1934.01   75.99 
  -3 -14  -2  486.42   66.00 
   3 -14   2  579.13  175.86 
  -3  14  -2  537.43   63.47 
  -3  14  -2  487.17  154.72 
   3  14   2  576.67   65.85 
  -1 -16   4 2523.03  141.43 
  -1  16   4 2369.55  127.97 
   1 -16  -4 2399.56  118.53 
  -1  16   4 2505.13  121.17 
   1  -2  11 2257.10  155.96 
   1   2  11 2167.52  118.82 
   1  -2  11 2450.79  115.10 
   1   2  11 2258.94  118.03 
   3   1   9 7351.04  288.06 
  -5  -8   1  753.66   76.87 
   3  -1   9 7422.94  275.17 
   5  -8  -1  703.24   31.91 
  -5   8   1  719.17   50.92 
  -5   8   1  804.86  145.32 
   3   1   9 6716.00  200.88 
   3  -1   9 5862.89  170.03 
  -4   2   9  515.29  198.21 
  -4  -2   9  656.61  246.72 
  -4  -2   9  471.80   43.64 
  -4   2   9  444.17   32.74 
   0  17   2  131.79   60.68 
   0 -17   2  188.46   61.90 
   0  17  -2  146.53   79.37 
   0  17  -2  109.80   48.29 
   0  17   2  185.94   83.03 
   0 -17  -2  148.58   72.93 
   2  16   1  139.32   56.27 
  -2 -16  -1   90.84   61.99 
   2  16   1   59.49   39.75 
  -2  16  -1  164.46   57.45 
   2 -16   1  129.19   50.84 
  -2  16  -1  100.60   65.70 
   5   5   3 7814.64  279.79 
  -1  17   0   61.77   30.66 
   1  17   0   29.49   24.16 
  -1 -17   0   71.56   40.91 
   1  17   0   74.12   45.50 
  -1  17   0  102.81   38.25 
   1 -17   0   74.17   50.05 
  -5   5  -3 7483.90  265.05 
  -2  16   2  236.79   89.53 
   5  -5   3 8184.25  265.08 
   2 -16  -2  160.02   94.07 
  -2  16   2  186.37   68.90 
  -2 -16   2  160.46   54.44 
  -5  -5  -3 7416.64  227.13 
   5  -2   4 1678.03   95.95 
   5   2   4 1819.46  135.53 
   5   2   4 1672.28   64.12 
  -5   2  -4 1590.13   90.93 
  -5  -2  -4 1645.85   88.79 
  -5   8   2  649.32   64.65 
  -5   8   2  706.40  131.65 
  -5  -8   2  604.90   66.31 
   2 -10   8 2128.37  123.07 
   2  10   8 1822.42  120.86 
   2  10   8 1821.09  120.30 
   3  -9   7   12.05   20.10 
  -3   9  -7   13.03   21.17 
   3   9   7   35.45   21.20 
   3   9   7    9.62   22.39 
  -5  -7   4   71.42   39.06 
  -1  17   1   31.81   25.48 
  -5   7   4   71.71   22.31 
  -5   7   4   58.65   24.40 
   1 -17  -1    3.02   33.14 
   1  17  -1   27.44   19.92 
   1  17  -1    5.80    8.64 
  -1 -17   1   20.43   30.13 
  -1  17   1   10.26   15.91 
  -2  10   9  263.13   38.71 
  -2  10   9  351.13  105.31 
  -2 -10   9  348.97  119.64 
  -2 -10   9  266.82  101.01 
   2   4  10  263.64  104.17 
   2   4  10  218.61   49.65 
   2  -4  10  208.12   52.48 
   2  -4  10  252.07   85.50 
   3   2   9   70.36   65.30 
   3   2   9   22.13    7.72 
  -5   4   6   23.63   48.35 
  -5  -4   6   39.36   31.19 
  -5  -4   6   69.82   47.81 
   3  -2   9   51.43   54.76 
   2 -13   6  926.07   80.41 
   2  13   6  901.10   86.17 
  -2  13  -6  885.63   81.50 
   2  13   6  979.33  168.77 
   5  -8   0  803.33   36.75 
  -2  13  -6  817.43  186.67 
  -5   8   0  764.94   50.92 
  -5   8   0  665.61   71.84 
  -5  -8   0  781.25   69.45 
   2  14   5  127.92   61.46 
  -2  14  -5  118.51   64.68 
  -2 -14  -5  159.18   91.15 
   2 -14   5  120.57   47.92 
  -2  14  -5  119.35   43.07 
   1  10   9  805.69  128.38 
   1  10   9  869.39   73.17 
   1 -10   9  912.03  114.14 
  -2   4  11 2647.74  139.36 
  -3  -8   9   38.75   57.26 
  -2  -4  11 2568.44  136.10 
   4   3   7    3.09    8.06 
  -2   4  11 2521.21  114.15 
  -3  -8   9   33.84   27.04 
  -3   8   9   39.53   18.98 
  -3   8   9   41.12   51.39 
  -2  -4  11 2332.11  122.73 
   4   3   7   19.46   25.88 
  -5  -6   5 2597.90  166.07 
  -5  -6   5 2682.86  121.26 
  -5   6   5 2581.19  130.70 
  -5   6   5 2707.94  173.12 
  -2 -13   7  366.82  123.85 
  -2  13   7  280.11   49.17 
  -2  13   7  396.37  175.58 
  -2 -14   6   99.99   66.06 
  -2  14   6   81.20   58.02 
  -2  14   6  106.57   43.84 
  -2  14   6   86.02   59.39 
  -3  -5  10   27.74   27.56 
  -3   5  10    6.29   17.10 
  -3  -5  10   13.81   22.36 
  -3   5  10   28.17   35.51 
   1  17   1   32.60   21.73 
  -1 -17  -1   26.16   23.99 
   3  12   5  286.63  126.49 
  -1  17  -1   28.19   33.89 
  -1  17  -1    7.63   17.39 
   1  17   1   22.16   15.60 
  -3  12  -5  183.07   48.28 
   1 -17   1   43.37   19.47 
  -3  12  -5  292.12   87.07 
   3  12   5  268.16   87.70 
   3 -12   5  252.61  127.24 
   1  -3  11 6869.16  235.31 
   1   3  11 7473.14  256.55 
   1  -3  11 6843.09  321.99 
   1   3  11 6916.47  265.88 
   4 -12   1 3366.37  149.32 
  -4  12  -1 3217.01  125.44 
  -4 -12  -1 3067.21  159.05 
  -4  12  -1 2712.04  137.28 
  -1  11   9  532.80  152.83 
  -1  11   9  354.91  151.09 
  -1 -11   9  467.58  147.93 
  -4 -12   3  122.28   61.57 
  -3 -10   8 1458.09  101.96 
  -3 -10   8 1451.67  101.01 
  -3  10   8 1465.76  102.79 
  -3  10   8 1517.24   59.45 
  -4  12   3   78.91   54.43 
  -4  12   3  105.70   46.07 
   0 -11   9 3522.37  170.25 
  -4   3   9   13.72   27.83 
  -4  -3   9   14.14   20.58 
   0  11   9 4328.41  186.72 
  -4   3   9    3.66    9.70 
  -4  -3   9   28.47   30.72 
   0  11   9 4056.73  171.29 
   3  13   4 3882.17  165.69 
  -3  13  -4 4064.26  183.17 
  -3 -13  -4 3858.11  180.53 
  -3  13  -4 3598.53  127.86 
   3 -13   4 3826.52  158.67 
   2   8   9 1071.40   69.89 
   2  -8   9 1122.30   85.45 
   2   8   9 1119.74   89.47 
   5   3   4 3597.29  159.56 
   5  -3   4 3660.91  153.41 
  -5   3  -4 3336.97  141.92 
   5   3   4 3461.13  115.63 
  -5  -3  -4 3456.09  130.13 
  -1  -9  10 1324.18  247.82 
  -1  -9  10 1383.90  101.84 
  -1   9  10 1192.80   76.01 
  -1   9  10 1249.42   87.39 
  -3  14   4  422.46  154.45 
  -3  14   4  327.92  126.00 
   3 -14  -4  303.99   69.25 
  -3 -14   4  276.96  116.04 
   3  -7   8  661.44  157.99 
   3   7   8  545.43   82.47 
  -3   7  -8  656.18  100.86 
  -3  -7  -8  572.15   29.95 
   3   7   8  528.03  197.48 
  -2  -8  10  303.05   92.44 
  -2   8  10  287.53   33.47 
  -2  -8  10  320.52  102.65 
  -2   8  10  317.77   95.62 
  -5   8   3 3008.04  135.33 
  -5  -8   3 3052.30  139.66 
  -5   8   3 3497.18  163.40 
  -1  -6  11  150.91   61.02 
  -1  -6  11  119.53   56.46 
  -1   6  11  119.15   52.28 
  -1   6  11  109.86   56.35 
  -4  10  -4 2304.04  140.14 
   4  10   4 2096.70  146.58 
   4 -10   4 2168.87  149.85 
  -4  10  -4 1951.03   66.06 
   4  10   4 2259.17  110.83 
  -1  17   2  375.24   80.16 
   0   9  10  812.76  103.27 
   1  17  -2  379.00   47.53 
   1  17  -2  414.66  123.67 
   1 -17  -2  377.41  100.24 
   0  -9  10  856.03   69.15 
  -1 -17   2  467.19  198.87 
  -1  17   2  503.06  172.82 
   0   9  10  926.64  131.83 
   3   3   9 5980.33  124.44 
   3  -3   9 5905.31  178.23 
   3   3   9 6045.34  184.24 
  -5   7  -2   34.87   41.10 
  -5   7  -2   32.28   15.29 
   0 -15  -6  117.25   54.62 
   5   7   2   15.77   49.09 
   1 -16   4  644.98   67.56 
  -1  16  -4  641.05  191.73 
  -1  16  -4  678.59  162.00 
   5  -7   2   44.11   20.10 
   1  16   4  647.67  178.99 
   0 -15   6  190.45   67.47 
  -1 -16  -4  665.72  152.51 
   0  15   6  179.66   80.22 
   1  16   4  634.99   34.10 
   0  14   7  964.92   67.71 
  -4  11  -3 3879.17  131.81 
   0  14   7 1120.49   85.33 
   0 -14   7 1219.74  105.92 
  -4  11  -3 4171.12  161.00 
   1 -12   8   70.57   56.06 
   4  11   3 4282.06  144.12 
  -4  10   6 1635.80  103.25 
  -4 -11  -3 4164.04  172.43 
   1  12   8   68.72   31.87 
  -4  10   6 1581.94  108.89 
   1  12   8   54.17   34.87 
   4 -11   3 4016.48  195.27 
  -4 -10   6 1558.51   95.12 
  -4 -11   5   19.08   26.39 
  -4  11   5    9.60   29.40 
  -4  11   5   76.70   32.43 
   3  11   6   27.08   34.32 
   3  11   6   19.95   19.73 
   3 -11   6    8.05   13.44 
  -3  11  -6   13.55   13.71 
   2 -12   7 1262.29   86.76 
  -2  12  -7 1136.61   52.37 
   2  12   7 1175.17  124.45 
   2  12   7 1048.50   84.28 
   2  16   2  529.44   23.60 
  -2 -16  -2  546.08   82.91 
   2  16   2  694.31  237.95 
  -2  16  -2  588.11  193.51 
  -2  16  -2  539.88   98.91 
   2 -16   2  635.77  174.69 
   0   6  11  212.86  123.91 
   0  -6  11  240.48   99.74 
  -2  16   3   31.95   31.38 
  -2  16   3   19.47   18.78 
  -2 -16   3   47.25   41.13 
   0  -6  11  332.97  134.59 
   2 -16  -3   14.84   30.30 
   0   6  11  237.59   91.94 
  -4   7  -6  952.77   73.75 
  -2  15  -4   51.07   34.73 
  -2  15  -4   64.93   41.95 
   4   7   6  835.09   88.80 
   2 -15   4   33.40   50.08 
  -2 -15  -4   59.39   41.01 
   4  -7   6 1084.51  232.79 
   2  15   4   50.22   28.72 
   4   7   6  885.93  156.70 
  -1  14   7   42.84   36.54 
  -1 -14   7   50.09   48.30 
  -1  14   7   34.91   22.93 
   2 -15  -5 6885.75  162.46 
  -2  12   8   31.95   21.65 
  -2 -12   8    8.15   25.29 
  -2 -15   5 6741.48  205.27 
  -2  15   5 6630.67  182.68 
  -2  12   8   47.52   39.00 
  -2  15   5 6828.85  190.27 
  -4  -4  -7  449.05  110.79 
  -5   0   7 3678.81   83.02 
   4  -4   7  477.25   68.57 
  -5   0   7 3837.18  151.69 
  -4   4  -7  506.61  172.00 
   4   4   7  536.43  172.67 
   4   4   7  430.18   42.94 
   5  -8   1   -0.89   12.90 
  -5   8  -1   30.89   30.43 
  -5   8  -1    7.39    6.95 
  -5  -8  -1   11.75   21.90 
  -1 -15   6 4643.33  165.21 
  -1  15   6 4297.83  177.05 
   1  -8  10  345.14  120.41 
   1   8  10  295.49  129.01 
   1   8  10  274.36  148.34 
  -4   7   8  447.90  186.94 
   1  -4  11 4071.36  121.65 
  -4  -7   8  442.81  162.13 
  -4  -7   8  478.13  150.86 
   1   4  11 4060.73  136.70 
   1  -4  11 4041.04  177.67 
   1   4  11 4257.33  162.85 
   0  17   3 2903.58  131.19 
   2  -5  10 1068.43   46.29 
   0 -17   3 2911.21  156.27 
  -3 -15   1  411.31  150.28 
   0  17   3 3123.17  101.05 
   0  17  -3 3148.13  121.89 
  -3  15   1  350.28  148.02 
   2   5  10 1110.77  225.25 
   0  17  -3 2803.65  123.23 
  -5  -1   7 3343.72  142.76 
   0 -17  -3 2917.47  126.40 
  -5   1   7 3160.67   66.81 
   3 -15  -1  328.28  131.69 
  -3  15   1  321.05  185.25 
  -5   1   7 3140.56  146.59 
   2   5  10 1090.82   80.47 
  -5  -1   7 3378.20   92.91 
   2  -5  10 1108.84   84.60 
   5   6   3 4601.04  125.00 
   5  -6   3 4464.18  235.73 
  -5   6  -3 4593.19  170.36 
   5   6   3 4487.25  211.94 
  -4  -4   9   80.99   50.58 
  -1 -17  -2 1971.18  114.92 
   1  17   2 1946.85   63.45 
  -5   5   6  363.59  133.32 
  -4   4   9  151.70   66.84 
  -5  -5   6  605.68  219.41 
  -5  -5   6  515.47  136.99 
  -1  17  -2 1985.28  141.40 
  -1  17  -2 1751.60   86.40 
  -4   4   9   53.35   25.20 
   1 -17   2 1986.23  107.50 
   1  17   2 2018.70  103.97 
  -4  -4   9   80.41   32.55 
  -2  -5  11  231.45   90.12 
  -2  -5  11  273.35   87.31 
  -2   5  11  199.34  100.12 
  -2   5  11  265.60   95.14 
  -3  15   0  756.59   60.20 
  -3 -15   0  656.75   74.57 
   3 -15   0  667.45   81.30 
   3  15   0  599.03   27.25 
  -3  15   0  672.67   61.58 
   4   9   5  456.39  183.38 
   4  -9   5  513.05   96.69 
   5  -4   4 1110.53   75.02 
   5   4   4  928.40   60.62 
   4   9   5  500.44  105.27 
   5   4   4 1004.05  118.12 
  -5  -4  -4  966.70   51.98 
  -4   9  -5  635.23  183.47 
  -5   4  -4  980.51   69.81 
  -3 -14  -3   93.94   74.26 
   3  14   3   78.17   29.28 
  -3  14  -3   62.75   51.63 
   3 -14   3   80.25   60.09 
  -3  14  -3   96.78   49.59 
  -4  -9   7 1949.96  102.18 
  -4   9   7 1909.78  107.75 
  -4  -9   7 1866.13  103.06 
   0  16   5 2015.77   98.49 
   0  16   5 2278.13   81.56 
   0 -16   5 2167.03  121.57 
   0 -16  -5 1969.54  103.82 
  -5  -2   7 3481.78  101.92 
  -5   2   7 3600.37  154.70 
  -5  -2   7 3249.79  135.63 
  -3   6  10 1438.51   58.23 
   0 -13   8  203.23   85.62 
   0  13   8  151.96   70.41 
   0  13   8  194.47   89.66 
  -3  15   2 1990.38   93.77 
   3 -15  -2 1871.60   77.27 
  -3  -6  10 1352.96  106.49 
  -3  15   2 2115.80  111.69 
   3  -4   9  399.35  127.78 
  -3   6  10 1370.05  104.73 
  -3 -15   2 1967.27  116.09 
  -3  -6  10 1285.52  109.61 
   3   4   9  430.98  191.89 
   3   4   9  300.44   36.40 
  -1 -13   8  119.13   42.88 
   4 -12   2  309.57  118.26 
  -4  12  -2  279.07   63.76 
  -4  12  -2  362.27  137.08 
  -1  13   8   93.99   55.57 
   4  12   2  334.67  169.64 
  -1  13   8   47.24   50.96 
  -4 -12  -2  296.79  155.38 
  -4  12   4   64.12   35.73 
  -4  12   4   33.64   19.36 
  -4 -12   4   51.74   40.64 
  -5   7   5   97.10   63.10 
  -5  -7   5  121.02   84.89 
  -5   7   5   91.72   39.80 
  -5  -7   5   97.11   56.97 
  -5  -9   1 3379.23  136.00 
  -5   9   1 3320.23  203.25 
  -5   9   1 3257.24  105.38 
  -5  -8   4 1651.37   89.41 
  -5   8   4 1663.67   86.70 
  -5   8   4 1631.50   91.76 
  -3  13   6  683.07   33.42 
   1 -17  -3   64.17   33.46 
  -3  13   6  689.50   66.18 
  -1 -17   3   63.15   27.86 
  -1  17   3   58.42   20.21 
  -1  17   3   31.36   24.36 
   1  17  -3   66.58   26.50 
  -3  13   6  702.21   67.38 
  -3 -13   6  780.52   70.49 
  -5   9   2 4122.11  161.69 
   3 -15   1   57.34   42.32 
  -3  15  -1   54.55   28.02 
   3  15   1   13.69   39.42 
  -5   9   2 3993.93  133.12 
  -3  15  -1   23.82   23.78 
  -5  -9   2 4225.40  150.32 
  -3 -15  -1   83.67   47.10 
   1 -16  -5  847.25  172.70 
  -1  16   5  935.65   93.72 
  -1 -16   5 1166.95  334.18 
  -3 -12   7  433.35  201.50 
  -1  16   5  981.72   66.95 
  -3  12   7  439.61  170.36 
  -3  12   7  365.18   38.90 
  -4  -5  -7  925.24   55.53 
  -4   5  -7  980.20   68.58 
  -5  -3   7 6184.11  157.21 
  -5   3   7 6250.97  187.24 
   4  -5   7  947.02   72.91 
   4   5   7  993.93   47.83 
   4   5   7 1039.27   89.61 
  -5  -3   7 6263.27  208.16 
  -5   9   0 1180.38   86.45 
  -5  -9   0 1120.40   96.17 
   5  -9   0 1203.17   44.68 
  -5   9   0 1224.59   59.43 
  -1  -7  11 2358.70  118.01 
  -1  -7  11 2314.85  108.03 
  -1   7  11 2233.79  122.66 
  -1   7  11 2413.99  122.34 
   1   5  11 3517.15  128.22 
   1   5  11 3566.26  155.95 
   1  -5  11 3390.66  138.21 
   1  -5  11 3261.78  192.33 
   3  10   7 2460.18  101.51 
   3 -10   7 2524.56  126.95 
  -3  10  -7 2448.06  160.04 
   3  10   7 2474.97  128.42 
  -4  13   1  336.65  115.22 
  -4 -13   1  370.46  137.72 
  -4  13   1  291.16  174.53 
  -3  -9   9   30.50   20.91 
  -3  -9   9   59.64   38.76 
  -3   9   9   25.70   42.22 
   4 -13  -1  333.77   29.26 
  -3   9   9   30.85   23.54 
  -4  -5   9  117.65   60.12 
  -4  -5   9  148.00   51.52 
  -4   5   9  135.61   55.93 
   3   8   8  209.92   75.46 
   3   8   8  203.19   61.86 
  -3   8  -8  268.01  109.31 
   3  -8   8  257.68   75.20 
  -1   0  12   34.06   37.83 
  -1   0  12   21.39   24.58 
   5   5   4  997.09   58.78 
  -5  -5  -4  988.43   45.42 
   5  -5   4 1082.63   65.52 
  -5   5  -4 1070.38   83.77 
   5   5   4 1168.76  292.66 
   2  11   8   42.32   25.96 
   2  11   8   68.80   39.29 
   2 -11   8   58.78   33.51 
   2   6  10   17.41   22.31 
   5   0   5 1469.05   86.02 
  -5   0  -5 1589.66  199.78 
   2   6  10   10.91   33.78 
   2  -6  10    9.18   39.95 
  -3   0  11 2514.00  123.88 
  -1  -1  12  702.92  105.02 
  -1   1  12  797.56   66.56 
   0  -7  11  733.99  171.85 
  -3   0  11 2591.26  108.98 
   0   7  11  771.16  204.55 
   2   9   9 1061.81  278.22 
   0  -7  11  766.65   69.17 
   0   7  11  707.60   67.03 
   2  -9   9  989.09  262.72 
  -1   1  12  675.53   59.15 
   2   9   9  976.97  147.47 
  -1  -1  12  634.95   68.41 
  -5  -6   6  525.97   51.85 
  -4 -13   0 5799.26  192.42 
  -3  15   3   18.49   16.07 
  -5   6   6  514.44  192.71 
  -4  13   0 5713.57  180.77 
   3 -15  -3   14.18   16.98 
  -3 -15   3    0.16   30.97 
   4 -13   0 6526.08  134.20 
  -3  15   3   17.75   25.65 
  -5  -6   6  530.14  175.83 
  -4  13   0 5679.99  145.50 
   5   8   2   52.35   34.11 
   4 -13  -2   13.35   12.41 
  -4  13   2   18.33   19.85 
  -5   8  -2   51.69   26.07 
  -2  16  -3 5252.89  304.76 
  -2  16  -3 5033.23  136.67 
   5  -8   2   65.70   36.56 
  -4  13   2   16.94   32.07 
  -5   8  -2   92.48   71.86 
  -2 -16  -3 5626.46  194.93 
   2 -16   3 5304.23  157.16 
   2  16   3 4924.86  164.96 
  -4 -13   2   -0.41   43.05 
  -3  14   5 3302.54  132.38 
  -2  11   9   57.46   53.90 
  -3 -14   5 3241.04  141.10 
  -3  14   5 2479.14   66.74 
  -3  14   5 3268.62  128.54 
  -2  11   9   12.28   30.79 
  -2 -11   9   26.92   43.64 
  -2  16   4 1917.78  155.84 
  -2 -16   4 1510.36  112.46 
  -2  16   4 1917.31  102.08 
   2 -16  -4 1965.39   92.48 
  -2   6  11  521.71  173.36 
  -2  -9  10  304.99  136.39 
  -2   9  10  381.90  142.24 
  -2  -6  11  450.94  185.88 
  -2   9  10  295.00  115.28 
  -2  -6  11  443.84  110.96 
  -2  -9  10  318.82  128.19 
  -2   6  11  385.19   40.80 
  -5  -1  -5 1002.17   59.99 
  -5   1  -5 1152.80  200.56 
   5   1   5 1057.87  217.42 
   5  -1   5  962.03   72.52 
  -5  -9   3  977.17  113.66 
  -5   9   3  880.87  160.38 
  -3   1  11 3559.60  108.53 
  -5   9   3  941.43   80.17 
  -3   1  11 3802.32  159.85 
  -3  -1  11 3778.12  251.73 
  -3  -1  11 3687.98  117.47 
   3   5   9 2981.36  135.30 
   3  -5   9 3043.32  128.60 
   3   5   9 3098.24  104.66 
   1  15   6 2637.46  115.94 
  -1 -15  -6 2660.51  121.99 
   1 -15   6 2730.46  120.96 
   1 -17   3   81.61   55.35 
   1  17   3   98.95   69.73 
  -1  17  -3   89.95   54.75 
  -1 -17  -3   86.31   45.54 
  -1  17  -3   62.58   30.49 
   1  17   3   47.29   23.45 
   1  11   9  208.13   72.37 
   1 -11   9  177.77   84.95 
   1  11   9  163.88   93.48 
   5   7   3  328.14   53.70 
   5   7   3  336.41  135.86 
  -5   7  -3  405.10  160.49 
   5  -7   3  281.79  120.57 
  -4   8  -6 2487.04  161.18 
   4  -8   6 2440.61  103.89 
   4   8   6 2506.48  137.94 
   4   8   6 2388.04   95.10 
  -1  10  10  885.84   60.70 
  -1  10  10 1061.38   91.09 
  -1 -10  10 1065.19   97.83 
   0   0  12 3485.21  136.21 
   1  14   7 3326.33  142.25 
   1 -14   7 3517.10  143.70 
   0   0  12 3329.49  126.90 
   1  14   7 3480.79  139.35 
  -1   2  12 1703.78   87.28 
  -3  11   8  134.36   37.40 
  -3  11   8  161.49   72.91 
  -1   2  12 1858.45  107.55 
  -1  -2  12 1521.48   88.54 
  -3 -11   8  209.64   88.14 
  -1  -2  12 1653.64  102.33 
  -4  -8   8 2193.58   95.71 
  -4  -8   8 2195.17  121.56 
  -4   8   8 2238.42  191.67 
   0  18   0  153.30   78.79 
   0   1  12   83.19   49.10 
   0 -18   0   83.56   43.76 
   0  18   0   85.37   52.91 
   0  -1  12   78.09   61.63 
   0  -1  12  107.42   65.33 
   0   1  12   98.15   91.75 
  -5  -4   7 3238.14  151.72 
   5  -2   5   -2.20   36.06 
  -5   4   7 3010.84  144.36 
   5   2   5   47.46   25.82 
  -5   2  -5   13.18   26.57 
  -5  -2  -5   14.85   26.36 
  -5  -4   7 3257.75  109.99 
   0  10  10 1998.39  222.08 
   0  10  10 1843.77   97.20 
   0 -10  10 1971.91  194.89 
  -3  -2  11  560.07   53.27 
  -3  -2  11  652.33  211.12 
  -3   2  11  581.36   67.15 
  -3   2  11  595.18   49.36 
   0 -17   4 1494.97  367.61 
   0  17   4 1199.75  146.20 
   0  17  -4 1194.52   83.77 
   0 -17  -4 1339.31   85.88 
   0  17  -4 1179.88  162.86 
   0  17   4 1293.90   61.78 
  -1  12   9 1287.71   95.46 
  -1 -12   9 1177.00   91.57 
  -1  12   9 1290.78   71.86 
  -5   9  -1  270.00  130.52 
  -5   9  -1  178.22   77.82 
   5  -9   1  265.77   56.56 
  -5  -9  -1  282.21   97.96 
  -3   7  10  550.40   35.35 
   0  12   9  678.31   69.17 
  -3  -7  10  590.09  194.70 
  -3   7  10  540.93  217.26 
   0 -12   9  666.15  129.01 
   0  12   9  694.67  178.45 
  -3  -7  10  622.62  202.63 
   1   9  10  355.31  149.12 
  -3  15  -2  381.86   84.03 
  -3 -15  -2  461.47  191.03 
   1   9  10  385.93  135.52 
   3  15   2  491.09   93.58 
  -3  15  -2  507.41  141.52 
   1  -9  10  308.58  122.83 
   3 -15   2  388.70  134.72 
  -4  11  -4 1206.81  326.08 
   4  11   4 1178.41  182.87 
   4 -11   4  943.51   64.55 
   4  11   4 1020.00   87.16 
   0  18  -1 1276.71   71.57 
   0  18   1 1098.81   93.53 
   0  18   1 1124.71   88.65 
   0 -18   1 1199.23   90.08 
   0 -18  -1 1099.39  170.46 
   0  18  -1 1014.42   77.26 
   3  13   5 3583.64  163.47 
  -3  13  -5 3000.84  139.51 
  -3  13  -5 3586.73   96.98 
   3  13   5 3620.56  171.45 
   3 -13   5 3759.94  133.54 
  -4  11   6  104.20   50.77 
  -4 -11   6   70.76   34.77 
   2 -17  -1   50.83   57.34 
  -2 -17   1  100.20   60.19 
  -4  11   6   55.92   49.12 
   2 -17   0   73.26   37.99 
  -2  17   1   74.25   39.90 
  -2  17   1   53.75   44.40 
   2  17   0   39.34   30.69 
  -2  17   0   38.69   24.38 
   2  17  -1   55.46   46.70 
  -2  17   0   53.63   28.32 
   2  17  -1   36.49   25.35 
  -2 -17   0   43.90   41.47 
   2  17   0   14.79   18.15 
  -4  13  -1 2108.01   91.15 
  -1  16  -5  237.17   52.10 
  -4  13  -1 1863.34  145.30 
  -1 -16  -5  265.34  100.47 
   4 -13   1 2161.78   86.06 
   1 -16   5  169.72  135.83 
   0   2  12 2853.18  160.13 
   0  -2  12 3146.54  115.62 
   0  -2  12 3006.19  135.21 
  -4 -13  -1 2022.40  118.30 
   1  16   5  261.71  142.17 
  -1  16  -5  273.46   84.86 
   0   2  12 3412.56  129.38 
  -4  13   3  782.45   70.86 
  -4  13   3  750.40   85.58 
  -4 -13   3  822.00   84.06 
  -2  14  -6   27.60   30.26 
   2  14   6   24.73   29.37 
   2 -14   6    5.02   42.52 
   2  14   6   17.82   16.30 
  -2  14  -6   49.65   32.22 
   4  -6   7  652.63   84.29 
   4   6   7  792.59  222.55 
  -4  -6  -7  655.58   32.79 
  -4   6  -7  679.71  211.17 
   4   6   7  615.76   44.03 
  -2  14   7 2707.18  130.63 
  -1  -3  12  826.27   70.15 
  -1  -3  12  883.11  220.31 
  -1   3  12  809.08   65.78 
  -2  14   7 2626.20   88.77 
  -2 -14   7 2967.07  137.32 
  -1   3  12  873.53   79.74 
  -4  12  -3   45.50   31.54 
   4  12   3   44.61   17.64 
  -4 -12  -3   37.99   47.88 
   4 -12   3   45.23   28.59 
  -4  12  -3   57.08   27.88 
   1  -6  11   12.19   15.64 
   1   6  11   34.05   14.76 
   1  -6  11    3.21   24.83 
   1   6  11   21.57   45.89 
   5   3   5 3393.22  136.30 
  -5   8   5  923.91   76.69 
   5   3   5 3293.42   72.55 
  -5   8   5  759.23  174.15 
  -5   3  -5 3543.15  125.53 
   5  -3   5 3743.46  129.93 
  -5  -3  -5 3364.70  106.47 
  -5  -8   5  902.14   69.80 
   4  10   5 4223.38  176.12 
  -3   3  11 1282.79   88.83 
  -3   3  11 1202.92   62.91 
  -4  10  -5 3875.80  145.46 
  -3  -3  11 1255.66   90.29 
  -3  -3  11 1153.53  108.35 
   4  10   5 3813.48  123.13 
   4 -10   5 4117.58  142.69 
  -4  12   5  468.76  156.39 
  -4  -6   9  179.28   66.92 
  -4   6   9  137.00  140.40 
  -4  -6   9  199.56   91.99 
  -4 -12   5  375.82  160.97 
  -4  12   5  378.32  100.82 
  -3  12  -6 2536.47   64.41 
   3  12   6 2801.22  112.15 
   3 -12   6 2793.64  117.36 
  -3  12  -6 2917.17  130.76 
   3  12   6 2648.92  130.98 
   2 -15   5 1770.95  134.32 
   2  15   5 1957.59  101.60 
  -2 -15  -5 1914.62  216.16 
  -1  17   4   26.83   34.85 
  -2  15  -5 1836.09  103.71 
  -1  17   4   32.71   22.78 
  -2  15  -5 1803.24   78.28 
  -1 -17   4   20.74   24.79 
   1 -17  -4    8.06   20.70 
  -4   0  -8  188.80   98.71 
   4   0   8  248.99  126.61 
   3  14   4  102.21   38.72 
   3 -14   4   49.74   40.24 
  -3  14  -4   33.79   17.56 
  -3  14  -4   68.58   44.72 
  -3 -14  -4   68.34   44.56 
  -2  15   6  242.35  105.97 
  -2 -15   6  296.39  111.79 
  -2  15   6  211.15  111.99 
  -2  15   6  313.15   96.62 
  -4 -10   7 1272.33  149.16 
  -5   6  -4  270.85  131.87 
   5   6   4  287.52  115.74 
   5  -6   4  307.44  122.69 
  -4  10   7 1168.49   90.95 
   5   6   4  283.31  164.89 
   1  13   8 2369.19  208.70 
   1 -13   8 2603.27  121.70 
   1  13   8 2545.01  114.24 
   2  17   1  797.51  114.18 
   2  17   1  754.80   35.23 
  -2  17  -1  750.33   69.84 
   2 -17   1  760.62   64.31 
   4  -1   8 5636.20  194.75 
  -2 -17  -1  898.99  263.43 
  -4  -1  -8 5316.17  136.41 
  -2  17  -1  907.84  196.32 
   4   1   8 5303.93  179.17 
  -4   1  -8 5424.21  148.59 
  -2 -17   2  295.11  121.51 
  -2  17   2  295.89  142.92 
   2  17  -2  269.35   70.14 
  -2  17   2  279.78  146.02 
   2 -17  -2  230.31  107.71 
  -5  -9   4  144.45   89.72 
  -5   9   4  115.49   50.28 
  -5   9   4  101.89   52.67 
  -4   0  10    3.88   18.88 
  -4   0  10   23.26   34.13 
   0   3  12 2402.64  143.67 
   0  -3  12 2404.36  113.33 
   0  -3  12 2240.32  151.26 
   0   3  12 2419.18  121.20 
  -2  13  -7  934.74   87.44 
  -2  13  -7 1206.51  109.06 
   2 -13   7 1187.17  102.23 
   2  13   7  986.74  142.49 
   2  13   7 1080.00  264.94 
   3   6   9  298.55   69.66 
   3  -6   9  474.45  128.57 
   3   6   9  347.95  127.37 
   0  18  -2  204.03   60.43 
  -3  15   4  474.45  166.89 
  -4   1  10 3893.05  182.95 
   3 -15  -4  311.09   59.81 
   0  18   2  141.78   60.80 
  -2 -13   8  461.97  221.65 
  -1   8  11  390.60  184.15 
   0  18   2  177.80   71.82 
  -4   1  10 3527.83   93.72 
  -1  -8  11  512.85  222.24 
  -4  -1  10 3746.95  171.59 
   0 -18   2  162.64   95.24 
   0  18  -2  152.95   73.15 
  -1   8  11  359.98  140.32 
  -1  -8  11  425.11   97.37 
  -2  13   8  456.62   63.43 
  -4  -1  10 3774.54  109.52 
  -2  13   8  443.55   41.17 
   0 -18  -2  172.93   60.91 
  -3  15   4  383.66  173.08 
  -3 -15   4  470.53  163.02 
  -5   5   7 9660.42  240.06 
  -5  -5   7 9795.93  200.47 
   2  -7  10 1626.84  108.44 
   2   7  10 1663.77  100.79 
  -5  -5   7 9959.66  227.14 
   2   7  10 1758.75   99.06 
  -1  18   0  363.08  131.21 
  -1 -18   0  347.74  137.28 
   1 -18   0  390.53  169.05 
   2   0  11   10.33   25.02 
  -5  -7   6  200.19   71.98 
   1  18   0  339.90   84.12 
  -5  10   1  236.01   81.55 
   1  18   0  399.33  130.09 
   2   0  11   21.40   16.60 
  -1  18   0  404.26  154.98 
  -5 -10   1  279.71   86.52 
  -5  10   1  210.84   78.53 
  -5  -7   6  227.65   70.49 
  -5   7   6  250.76  131.67 
  -2   7  11  302.75  114.89 
  -4   2  -8  243.76   71.26 
  -2  -7  11  305.89  131.18 
  -2   7  11  444.29  156.65 
   4  -2   8  246.52  137.63 
  -2  -7  11  290.41   76.51 
  -4  -2  -8  209.44   86.66 
   4   2   8  339.77  121.87 
   2  -1  11  155.97   50.09 
   2   1  11  129.69   38.95 
   2   1  11  167.07   86.52 
   2  -1  11  204.42  116.37 
  -2   0  12 6868.60  176.79 
  -2   0  12 7193.94  215.16 
  -1  18   1   22.91   23.43 
   1 -18  -1   15.35   24.67 
  -1  18   1  -10.67   23.17 
  -5  10   2 4572.18  143.28 
   1  18  -1    5.27   31.95 
  -5 -10   2 4399.01  182.59 
   1  18  -1   22.75   13.01 
  -1 -18   1   27.64   32.01 
  -5  10   2 4474.91  177.95 
   0 -15   7 3541.38  169.54 
   0  15   7 3720.14  144.10 
   0  15   7 3518.19  134.92 
  -1   4  12   20.02   31.24 
  -1  -4  12   28.63   28.54 
  -1  -4  12   16.59   29.70 
  -1   4  12   11.91   20.64 
   0   8  11 1114.82   81.85 
  -2   1  12 1444.39  114.88 
  -2   1  12 1418.78   75.23 
   0  -8  11 1259.58  182.75 
   0   8  11 1223.08   80.80 
  -2  -1  12 1394.70   86.11 
   0  -8  11 1136.31   69.51 
  -2  -1  12 1431.54  110.46 
  -4  -2  10   83.08   74.40 
  -4  -2  10   64.95   23.44 
  -4   2  10   61.86   26.60 
  -4   2  10  103.69   42.43 
  -3   9  -8  470.46  170.76 
   3  -9   8  414.80  185.03 
   3   9   8  409.75  120.27 
   3   9   8  399.29  177.66 
   5  -4   5  603.98   56.73 
  -5  -4  -5  647.98   47.09 
   5   4   5  516.89   49.86 
   5   4   5  660.56  169.94 
  -5   4  -5  588.84  178.80 
  -3   4  11  591.63   92.49 
  -5   0   8   19.86   31.67 
  -3  -4  11  658.62   71.32 
  -5   0   8    9.72   13.02 
  -3  -4  11  505.27   51.69 
  -3   4  11  549.70   43.40 
   6   0  -1    9.83   10.82 
  -6   0   1    9.50   24.25 
  -1  15   7  119.05   63.48 
  -1  15   7  107.65   52.04 
  -6   0   1    4.17   13.57 
  -1 -15   7  129.78   48.15 
   0  16   6 2158.59  111.22 
  -5 -10   0   88.60   50.33 
   5 -10   0   57.72   47.35 
  -5  10   0  125.17   53.45 
   6   0  -2  195.24   77.64 
   0 -16  -6 2157.19  124.10 
  -1  18  -1  497.80  116.84 
   0 -16   6 1976.39  146.15 
  -6   0   2  277.28   88.04 
  -1 -18  -1  397.17  206.34 
   1 -18   1  491.14   71.69 
   1  18   1  400.77  168.87 
   1  18   1  397.21   41.31 
  -5  10   0   91.04   47.11 
  -1  18  -1  510.46  109.58 
  -3  10   9  654.89   33.34 
  -3 -10   9  722.27  174.83 
  -3  10   9  664.56   69.80 
  -3 -10   9  696.72  164.29 
   2  -2  11  188.63   48.46 
  -5  -1   8  449.47  240.28 
   5   8   3 4247.69  123.75 
  -5   1   8  587.71  253.57 
   5  -8   3 4225.82  114.07 
   2   2  11  168.02   92.64 
   2  -2  11  198.25   80.53 
  -5  -1   8  512.86  129.86 
   2   2  11  215.44  138.99 
  -5   8  -3 4122.91  154.67 
   5   8   3 4034.43  217.61 
   6   1  -1   21.45   14.59 
   6  -1  -1   15.53   14.06 
  -6   1   1   18.19   30.15 
  -6   1   1    6.07   17.35 
   6  -1  -2  677.85   44.32 
   5   9   2  267.01  151.64 
  -6   1   2  684.99   60.01 
   5  -9   2  261.66  110.76 
   6   1  -2  605.66   74.53 
  -6  -1   2  513.63  148.91 
  -5   9  -2  235.30   84.79 
  -6   1   2  668.32   64.16 
   4  13   2   52.03   31.01 
  -4 -13  -2   65.56   32.39 
  -4  13  -2   47.70   24.35 
   4 -13   2   59.54   28.54 
  -4  13  -2   28.95   35.21 
  -2  -2  12 1493.55   89.08 
   2  16   4   36.88   25.27 
  -2 -16  -4    6.42   24.87 
   2 -16   4   15.71   39.08 
  -2  16  -4   24.38   31.54 
  -2  -2  12 1417.98  104.64 
  -2  16  -4   10.08   12.26 
  -2   2  12 1381.84   76.23 
  -2   2  12 1560.90  105.13 
  -1  17  -4   71.39   38.89 
  -1  17  -4   91.27   43.31 
   1  17   4   95.14   43.54 
   1 -17   4  133.30   81.55 
   1  17   4   62.06   48.70 
  -1 -17  -4   84.53   47.01 
  -2 -16   5 2092.78  116.10 
  -2  16   5 2171.58  150.21 
  -2  16   5 2234.91  117.02 
  -4 -13   4 2396.38  128.14 
  -4  13   4 2396.02  117.60 
  -4  13   4 2585.22  113.76 
   2 -16  -5 2218.94   91.25 
   0   4  12  252.63  132.46 
   0  -4  12  346.86   64.65 
   0  -4  12  388.84  189.64 
   0   4  12  350.59  133.44 
   3 -11   7  607.78  174.41 
   4  -3   8 8690.74  209.45 
   3  11   7  549.31   51.43 
   4   3   8 8466.88  212.86 
  -3  11  -7  678.53  207.38 
  -4  -3  -8 8655.85  180.80 
   3  11   7  555.89  238.17 
  -4   3  -8 8453.35  246.91 
   2  10   9   33.22   30.27 
   2 -10   9   31.30   40.69 
   2  10   9   20.40   15.56 
   4   9   6  968.17  257.88 
   0 -14   8   21.82   41.41 
   0  14   8   11.52   27.46 
   0  14   8  -30.72   38.26 
   4  -9   6 1060.63  155.31 
  -4   9  -6 1045.60  207.05 
   4   9   6  993.06  215.60 
  -1  16   6 3354.81  182.69 
  -1  16   6 3519.00  117.53 
   1 -16  -6 3587.18  139.15 
  -1 -16   6 3535.59  208.27 
  -2  10  10  117.62   62.34 
  -1  14   8  871.07   85.11 
   1  18  -2   21.62   18.43 
   2 -17   2  136.84   47.31 
  -2 -17  -2  126.39   53.90 
  -2  17  -2   98.48   60.55 
  -1 -18   2   36.69   19.71 
  -2 -10  10  177.26   50.37 
   3 -16  -1  261.13  139.52 
   1 -18  -2   33.35   32.20 
  -1  18   2   36.89   29.64 
  -1  14   8  862.77   62.46 
  -1  18   2   12.26    9.90 
  -3  16   1  410.76  116.03 
   1  18  -2   35.97   32.09 
  -2  17  -2  103.80   63.36 
   2  17   2  124.90   53.13 
  -1 -14   8  815.63  152.42 
  -3  16   1  376.03   88.68 
  -3 -16   1  417.06  123.27 
  -2 -10  10  199.35   76.81 
  -2  10  10  214.85   85.75 
  -5  -2   8   42.84   29.60 
  -3 -15  -3 2255.06  131.66 
   3 -15   3 2118.56   94.20 
  -5   2   8   34.48   30.65 
  -3  15  -3 2133.69   88.60 
  -3  15  -3 2187.97  110.83 
   3  15   3 2206.14  120.21 
  -5  -2   8   26.89   23.91 
  -5  10   3 1185.50   89.31 
   2 -17  -3  169.79   97.77 
  -2  17   3  235.45   75.72 
   6  -2  -1  432.20   78.69 
  -2 -17   3  235.93  117.41 
  -2  17   3  307.87  148.92 
  -5 -10   3 1226.91   86.64 
  -5  10   3 1236.19   74.66 
  -6   2   1  478.73  118.24 
  -6   2   1  441.39  158.03 
   6   2  -1  493.07   67.24 
  -6   2   2  145.09   65.65 
   6  -2  -2   91.56   60.74 
  -6   2   2  185.63   54.74 
  -3  -8  10  575.22  180.13 
  -6  -2   2   95.72   64.22 
   6   2  -2   80.79   65.58 
  -3   8  10  750.14   79.34 
  -3  -8  10  647.50   66.64 
  -3   8  10  698.21   41.40 
  -4  -3  10 1094.68   73.29 
  -4   3  10 1114.02   53.40 
  -4   3  10 1154.29   92.47 
  -4  -3  10  863.14   83.18 
  -6   0   0  689.25  105.38 
   6   0   0  617.15   91.47 
  -3 -13   7  640.09  183.34 
  -3  13   7  686.36   33.11 
  -3  13   7  727.78  143.71 
  -4  -9   8 2563.51  107.44 
  -4  -9   8 2486.41  163.23 
  -4   9   8 2664.64  124.62 
  -3  16   0 5752.66  229.46 
   4  -7   7  505.85  162.80 
   3  16   0 5846.79  232.77 
   3 -16   0 6384.64  144.58 
   4   7   7  524.62   40.67 
  -3  16   0 5562.87  239.07 
  -4   7  -7  493.37  190.96 
  -3 -16   0 5678.51  188.72 
   4   7   7  519.00  148.96 
  -6   0   3   -2.50   22.99 
  -6   1   0 1751.68  114.72 
  -6  -1   0 1612.37   81.05 
   6   1   0 1890.76   83.38 
   6  -1   0 1669.61  102.89 
   1   7  11 3658.64  139.85 
   1   7  11 3752.55  126.30 
   1  -7  11 3627.10  112.53 
   1  -7  11 3708.76  216.99 
  -3  14   6   13.99   16.72 
  -3 -14   6   14.79   38.51 
  -3  14   6    6.13   33.23 
  -3  14   6   21.41   27.66 
   6  -1  -3   10.79   18.35 
  -6   1   3   25.50   27.93 
  -6  -1   3   35.33   21.10 
   6   1  -3   22.84   17.08 
   3   0  10   24.00   20.93 
   2   3  11   92.61   68.08 
   2  -3  11   97.00   69.78 
   2  -3  11   67.55   47.90 
   2   3  11  107.86   65.69 
  -4  -7   9  160.92   73.91 
  -4  -7   9  166.78   72.66 
  -4   7   9  199.64   77.56 
   2  12   8 1030.21  108.35 
   2 -12   8 1075.71  119.63 
   2  12   8 1231.46  225.84 
  -2   3  12   47.72   23.01 
  -2  -3  12   25.18   29.38 
   3   1  10   25.10   22.59 
   3   1  10   24.68   24.78 
  -2   3  12   58.71   41.47 
   3  -1  10   21.52   19.42 
  -2  -3  12   41.72   27.42 
   5  -7   4  208.61  102.82 
   5   7   4  225.62   60.28 
  -3 -16   2  130.42   63.66 
  -3  16   2  147.65   61.93 
   3 -16  -2  130.41   51.09 
   5   7   4  315.83  150.30 
  -5   7  -4  210.76  133.60 
  -3  16   2  142.16   77.74 
  -1  11  10  668.14   65.16 
  -2  12   9    7.87   23.02 
  -2  12   9   28.41   25.34 
  -1 -11  10  604.65  188.14 
  -2 -12   9   22.73   24.48 
  -1  11  10  520.47   78.14 
   0 -18   3    9.68   28.86 
   0  18   3   13.21   28.83 
   0  18  -3   13.90   28.79 
   0  18   3   28.86   20.61 
   0 -18  -3   21.87   32.87 
   0  18  -3    5.28   40.27 
  -5   6   7   50.99   47.51 
  -5  -6   7   40.01   25.57 
  -1  -5  12   61.54   33.37 
  -1  -5  12   48.46   51.31 
  -5  -6   7   82.26   49.41 
  -1   5  12   66.98   33.79 
  -1   5  12   81.78   34.11 
  -5 -10  -1  162.53  128.56 
  -5  10  -1  183.69  126.59 
   5 -10   1  194.13   44.32 
  -5  10  -1  190.98   80.20 
  -1  18  -2  605.23   56.17 
   1  18   2  626.78   69.21 
  -1  18  -2  615.31  185.90 
   1  18   2  527.84   41.40 
   1 -18   2  621.27   88.39 
  -1 -18  -2  613.21  248.94 
   1 -10  10   42.03   38.63 
   1  10  10   22.84   20.19 
   1  10  10   62.27   40.87 
  -6   2   0  280.50   93.27 
  -6   2   0  162.20   71.55 
   6   2   0  271.80  111.56 
   6  -2   0  276.48   40.83 
   0 -17  -5 1046.71  159.46 
   0  17   5  903.43   77.25 
   1 -12   9  684.88   94.08 
   0 -17   5 1070.69   87.05 
   1  12   9  702.37   63.37 
   1  12   9  751.64  217.67 
   0  17   5 1038.76   88.37 
  -4  14   1 2212.75   96.00 
   5   5   5 2223.85   68.28 
  -4 -14   1 2190.24  200.37 
   6   2  -3  187.25   91.66 
  -5  -5  -5 2327.01   70.13 
  -5   5  -5 2333.32  105.12 
  -6   2   3  169.58   83.10 
  -6  -2   3  183.16   72.24 
  -4  14   1 2144.91  114.46 
   0  11  10 3877.46  150.43 
   0  11  10 3857.67  140.09 
   4 -14  -1 2226.34   77.44 
   5   5   5 2436.04  273.94 
   0 -11  10 3956.99  157.35 
   5  -5   5 2471.04  104.12 
  -3   5  11  457.80  151.43 
  -5  -3   8  155.79   59.65 
  -5   3   8  190.52   89.87 
  -3  -5  11  447.17  180.58 
  -5  -3   8  147.89   67.15 
  -3  -5  11  460.02  183.93 
  -3   5  11  455.79   38.87 
  -6   3   1  135.07   86.82 
   6   3  -1  133.17   79.05 
   1   0  12   18.75   21.03 
   6  -3  -1  103.36   68.10 
  -3  -7  -9 2751.23   66.26 
  -6   3   1  137.75   64.63 
   1   0  12   60.22   43.40 
   3  -7   9 2882.68  125.10 
   3   7   9 2579.81  129.34 
   3   7   9 2789.36   96.64 
  -6   3   2 1029.61   67.40 
   6   3  -2 1088.66   65.44 
  -6   3   2 1017.16   77.44 
   4   4   8  120.97   67.42 
   4  -4   8  183.97   49.37 
   4   4   8  155.15  112.57 
  -4   4  -8  174.21   58.59 
  -4  -4  -8  106.52   67.29 
  -5  -9   5  346.28  128.42 
   3   2  10   99.30   79.22 
   3   2  10  133.27   51.12 
  -3  12   8 1072.25   85.46 
   3  -2  10  163.15   59.79 
  -5   9   5  306.14  118.05 
  -5   9   5  298.90  150.21 
  -3 -12   8 1160.40  185.76 
   1  -1  12  100.69   42.79 
   1  -1  12   94.13   51.17 
   1   1  12  105.58   69.45 
   1   1  12   54.60   40.34 
  -3  16  -1   48.52   35.98 
   3 -16   1   25.92   28.91 
  -3  16  -1   36.87   52.39 
  -3 -16  -1   75.58   42.50 
   3  16   1   40.60   20.94 
  -4 -14   0  308.37   83.16 
  -4  14   0  182.62   88.06 
  -4  14   0  190.98  123.36 
   4 -14   0  190.00   77.49 
  -4  14   2  709.80   66.04 
  -4  14   2  694.37   68.33 
  -4 -14   2  653.37  240.09 
  -4  -4  10  526.57  268.33 
  -4   4  10  437.99  257.28 
  -4  -4  10  468.34  168.01 
   0   5  12  601.87   71.42 
   0  -5  12  599.47   84.42 
   2  -8  10   73.57   43.55 
   0   5  12  622.60  135.51 
   2   8  10   93.91   39.08 
   2   8  10   60.00   46.17 
   0  -5  12  606.62   66.43 
  -5  -8   6 1511.77  103.37 
  -5  -8   6 1534.14   85.53 
  -5   8   6 1437.25  115.86 
   4 -12   4 3658.02  126.49 
   4  12   4 3536.68  182.62 
   4  12   4 3639.20  138.91 
  -4  12  -4 3848.22  158.13 
   1 -17  -5  366.24  140.78 
  -2  -8  11  525.54   61.15 
  -2  -8  11  566.81  209.41 
  -1  17   5  463.65  179.19 
  -1 -17   5  451.72  157.04 
  -2   8  11  499.48   46.81 
  -2   8  11  608.24  169.98 
  -1  17   5  411.70  100.38 
   2  -4  11   72.08   49.31 
   2  -4  11   99.38   47.55 
   2   4  11   91.92   46.26 
   2   4  11   93.06   40.73 
   1   2  12  305.92   59.46 
  -6   0  -1   20.38   28.29 
   6   0   1    5.62   23.50 
   1  -2  12  335.67   96.89 
   1   2  12  270.12  142.48 
   1  -2  12  377.88  179.30 
  -3 -15   5   67.98   31.24 
  -6   3   0  125.68   73.14 
  -3  15   5   52.64   28.60 
  -6   3   0  208.19   95.31 
  -3  15   5   58.86   29.77 
   6  -3   0  157.61   30.17 
  -4  12   6   97.64   38.61 
   6   3   0  135.07   90.90 
  -3  15   5   73.13   52.10 
  -1   9  11 1206.56  105.69 
  -1  -9  11 1236.96  257.24 
  -1   9  11 1072.92   75.58 
  -4 -12   6  114.40   40.90 
  -1  -9  11 1306.04   94.48 
  -4  12   6   94.84   58.15 
  -1  13   9   15.05   18.67 
  -1 -13   9    3.08   29.17 
  -6   3   3  776.18   60.38 
   6   0  -4  771.28   45.10 
  -6   3   3 1005.86   85.75 
   5   0   6   48.07   39.23 
  -1 -18   3  519.58  219.88 
  -6   0   4  873.82  199.05 
  -1  18   3  436.90   53.84 
  -5   0  -6    9.73   20.43 
  -1  18   3  501.12  183.76 
  -6  -3   3  769.13   65.29 
   6   3  -3  695.07   85.50 
   1  18  -3  413.35   92.48 
   1 -18  -3  488.77   63.25 
   1  18  -3  539.58  169.88 
  -2  -4  12   20.80   36.36 
   4  11   5   24.49   35.41 
   4 -11   5   49.03   33.44 
  -2   4  12   15.44   18.07 
  -4  11  -5   40.87   33.47 
  -2  -4  12   15.71   36.18 
  -2   4  12   16.61   34.08 
   4  11   5   47.89   45.46 
   0  13   9 2995.78  120.07 
   0 -13   9 3133.22  131.53 
   0  13   9 3299.04  128.25 
  -5  10   4  332.44  138.31 
   6   1   1  185.16   64.43 
  -6  -1  -1  203.70   67.94 
  -5 -10   4  319.73  152.10 
   6  -1   1  189.66  115.14 
  -5  10   4  226.75  122.45 
  -6   1  -1  187.24   89.71 
   5   1   6   31.13   34.62 
   6   1  -4  879.04   49.49 
  -5   1  -6   72.87   31.00 
  -6  -1   4  912.37   72.06 
   5  -1   6   52.91   40.84 
  -6   1   4  811.99   68.09 
  -5  -1  -6   40.46   35.93 
  -3  16   3  554.53  198.20 
  -3  16   3  495.90  184.16 
   3   3  10  491.65  200.37 
  -3 -16   3  483.57  207.06 
   3   3  10  370.11   33.08 
   3  -3  10  530.88  139.54 
   3 -16  -3  383.24   48.50 
  -4  11   7 1347.92   97.57 
  -4 -11   7 1376.53  101.64 
   1  15   7  388.77  162.38 
   1  15   7  462.34  119.93 
   1 -15   7  413.96  200.22 
  -5  -4   8  340.61  134.75 
   0   9  11   94.44   53.24 
   0   9  11  104.53   46.08 
   0  -9  11   82.61   43.82 
  -5   4   8  398.58  160.10 
  -5  -4   8  298.59  109.91 
   0  -9  11   76.44   38.54 
   6   4  -1   18.09   20.64 
  -6   4   1    5.94   28.01 
  -6   4   1    3.30    9.77 
  -6   4   2  269.03  115.72 
  -6   4   2  237.19  117.51 
   6   4  -2  303.57   47.90 
  -1  16  -6  537.48  152.22 
   1  16   6  521.02  163.98 
  -1 -16  -6  436.02  260.03 
  -1  16  -6  441.63  143.08 
   1 -16   6  502.92  244.07 
  -2  17  -3   34.38   38.98 
  -6   2  -1   33.14   30.34 
   6  -2   1   10.03   16.67 
  -2 -17  -3   24.95   32.94 
  -6  -2  -1   12.65   17.82 
   3  14   5   91.07   69.41 
   6   2   1   17.28   16.73 
   2 -17   3   43.40   39.14 
   3 -14   5  140.41   65.36 
  -2  17  -3   18.07   21.57 
  -3  14  -5  169.08   70.78 
   2  17   3   -8.41   39.91 
  -3  14  -5   92.56   47.03 
  -4  13  -3  654.16   40.53 
   4 -13   3  619.96   59.52 
  -4  13  -3  779.20  196.95 
   4  13   3  796.05  196.46 
  -4 -13  -3  622.84   97.30 
  -2 -17   4  244.83  189.24 
  -2  17   4  225.14   89.69 
   2 -17  -4  219.07  109.43 
  -2  17   4  235.26   67.56 
  -4 -14  -1  172.24  107.59 
   4 -14   1  117.51   63.58 
  -4  14  -1  161.26   70.29 
  -4  14  -1  120.07   34.92 
  -5   2  -6   44.06   25.98 
  -6   2   4  334.86  144.19 
   5   2   6   29.75   28.98 
   5   9   3 1090.22  107.26 
   5  -2   6   26.22   22.78 
   5   9   3 1179.73  129.03 
   6   2  -4  344.25   53.90 
  -5  -2  -6   18.37   16.42 
  -5   9  -3 1229.11   88.96 
   5  -9   3 1086.74  135.37 
  -6  -2   4  405.63  137.90 
  -4 -14   3 4596.48  180.49 
  -4  14   3 4876.22  161.84 
  -5  11   1  986.07   88.24 
  -5 -11   1  939.50  311.18 
  -5  11   1  888.60   60.00 
  -4  14   3 4710.45  148.22 
  -4  13   5 1538.86  100.42 
   3  13   6  195.95  112.61 
   1  -3  12  231.82  119.02 
  -3  13  -6  167.15   76.66 
   1   3  12  269.63  104.29 
   1  -3  12  245.80   99.04 
  -4 -13   5 1551.84  100.74 
  -3  13  -6  132.27   71.82 
   3  13   6  235.27  118.00 
   1   3  12  259.91  163.81 
  -4  13   5 1528.37   97.74 
   3 -13   6  180.14   83.11 
  -4   5  -8 1772.98  113.61 
   3  10   8  171.79   77.18 
   4   5   8 1618.03   84.16 
   3  10   8  188.06   80.98 
   4   5   8 1566.93  105.42 
   4  -5   8 1615.92  121.88 
  -3  10  -8  199.90   73.23 
  -4  -5  -8 1701.80   58.93 
   3 -10   8  205.53   64.25 
  -1   6  12   53.09   41.58 
  -1  -6  12   65.13   36.23 
  -1   6  12   80.34   42.04 
  -1  -6  12   84.98   46.62 
  -5  11   2  736.61   74.26 
  -5 -11   2  742.26   85.02 
  -5  11   2  816.99  138.78 
   4   8   7   34.56   23.38 
  -5   6  -5  288.20  100.84 
   5   6   5  276.55   55.28 
  -4   8  -7   15.41   25.77 
   5   6   5  254.45  112.93 
   4   8   7   58.14   53.74 
   5  -6   5  309.93  130.28 
   4  -8   7   71.44   29.60 
  -3   6  11 1953.67   71.22 
  -3   6  11 2015.88  121.65 
  -3  -6  11 1879.72   97.82 
  -3  -6  11 2073.07  129.44 
  -3  16  -2  253.41   84.39 
   5 -10   2  819.45   51.79 
  -3 -16  -2  367.27  116.23 
   3 -16   2  273.85  117.66 
  -3  16  -2  334.33   76.74 
  -5  10  -2  876.39   76.14 
   3  16   2  337.70  116.08 
   1  18   3  220.85   82.17 
  -1  18  -3  276.13  108.28 
   6   4   0 2272.53   98.11 
   1 -18   3  231.95   74.78 
  -4   5  10 2051.13  117.44 
  -6   4   0 2089.92   70.87 
   2  15   6   70.34   36.39 
  -1  18  -3  225.01   76.47 
  -1 -18  -3  190.64  105.98 
  -4  -5  10 2275.36  131.63 
  -2  15  -6   94.89   43.79 
  -6   4   0 2318.18  112.67 
   2 -15   6   75.41   57.23 
   2  15   6   85.81   43.51 
   1  18   3  180.25   54.01 
  -4  -5  10 1928.18   90.03 
  -2  15  -6   83.08   45.63 
   6  -4   0 2256.50   75.17 
   1  -8  11   34.33   61.55 
   1   8  11   25.86   34.63 
   1   8  11   56.92   33.64 
  -5  -7   7 3084.59  116.01 
  -5  -7   7 2991.88  148.78 
  -5   7   7 2988.12  129.45 
  -6   4   3   43.42   40.19 
  -2  15   7  109.08   56.98 
  -6   4   3   21.08   29.15 
  -2  15   7  160.84   81.23 
  -2 -15   7  170.25   86.62 
  -6  -4   3   37.10   29.17 
  -3   9  10 1081.72   91.92 
  -3  -9  10 1340.36  349.88 
  -3   9  10 1043.33   46.34 
  -3  -9  10 1051.96   87.05 
  -5  11   0  213.99  108.10 
  -4  -8   9 1703.75   91.01 
  -4  -8   9 1967.67  133.13 
  -4   8   9 1879.06  123.63 
  -5 -11   0  257.11  108.09 
  -5  11   0  200.59   92.73 
   1  14   8  719.71  228.85 
   1  14   8  568.81   65.36 
   1 -14   8  926.61  280.98 
  -3  11   9  107.42   68.75 
  -3 -11   9   65.33   41.22 
  -5   8  -4  148.40  129.07 
   5   8   4  142.93   41.59 
   2   5  11   50.01   27.18 
   2  -5  11   27.68   15.72 
   2   5  11   18.63   30.13 
   4  10   6  926.57   83.67 
   5  -8   4  172.91   80.92 
   4  10   6  994.72   66.19 
   5   8   4  113.17   40.92 
   2  -5  11   76.17   73.84 
   3   4  10  237.87   46.87 
  -4  10  -6  994.12   77.07 
   4 -10   6 1035.22  246.95 
   3   4  10  240.62   69.58 
   3  -4  10  269.96   95.97 
   6  -3   1  285.68   85.43 
  -6   3  -1  322.92  142.90 
   6   3   1  377.83  116.01 
   0   6  12  489.17  224.70 
   0  -6  12  528.34  128.21 
   0  -6  12  500.59  192.21 
   0   6  12  492.53  130.98 
  -2  14  -7  284.94   92.30 
   3 -15   4 3140.24  172.29 
  -3 -15  -4 3418.39  162.61 
   2  14   7  359.93  110.51 
   2 -14   7  286.33  136.85 
   2  14   7  348.66   83.64 
  -2  14  -7  346.64  143.44 
  -3  15  -4 3075.86   90.37 
  -3  15  -4 3471.08  136.51 
   3  15   4 3126.84  133.40 
  -5   3  -6  839.74  247.68 
  -5  -3  -6  807.06   57.27 
   5  -3   6  856.93  105.91 
   5   3   6  893.32  127.39 
  -6  -3   4   78.62   51.75 
  -6   3   4   76.39   61.26 
  -6  -3   4   84.80   53.93 
  -2  -5  12  153.11   65.32 
  -2   5  12  188.69   92.53 
  -2   5  12  170.50   81.34 
  -2  -5  12  212.44  101.05 
   0  18   4  263.34  122.32 
   0  18  -4  213.30  121.04 
   0 -18  -4  219.41  128.17 
   0  18   4  163.73   94.12 
  -4  10   8  419.48  167.63 
  -2  14   8  362.71   54.12 
  -2 -14   8  450.78  181.02 
   0 -18   4  239.07  105.60 
   0  18  -4  253.03  146.36 
  -2  14   8  397.70  141.04 
  -4 -10   8  339.51  139.04 
  -1  17  -5   26.65   41.23 
  -1  17  -5   32.32   35.51 
  -1 -17  -5   27.37   50.86 
   1 -17   5   17.92   26.67 
   1  17   5   41.94   34.57 
   2 -11   9 2123.37  168.92 
   2  11   9 2033.77  123.39 
   2  11   9 2000.06  109.05 
   3   8   9  420.97   94.84 
   3  -8   9  453.89  196.86 
   3   8   9  446.71  191.78 
   2  16   5  381.43  136.63 
  -2 -16  -5  301.41  119.87 
  -2  16  -5  318.68  127.07 
   2 -16   5  341.65  126.85 
  -2  16  -5  320.99   88.63 
   0  19   0   56.45   35.82 
   0 -19   0   55.12   47.26 
   0  19   0   86.47   85.29 
  -2  11  10  601.15  176.56 
  -2 -11  10  499.51  213.19 
  -2  11  10  400.46   37.41 
  -5 -11   3   28.13   31.51 
  -5  11   3  -16.85   39.20 
  -2  16   6  106.43   67.76 
  -2  16   6   74.48   77.95 
  -5  -5   8 1291.61   71.74 
  -5   5   8 1175.96  147.79 
  -5  11   3   37.80   15.86 
  -5  -5   8 1303.04  110.96 
  -2  16   6  155.83   66.73 
  -2 -16   6  172.95  110.76 
   6   5  -1 1775.61   91.95 
  -6   5   1 1810.04  103.08 
  -6   5   1 1761.48   75.25 
  -6   5   2 1482.77  129.20 
   1  -4  12  316.76  155.46 
   1   4  12  300.15   48.65 
   1   4  12  356.98  145.48 
   1  -4  12  290.93   43.82 
  -6   5   2 1584.79   75.95 
   2  18  -1  745.89   71.49 
   2  18   0  171.52   89.59 
  -2  18   1  703.99   67.94 
  -2  18   1  753.95   69.00 
   2 -18  -1  812.27  134.56 
  -2 -18   1  687.89  112.88 
  -2  18   0  179.16   87.66 
   2  18   0  158.81   45.78 
  -2  18   0  173.63   69.92 
  -2 -18   0  255.86   89.77 
   2  18  -1  676.34   59.59 
   2 -18   0  139.60   92.66 
  -3  12  -7   48.06   35.51 
   3  12   7   75.47   47.95 
   3 -12   7   63.97   38.55 
   3  12   7   48.83   45.95 
  -6   0  -2 1342.43   74.41 
   6   0   2 1425.78   81.53 
   0 -19   1 1306.30   98.60 
   0 -19  -1 1318.99  176.80 
   0  19   1 1254.71   90.98 
   0  19   1 1205.32   66.93 
   0  19  -1 1353.77   75.97 
   0  19  -1 1248.15   99.91 
   3 -16  -4   63.94   41.29 
  -3 -16   4   63.32   57.33 
  -3  16   4  138.95   76.82 
  -3  16   4   80.58   35.92 
  -6   0   5   78.85   51.87 
  -6   1  -2  348.53  136.71 
   6  -1   2  420.55   67.66 
  -6  -1  -2  350.63  141.06 
   6   1   2  433.19  158.29 
  -1  18   4  267.53  104.58 
  -1  18   4  177.52  148.21 
  -1 -18   4  245.11  123.75 
   1 -18  -4  178.55  104.11 
  -6  -1   5  252.06  116.31 
   2   9  10  971.82   89.58 
   2   9  10  994.43  209.87 
   2  -9  10 1113.95  186.40 
  -6   1   5  233.55  104.61 
  -4  14  -2  208.82  101.41 
  -4 -14  -2  338.01  126.13 
   4  14   2  292.04  114.77 
  -4  14  -2  245.08  115.22 
   4 -14   2  276.19   54.52 
  -5 -11  -1   44.52   24.90 
  -5  10   5   14.10   27.26 
  -5  11  -1   36.98   22.41 
  -5 -10   5   36.90   19.49 
  -5  10   5   26.47   21.74 
  -5  11  -1   32.01   38.88 
   5 -11   1   34.20   28.66 
  -5  -9   6 2371.31  148.02 
  -5   9   6 2457.44  232.91 
   6   4   1  144.48   84.68 
  -4  14   4  510.08  215.81 
   1  11  10   11.37   23.99 
   1 -11  10   10.42   18.88 
   1  11  10   33.40   59.89 
  -6   4  -1  163.94   63.18 
  -4 -14   4  445.31  194.01 
  -4  14   4  423.46  173.77 
   6  -4   1  121.90   76.14 
   6   5   0    0.66   18.92 
  -6   5   0    8.70   11.70 
   0  16   7  441.03  216.95 
   0 -16   7  578.39  228.08 
   0  16   7  477.40   90.22 
  -6   5   0    8.05   19.72 
  -2   9  11  487.83  161.58 
  -2  -9  11  451.68  176.49 
  -2   9  11  418.45   40.58 
  -2  -9  11  519.98  114.70 
  -2 -18  -1   53.01   35.34 
   4  -6   8  212.18  111.56 
  -4   6  -8  264.79  130.66 
   2 -18   1   58.72   35.79 
   4   6   8  215.48   79.69 
   2  18   1  102.30   27.06 
  -6   5   3  253.54  123.57 
  -2  18  -1   52.31   40.74 
   4   6   8  154.95   93.50 
  -2  18  -1   67.03   37.61 
  -6  -5   3  285.15  136.46 
  -6   5   3  312.36  137.06 
   2  18  -2   54.22   24.94 
  -6  -4   4 1276.22   68.41 
  -5  -4  -6   14.52   22.08 
   2 -18  -2   64.42   49.06 
  -6   4   4 1222.81   76.29 
  -6  -4   4 1209.05   79.84 
  -2 -18   2   55.20   81.46 
   5   4   6   32.70   39.62 
   5  -4   6   28.44   19.84 
  -5   4  -6   13.65   22.15 
  -2  18   2   49.72   22.12 
  -2  18   2   39.48   16.81 
  -1  12  10 1862.58  108.89 
  -1 -12  10 1834.30  112.47 
  -1  12  10 1675.93   92.15 
   6  -2   2 1671.38  109.12 
   6   2   2 1583.92   87.96 
  -6  -2  -2 1560.54   76.89 
  -6   2  -2 1616.44   87.94 
   3  -5  10   11.93   30.55 
   3   5  10    9.31   32.90 
   3   5  10   33.92   36.49 
  -1 -16   7   84.08   55.41 
  -1  16   7   75.81   40.54 
  -1  16   7   85.39   45.03 
   2  13   8   61.84   32.36 
  -4  -6  10   19.35   48.59 
  -2  13  -8    8.22   10.02 
   2  13   8   35.06   54.82 
  -4   6  10   13.46   42.46 
   2 -13   8   12.57   41.65 
  -4  -6  10   20.54   21.08 
  -6  -2   5   21.73   25.58 
  -6  -2   5    6.69    9.88 
  -6   2   5   17.23   32.08 
  -3  14   7  798.79   82.42 
  -3 -14   7  807.64   74.11 
  -1   7  12   48.49   34.54 
   0  12  10 2758.46  122.93 
  -1   7  12   29.95   30.55 
   0 -12  10 2743.88  135.19 
  -1  -7  12   39.32   32.11 
  -1  -7  12   50.55   31.42 
   0  12  10 2888.36  200.46 
   0  15   8  178.60   62.48 
   0  15   8  163.47   81.32 
   0 -15   8  182.59   46.17 
  -1 -10  11  269.90  162.44 
  -3   0  12   19.87   30.53 
  -2  13   9  350.57   69.12 
  -2  13   9  411.37   58.43 
  -1  10  11  283.60   99.79 
  -1  10  11  266.27  106.32 
  -2 -13   9  441.09  133.98 
  -3   0  12   14.73   17.01 
  -1 -10  11  218.30   94.60 
  -5   0   9 1919.08  115.49 
   5   7   5  444.35  262.41 
   5  -7   5  412.23   54.66 
  -1  15   8   29.07   21.05 
  -1 -15   8   48.75   41.59 
  -1  15   8   31.31   27.59 
  -5   7  -5  506.02  199.96 
   5   7   5  464.58   40.75 
  -3   7  11  581.84   65.80 
   2   6  11   15.23   19.52 
   2   6  11   10.39   22.43 
  -3  -7  11  554.52   59.00 
   2  -6  11   16.80   23.61 
  -3  -7  11  548.90  253.76 
  -3   7  11  561.27   39.40 
  -3  -1  12  232.05   97.35 
  -3   1  12  211.29   96.22 
  -3   1  12  193.16  105.67 
  -3  -1  12  172.39   85.07 
   0 -17  -6   10.96   22.48 
   0 -17   6   44.00   58.53 
   0  17   6   69.34   42.97 
   0 -19  -2   26.04   32.56 
   1 -13   9   28.36   28.56 
   0  19  -2    2.10   19.79 
   0  19  -2    9.23   15.11 
   0 -19   2   20.65   29.66 
  -5  -1   9  699.21   59.10 
  -5   1   9  887.98  286.46 
   1  13   9   23.52   29.41 
  -5  -1   9  797.94  249.06 
   0  19   2   -0.80   32.83 
   1  13   9   28.51   40.06 
   0  19   2    9.98   19.62 
   1  19   0 1124.38   70.91 
  -2   6  12  285.97  139.37 
  -2   6  12  262.66  126.31 
  -2  -6  12  286.86   77.80 
  -1 -19   0 1034.89   91.34 
   1 -19   0 1127.58  101.56 
  -2  -6  12  332.18  149.05 
  -1  19   0 1140.56  131.53 
   1  19   0 1077.66   81.14 
  -1  19   0 1059.53  118.83 
   1   5  12  418.48  116.81 
   1  -5  12  424.48  226.94 
   1   5  12  408.58  195.25 
   1  -5  12  309.51  147.15 
  -3  15   6 2435.62  117.55 
  -3  15   6 2505.01  142.17 
  -3 -15   6 2480.74  132.51 
  -3 -16  -3 1238.98  135.23 
   3  16   3 1173.35   88.72 
  -3  16  -3 1086.52   83.98 
  -3  16  -3 1143.41   83.87 
   3 -16   3 1213.28   78.18 
  -3 -13   8  660.51   78.79 
  -2  17  -4  336.49  175.27 
   2 -17   4  286.77  109.43 
   0  10  11  669.39   97.03 
  -2 -17  -4  299.78  144.04 
  -3  13   8  616.18   69.59 
  -2  17  -4  231.79   97.65 
   0  10  11  564.50  196.44 
   2  17   4  335.79  124.31 
   0 -10  11  557.13   69.45 
  -1 -19   1  124.92   90.22 
  -1  19   1  148.30   61.89 
  -5  11   4    8.27   15.39 
  -5 -11   4    9.25   33.49 
   1  19  -1  125.47   73.06 
   1 -19  -1  153.03   73.12 
  -5  11   4   -2.78   35.92 
   1  19  -1  122.03   61.55 
  -1  19   1  106.85   53.94 
   0  -7  12   49.09   68.31 
  -6  -3  -2 1026.33  108.28 
  -6   3  -2  902.88  129.07 
   6  -3   2 1013.90  111.76 
   0   7  12   30.12   34.09 
   6   3   2 1048.19  266.52 
  -2  17   5   59.63   28.11 
   2 -17  -5   33.41   42.35 
  -2  17   5   56.03   46.10 
  -2 -17   5   28.86   33.13 
   0  -7  12   43.68   36.59 
   0   7  12   30.68   28.35 
  -5  -8   7 2001.36  118.40 
  -5   8   7 1898.72  127.11 
  -5  -8   7 1839.86  165.21 
  -5   6   8   16.58   19.92 
  -5  -6   8   16.23   28.28 
  -5  -6   8    8.15   23.74 
  -6   6   1  600.54   67.39 
   6   6  -1  506.02   80.35 
  -6   6   1  564.49   95.85 
  -3  -2  12  656.56  184.79 
  -4   0  -9    7.23   17.55 
  -3   2  12  534.50  103.95 
   1 -17  -6  167.66   92.27 
  -1  17   6  247.71  138.11 
  -3   2  12  645.67   49.90 
  -3  -2  12  579.44  142.28 
  -1 -17   6  233.63  135.38 
  -6   6   2  661.52   60.21 
  -6  -6   2  693.54  102.91 
  -1  17   6  156.87  106.82 
   4   0   9   11.65   19.90 
  -6   6   2  545.17  109.69 
  -6  -3   5  802.62  246.63 
  -5   2   9 1221.51   99.90 
  -6  -3   5  687.94   90.76 
  -5  -2   9 1128.75   68.42 
  -6   3   5  711.39  183.71 
  -5  -2   9 1063.18   97.77 
   4   9   7   72.14   67.03 
  -3 -17   1  179.32  176.27 
   3 -17  -1  117.84   91.17 
   4  -9   7  139.21   89.28 
  -4   9  -7  129.45   60.70 
  -3  17   1  168.43   84.10 
  -3  17   1  152.49   82.89 
   4   9   7   99.94   86.00 
  -5  10  -3  858.82   75.28 
   5 -10   3  813.60   55.91 
   5  10   3  957.26  106.99 
   5  10   3  845.88  201.37 
  -4  12  -5 2947.31  171.84 
   4 -12   5 2790.53  140.18 
   4  12   5 2773.55  148.51 
   4  12   5 2487.03  162.65 
   1  19   1  621.28  258.04 
  -1  19  -1  438.96   51.06 
  -1 -19  -1  432.36  256.20 
   1  18   4  937.11  107.03 
  -4   1  -9   25.26   17.13 
   1 -18   4  897.15   76.97 
   4   1   9   59.05   54.81 
  -1  18  -4  861.21  236.08 
   1 -19   1  445.04  189.80 
   4  -1   9   32.25   38.38 
  -1  18  -4  904.29   79.39 
  -1  19  -1  573.09  154.38 
   1  19   1  362.70  103.83 
  -4  -1  -9   31.17   34.90 
  -1 -18  -4  873.47  141.66 
   4  13   4  637.22  210.83 
   4 -13   4  670.04   81.70 
  -4  13  -4  789.62  276.22 
   1   9  11 1537.44  105.94 
   1   9  11 1538.14  167.81 
   1  -9  11 1641.59  121.06 
  -1   0  13 2953.29  160.60 
  -1   0  13 2648.09  140.84 
  -3 -17   0  737.24   77.57 
  -3  17   0  851.54  184.87 
   3 -17   0  842.67  109.94 
  -3  17   0  962.71   89.29 
   3  17   0  823.67   73.85 
  -4  15   1  229.86  118.30 
  -4 -15   1  212.88   74.05 
  -4  15   1  260.62   94.47 
  -4   0  11   -5.80   19.98 
  -4   0  11   26.18   48.39 
  -4  12   7  308.97  149.03 
   6  -5   1   74.64   60.46 
  -4  -9   9  732.96  211.92 
   6   5   1  116.35   39.46 
  -6   5  -1  130.83   61.61 
  -4 -12   7  231.83  151.95 
  -4  -9   9  605.23   66.71 
  -4   9   9  687.52  261.06 
  -4  13   6   40.84   22.39 
  -4  13   6   27.64   23.31 
  -4 -13   6   28.09   16.66 
  -1   1  13   12.54   17.13 
  -1  -1  13   32.44   33.97 
  -2 -18  -2   39.13   33.67 
  -1  -1  13   17.11   19.60 
  -1   1  13   20.97   26.60 
  -2  18  -2   52.00   45.20 
   2 -18   2   15.23   29.78 
  -2  18  -2   15.42   18.16 
   2  18   2    9.97   23.03 
  -2 -18   3   31.09   32.77 
  -2  18   3   22.42   30.50 
   5   5   6 1006.47  314.09 
   2 -18  -3   10.92   25.97 
   5  -5   6  924.24  265.36 
  -2  18   3   23.68   23.40 
  -6  -5   4 1656.04  119.71 
  -5   5  -6  891.53  133.06 
  -6   5   4 1744.62  118.49 
  -6   5   4 2075.02  130.46 
  -6  -5   4 1851.70  104.81 
  -5   9  -4   91.40   57.25 
  -4  -1  11  208.47   89.14 
   5   9   4   96.91   54.39 
   5  -9   4   95.29   71.20 
   5   9   4   84.80   69.77 
  -4   1  11  121.59   70.50 
  -4   1  11  150.01   69.10 
  -4  -1  11  149.69   75.92 
  -3  11  -8  262.37  104.80 
   3  11   8  229.53  123.70 
   3 -11   8  250.06   99.97 
   3  11   8  268.35  107.14 
   4 -15   0  169.64   81.67 
  -4  15   0  161.06   77.55 
  -4 -15   0  234.83  120.43 
  -4  15   0  215.20  135.80 
   3 -17  -2  655.32   89.12 
  -3  10  10  413.66  212.47 
  -3 -10  10  389.34  115.93 
  -3 -10  10  406.95  150.64 
  -3  17   2  683.23  238.75 
  -3  17   2  680.70  200.59 
  -3 -17   2  780.84  285.59 
  -4  -2  -9  609.89   66.18 
  -4  15   2   14.03   31.88 
  -4  15   2   11.30   22.38 
   4   2   9  658.78  254.67 
   4  -2   9  599.17  147.67 
  -4 -15   2   13.32   27.65 
  -4   2  -9  578.65   59.84 
   6   6   0  739.75   69.80 
  -6   6   0  919.54  117.29 
  -6   6   0  734.92   45.12 
   1  19  -2   46.77   41.22 
   1  19  -2  120.12   59.91 
   1 -19  -2   87.99   69.32 
  -1  19   2   92.61   59.45 
  -1  14   9 1279.09   89.67 
  -6   6   3  411.45   55.19 
  -1 -14   9 1341.42  263.04 
  -6   6   3  447.29  204.35 
  -6  -6   3  331.59  190.81 
  -1  19   2  140.63   68.63 
  -1 -19   2  100.61  110.92 
  -1  14   9 1384.42  155.01 
  -5  12   1  279.46  117.72 
  -5 -12   1  287.34  205.53 
  -5  12   1  308.22  146.44 
   0  14   9  486.73  229.59 
  -3   9  -9 2621.46  151.48 
   3   9   9 2480.66  137.20 
   0 -14   9  456.70  185.34 
   5 -11   2  107.67   88.98 
  -5  11  -2  218.72   74.64 
   0  14   9  429.47  192.38 
  -5 -11  -2  125.29   99.79 
   3   9   9 2501.99  175.75 
   3  -9   9 2590.75  146.59 
  -3  -3  12  611.61   95.17 
  -3   3  12  682.30   59.49 
  -3   3  12  629.54  258.50 
  -3  -3  12  676.08   60.03 
  -5   3   9   30.85   29.19 
  -5  -3   9   39.54   54.86 
  -5  -3   9   23.08   21.48 
  -1  -2  13 2363.39  144.75 
  -1  -2  13 2523.86  144.75 
  -1   2  13 2570.50  140.32 
  -1   2  13 2487.86  145.50 
   3   6  10  268.45  123.15 
   3  -6  10  251.85  140.27 
   3   6  10  270.90   50.96 
  -4   2  11 1155.49  102.40 
  -4  -2  11 1165.48   97.88 
  -4  -2  11 1223.04  105.54 
  -4   2  11 1163.23   67.35 
  -5 -12   2 2751.63  159.53 
  -5  12   2 2467.64  150.33 
  -5  12   2 2614.90  133.99 
  -6   4  -2 3123.45  164.21 
   6  -4   2 2901.54  135.40 
   6   4   2 3017.67  161.30 
   0   0  13   27.81   21.91 
  -4   7  -8 1867.80  119.25 
   4   7   8 2017.67   99.77 
   0   0  13   31.87   20.09 
   4   7   8 2084.01  191.60 
   4  -7   8 2068.97  153.88 
  -3 -17  -1   68.35   49.73 
   4  11   6  279.26  106.75 
   4  11   6  177.07  100.85 
   3 -17   1   27.01   24.49 
   3  17   1   47.30   26.65 
  -4  11  -6  274.89  112.99 
  -3  17  -1   42.58   23.30 
  -3  17  -1   87.15   48.45 
   4 -11   6  292.24  146.42 
   0  18   5 4355.67  208.00 
   0  -1  13   77.31   63.93 
   0   1  13   34.90   22.51 
   0 -18  -5 4395.89  321.11 
  -6  -4   5   92.25   39.84 
   0  18  -5 4308.90  209.16 
   0 -18   5 4552.36  177.49 
   0   1  13   12.53   20.66 
   0  18   5 4412.26  229.87 
  -6  -4   5  134.97   65.15 
   0  18  -5 4847.67  160.47 
  -6   4   5   91.74   60.35 
   0  -1  13   17.76   42.90 
  -5  12   0  735.48   99.18 
  -5 -12   0  681.79  274.58 
  -5  12   0  613.81   46.27 
  -4 -14  -3  755.48  238.93 
  -3  16   5   20.68   38.04 
  -3  16   5   44.76   29.35 
   6   0   3   19.79   22.28 
  -6   0  -3    7.02   29.19 
  -4 -11   8  373.39  157.11 
   4 -14   3  732.56   73.56 
  -4  14  -3  742.27   46.08 
  -4  -7  10 1740.95  411.22 
   4  14   3  963.18  197.55 
  -4  -7  10 1638.26  139.56 
  -4  14  -3  807.08  239.30 
  -3 -16   5  -10.10   38.81 
  -4   7  10 1650.55  123.73 
  -4  11   8  359.92  126.61 
   0  19   3 1280.29   82.36 
   0  19   3 1208.94  107.07 
  -3  12   9   67.16   54.84 
  -3 -12   9   56.84   30.78 
   0 -19   3 1364.74  114.43 
   0  19  -3 1361.57   94.20 
   0 -19  -3 1322.60  102.74 
   0  19  -3 1227.70   95.87 
  -4 -14   5   83.81   75.08 
  -1  19  -2  285.21  114.31 
  -4  14   5   62.77   75.08 
  -4  14   5  173.73  101.42 
   1  19   2  309.70  114.79 
   1 -19   2  275.98  146.60 
  -1 -19  -2  253.10  179.05 
  -1  19  -2  244.60   72.96 
   1  19   2  162.56  100.09 
  -4  -3  -9 1182.36   73.22 
   1  -6  12   46.50   39.17 
  -4   3  -9 1179.60  102.25 
   1   6  12   53.19   52.42 
   4   3   9 1263.48  215.15 
   4  -3   9 1193.98  133.02 
  -3  14  -6   35.02   21.96 
   1   6  12   48.48   46.48 
   1  -6  12   75.15   43.24 
   3  14   6   36.82   50.21 
   3  14   6   72.73   42.16 
  -3  14  -6   70.91   56.41 
   3 -14   6   33.90   20.56 
  -6   1  -3  200.97   72.75 
   6  -1   3  130.77   90.37 
   6   1   3  191.80   97.05 
  -6  -1  -3  136.65   67.55 
  -6   0   6 1015.43   95.92 
   2   7  11   15.36   21.00 
   2  -7  11   40.32   21.10 
   2   7  11   21.87   23.71 
  -3  15  -5   10.20   18.17 
   3  15   5  -10.77   32.29 
   3 -15   5   -2.90   29.45 
  -3 -15  -5    3.69   22.11 
   4 -15   1 2229.93  117.69 
  -6   1   6  477.37  224.57 
   4  15   1 2352.99  146.29 
  -6  -1   6  458.24   58.51 
   1 -16   7  419.80   60.67 
  -4  15  -1 2142.48  130.48 
   1  16   7  497.15  129.43 
  -4 -15  -1 2333.89  161.74 
   0   2  13   36.13   31.99 
   0  -2  13   10.33   17.26 
  -4  15  -1 2354.85  119.37 
   0   2  13   -0.64   30.39 
   1  16   7  334.92  161.09 
   0  -2  13   34.22   27.65 
  -1  -3  13 1592.09  139.51 
  -1  -8  12   93.74   43.06 
  -1  -8  12  145.51   60.85 
  -1   8  12  139.99   93.90 
  -1   8  12  100.02   48.72 
  -1  -3  13 1484.79  103.42 
   2  12   9  446.02  210.76 
   2 -12   9  487.60  208.36 
  -1   3  13 1395.99   93.59 
   2  12   9  387.17  169.34 
  -1   3  13 1726.34  317.45 
  -4  15   3  214.72  104.89 
  -4 -15   3  178.92   68.90 
  -4  15   3  149.97   76.09 
  -4  -3  11  251.87  137.91 
  -2  -7  12 1782.56  365.11 
  -4  -3  11  320.63  143.81 
  -4   3  11  332.33  195.17 
  -2   7  12 1638.15  125.72 
  -2  -7  12 1580.83  111.31 
  -2   7  12 1632.57   96.20 
  -1  18   5  350.32  158.04 
  -1 -18   5  459.35  159.04 
  -1  18   5  356.08  153.05 
   1 -18  -5  322.68  135.52 
   2  10  10   15.66   36.76 
   2  10  10   18.77   25.37 
   2 -10  10   21.77   26.31 
  -2 -12  10  376.17  199.13 
  -5   8  -5  593.17  184.21 
   5   8   5  581.87  220.46 
  -2  12  10  342.25   46.08 
  -2  12  10  392.14  157.35 
   5   8   5  419.11  149.15 
   5  -8   5  395.17  140.89 
  -5 -10   6   78.97   44.75 
  -5  12   3  297.24  155.44 
  -3  17   3  209.17  133.21 
   3 -17  -3  167.83  118.42 
  -3   8  11   -3.85   12.27 
  -5 -12   3  315.42  170.90 
  -5  12   3  287.33   94.16 
  -3  17   3  260.75  139.50 
  -3 -17   3  208.63  114.30 
  -3   8  11   15.85   39.89 
  -5  10   6   66.52   57.42 
  -3  -8  11   -2.19   31.89 
  -5  10   6   48.23   40.66 
  -3  -8  11   -1.31   41.45 
  -3   4  12   55.55   32.63 
  -3  -4  12   74.98   40.26 
  -3  -4  12   83.60   50.56 
  -3   4  12   79.39   48.10 
  -6   2  -3  290.88  122.40 
   6   2   3  252.50   84.82 
   6  -2   3  210.68  126.77 
  -6  -2  -3  205.26  107.52 
  -5   0  -7  252.97   91.19 
   5   0   7  239.74  175.44 
  -5   4   9 1906.28  131.88 
  -5  -4   9 1826.90  113.44 
  -5  -4   9 1645.05  155.18 
  -2  10  11  786.45   93.16 
  -2  10  11  889.72   76.51 
  -2 -10  11  884.81  136.06 
  -2 -10  11  899.46  117.37 
  -5  -7   8 2819.04  190.62 
  -5  -7   8 2934.81  149.38 
  -5   7   8 2956.94  167.55 
  -6   7   1  712.19  110.31 
  -6  -7   1  670.15   97.29 
  -6   7   1  758.24   77.61 
   6  -6   1  950.75   55.29 
  -6  -7   2  188.43  117.55 
  -6   7   2  259.97  157.46 
   6   6   1 1049.88   88.80 
  -6   7   2  236.90  116.98 
  -6   6  -1 1077.57   91.63 
   1 -17   6 2162.95  134.45 
  -1  17  -6 2806.34  164.46 
  -1 -17  -6 2469.71  174.44 
  -1  17  -6 2423.17  132.46 
   1  17   6 2289.77  138.04 
  -5   1  -7  138.14   60.82 
   5  -1   7  137.67   85.63 
   5   1   7  187.56  122.31 
  -5  -1  -7  145.57   70.30 
  -6  -2   6  392.11  147.58 
  -6   2   6  341.63  173.86 
   5   6   6 2163.61  107.62 
   5  -6   6 2131.24  148.13 
  -5 -11   5  231.69  126.81 
  -5  11   5  200.13   78.08 
   5   6   6 2483.88  161.76 
  -6   6   4  252.88  109.69 
  -6  -6   4  207.49   83.30 
  -5   6  -6 2385.85  165.46 
  -5  11   5  255.02  134.37 
  -6   6   4  199.96   93.43 
   1 -15   8   60.54   31.34 
   1  15   8   -6.31   40.01 
   1  15   8   35.28   34.51 
   0   8  12 2657.29  150.41 
   0  -8  12 2509.12  168.58 
   0  -8  12 2799.21  160.76 
   0   8  12 2487.70  142.47 
  -3  13  -7  246.12  110.52 
   2   0  12  894.51   59.87 
   3  13   7  189.76   97.44 
   3 -13   7  240.09   97.08 
   2   0  12 1058.44   93.42 
   3  13   7  314.12  187.54 
  -1 -19   3   87.43   46.76 
   1  19  -3  109.87   60.04 
  -1  19   3   45.41   39.08 
   1  19  -3   67.09   50.58 
   1 -19  -3  123.43   61.55 
  -1  19   3  115.81   35.22 
   2 -16   6   26.63   24.04 
   2  16   6    5.93   23.53 
  -2  16  -6    9.49   28.29 
  -2  16  -6   12.05   15.00 
   2  16   6  -14.60   35.27 
   2 -15   7   48.22   52.32 
   0   3  13  121.82   61.93 
   0  -3  13   86.05   77.99 
  -6   5  -2 1666.84  222.81 
   6  -5   2 1610.58   89.33 
  -2  15  -7   26.84   35.13 
  -2  15  -7   35.75   23.96 
   2  15   7   71.14   47.93 
   0   3  13  104.61   64.50 
   0  -3  13  165.57  112.46 
   6   5   2 1527.65  125.27 
   2  15   7   43.59   29.74 
   2  -1  12 1947.71  103.41 
   2   1  12 2177.32  144.20 
   2   1  12 2011.76  143.23 
   2  -1  12 2178.69  160.10 
  -2   0  13   12.54   10.54 
  -5  12  -1 1534.55  164.14 
  -5 -12  -1 1434.43  110.94 
   5 -12   1 1281.13   76.64 
  -2  16   7   24.45   43.45 
  -2   0  13    8.66   23.18 
  -2 -16   7   14.76   39.14 
  -2  16   7   16.88   22.88 
  -5  12  -1 1377.31  101.96 
   2 -18   3 1229.14   94.99 
  -2 -18  -3 1303.41  110.82 
   2  18   3 1208.29   98.60 
  -2  18  -3 1208.76   89.10 
  -2  18  -3 1222.68   96.91 
  -4   4  -9  556.40  196.82 
  -2  15   8   58.56   48.68 
   4  -4   9  690.85  256.08 
   1  12  10  202.52   62.06 
   1 -12  10  249.83  119.40 
   4   4   9  610.85  262.14 
   1  12  10  182.13  125.48 
  -4  -4  -9  566.29   43.80 
  -2 -15   8   84.87   39.57 
  -2  15   8   67.51   48.22 
   2 -18  -4  107.52   68.55 
  -6  -5   5   13.83   17.60 
  -6  -5   5   58.11   52.84 
  -6   5   5   34.45   19.50 
  -2 -18   4  183.08   70.08 
  -2  18   4  156.47   72.31 
  -2  18   4  104.62   62.31 
   5  -2   7   93.85   41.67 
  -5  -2  -7   53.55   50.21 
  -5   9   7 1938.82  129.53 
   5   2   7   87.79   52.38 
  -5  -9   7 1976.58  121.60 
  -5   2  -7  114.06   52.22 
  -2   1  13   78.57   60.96 
  -2  -1  13   65.36   42.04 
  -2  -1  13   82.27   50.57 
  -2   1  13   66.42   43.95 
   3 -17   2   25.23   13.36 
   6   7   0  179.66  122.56 
  -3 -17  -2   14.24   33.75 
  -6   7   0  237.84  153.12 
  -3  17  -2   17.78   24.80 
   6   3   3   38.54   20.28 
   3  17   2   16.71   34.94 
  -3  17  -2   51.10   38.09 
  -6   3  -3    8.99   17.29 
  -1  11  11 1281.83   96.15 
  -6  -3  -3   16.60   22.68 
  -1 -11  11 1465.11  112.46 
  -1  11  11 1415.07  310.64 
   6  -3   3   19.01   27.63 
  -6   7   3  831.39   99.91 
  -3  16  -4   18.28   16.43 
  -6   7   3  690.21   66.79 
  -1   4  13   67.63   36.78 
  -1  -4  13   41.15   26.39 
   3  16   4   33.58   31.70 
  -1   4  13   41.10   39.21 
   3 -16   4   21.21   30.82 
  -3  16  -4   31.97   29.20 
  -3 -16  -4   35.72   44.98 
  -6  -7   3  650.33  163.47 
  -1  -4  13   27.83   37.78 
  -4  -4  11  203.81  170.41 
  -4  -4  11  251.24  119.47 
  -4   4  11  196.03  165.24 
  -6   3   6  245.94  128.33 
  -6  -3   6  253.47   73.62 
  -6  -3   6  183.51  107.78 
   2   2  12 1030.78   92.01 
   2  -2  12  932.99   63.32 
   2   2  12 1044.58   74.21 
   2  -2  12  991.59  141.49 
   3  -7  10  312.69  174.56 
   3   7  10  250.27  149.80 
   3   7  10  302.87  140.43 
  -1 -13  10  540.67  252.46 
  -1  13  10  537.61   95.11 
  -1  13  10  477.95   58.54 
  -4  10  -7 1270.00  134.39 
   4  10   7 1169.74   99.36 
   4  10   7 1210.88  135.41 
   4 -10   7 1189.68   97.59 
   0  11  11 1572.49  274.20 
  -2  -2  13  102.16   57.84 
   0  11  11 1227.29   90.78 
   0 -11  11 1360.21  143.56 
  -2   2  13  108.85   87.90 
  -2   2  13   63.96   48.53 
  -2  -2  13   84.37   34.48 
   3   0  11  403.70  143.46 
   1  10  11   85.87  100.68 
   1 -10  11  189.81   74.47 
   1  10  11  139.90   98.75 
   0  13  10   50.74   35.41 
   0 -13  10  111.63   47.21 
   0  13  10   40.48   66.98 
  -3  -5  12   52.17   37.71 
  -3   5  12   51.72   33.82 
  -3  -5  12   51.81   22.90 
  -4  10   9  559.27  227.15 
  -4 -10   9  499.67   58.61 
  -4 -10   9  515.87  232.42 
  -3   5  12   47.02   57.51 
   3  -1  11 1485.15  113.88 
   3   1  11 1512.21  115.49 
   2  17   5  404.38   90.22 
  -1 -19  -3   38.81   44.18 
   1 -19   3  101.52   51.33 
   5   3   7 1613.47  192.59 
  -5  -5   9  189.12   80.37 
  -5  -3  -7 1545.54   85.51 
  -1  19  -3   74.26   56.73 
  -5   3  -7 1663.84  105.62 
   2 -17   5  381.98  208.24 
  -1  19  -3   54.39   43.73 
   5  -3   7 1661.53  162.42 
  -2  17  -5  338.80  169.93 
   1  19   3   82.01   41.05 
  -5  -5   9  137.25   53.90 
  -5   5   9  163.77   92.49 
  -2  17  -5  336.34  124.05 
  -2 -17  -5  349.42  114.78 
  -4   8  -8   52.54   38.41 
   4  15   2  107.62   48.53 
  -4  15  -2   99.18   54.96 
   4 -15   2   69.56   79.47 
   4  -8   8   54.70   36.55 
  -4  15  -2   60.98   47.47 
   4   8   8   22.47   31.73 
  -4 -15  -2  139.11   71.78 
   4   8   8   19.01   16.84 
   5  11   3  484.63   69.38 
   5 -11   3  335.77  102.91 
   5  11   3  350.95   86.39 
  -5  11  -3  436.02  150.46 
   5  10   4   59.27   46.35 
  -5  10  -4   10.71   22.60 
  -2  17   6   85.38   48.38 
  -2 -17   6  175.04   68.58 
  -2  17   6  147.03   82.14 
   5  10   4   31.47   32.11 
  -2  17   6  107.48   49.26 
   5 -10   4   21.26   18.28 
   1   7  12   34.54   27.14 
   1   7  12   74.00   38.37 
   1  -7  12   42.72   24.97 
   1  -7  12  101.52   48.07 
  -5  12   4   37.18   54.02 
  -5 -12   4   80.86   61.39 
  -4  15   4  667.16  215.18 
  -4  15   4  706.78   89.18 
  -4 -15   4  672.83   84.86 
   2  14   8   35.90   51.25 
   2 -14   8   48.70   56.94 
  -1 -18  -5  413.45  176.05 
   0   4  13   13.50   32.30 
  -2  14  -8   15.61   20.64 
   1 -18   5  488.50  156.19 
   0  -4  13   21.33   18.87 
  -1  18  -5  388.56  180.18 
  -1  18  -5  444.52  171.02 
   2  14   8  -17.05   36.25 
   0   4  13    0.32   28.57 
   0  -4  13   32.94   39.20 
  -2  14  -8   35.92   21.85 
   1  18   5  500.43  147.86 
  -2 -14   9 1054.68  104.71 
  -2  14   9  966.62   65.21 
  -2  14   9 1142.13   96.31 
  -4  -8  10 2288.01  131.45 
  -4  -8  10 2367.60  146.05 
  -4   8  10 2343.57  253.71 
   2   3  12 1662.17  124.09 
   2  -3  12 1572.59  112.16 
   2   3  12 1531.53   90.91 
   3 -10   9  112.08   52.77 
   3  10   9   79.71   61.68 
   3  10   9   78.44   56.68 
  -3  10  -9  112.44   40.62 
   0 -19  -4  544.88  214.23 
   6  -4   3  173.58  126.27 
   0  19   4  454.00   67.93 
  -6   4  -3  198.75  110.72 
   0  19   4  465.16  246.74 
   0  19  -4  569.02  230.39 
   6   4   3  110.03  104.28 
   3  -2  11  253.70  125.00 
   6   4   3  236.28   81.39 
   0  19  -4  434.75   56.04 
   3   2  11  224.43  146.34 
   0 -19   4  523.86  204.01 
  -6  -4  -3  186.79   65.70 
  -3  17   4 2727.47  157.27 
  -3  17   4 2830.78  157.62 
  -3 -17   4 2707.24  181.86 
   1 -14   9    8.33   24.89 
   1  14   9   -5.25   34.46 
   1  14   9   17.49   32.22 
  -3 -15   7   44.94   36.84 
  -3  15   7   93.68   42.35 
  -2  -3  13  676.32  143.63 
   2  -8  11   17.99   26.83 
  -2   3  13  532.68   58.44 
   2   8  11    6.28   17.00 
  -2   3  13  423.77   60.29 
  -2  -3  13  548.07   60.33 
  -3  11  10  973.18   99.66 
  -4   5  -9  364.69  173.80 
   4  -5   9  412.35  218.46 
   4   5   9  411.67  219.39 
  -3 -11  10  952.00   75.86 
  -6  -4   6 1923.07  103.55 
  -6   4   6 1923.72  155.30 
  -6  -4   6 2158.29  140.80 
  -3  14   8   36.12   39.99 
  -3 -14   8   37.31   32.66 
  -4  13  -5   94.73   61.56 
   4 -13   5   58.34   35.11 
   4  13   5   48.61   22.86 
  -2   8  12 1596.16  121.42 
  -2  -8  12 1593.31  118.74 
   4  13   5  113.45   62.00 
  -2  -8  12 1559.28  107.22 
  -2   8  12 1505.82   90.04 
  -6   7  -1  128.75   67.22 
   6   7   1  134.20   90.36 
  -2 -19   0  223.47  106.23 
   2 -19  -1  434.36   58.20 
   2  19  -1  399.81   71.34 
   0  17   7  637.49   68.97 
   2 -19   0  174.29  138.26 
  -2 -19   1  471.37  243.40 
  -2  19   0  254.97  126.44 
  -2  19   1  620.22  176.51 
   2  19   0  175.41   91.76 
   0  17   7  815.43  275.06 
  -2  19   1  471.05  167.60 
   2  19  -1  507.80  172.64 
   0 -17   7  840.44  275.75 
  -2  19   0  195.05  106.23 
  -6   6  -2  238.28  160.32 
   6   6   2  320.94  127.29 
   6  -6   2  231.18   38.71 
  -3  12  -8 1929.88  140.95 
   3  12   8 1795.13  121.56 
   3  12   8 1867.52  173.40 
   3 -12   8 1918.35  173.81 
  -1  -5  13  187.12   83.42 
  -1  -5  13  150.94   96.39 
  -1   5  13  200.33   58.63 
  -1   5  13  162.36  109.53 
  -5   7  -6  836.49   90.57 
   5  -7   6  674.66  188.06 
  -6   7   4  905.88   92.44 
   5   7   6  723.34   48.95 
  -6   7   4  989.70   81.47 
  -6  -7   4  999.16   89.91 
   5   7   6  799.83  274.24 
  -4   5  11  636.07  178.39 
   0  16   8  531.20   77.95 
  -4  -5  11  672.99   62.17 
   0 -16   8  581.03  165.45 
   0  16   8  578.06  242.15 
  -4  -5  11  564.81  155.23 
  -4 -13   7  359.76  153.07 
  -4  13   7  355.66  109.85 
   0 -20   0   38.77   33.46 
   0  20   0   83.10   65.67 
   0  20   0   52.33   19.51 
  -6   6   5 3138.13  159.84 
  -6  -6   5 3184.66  172.88 
  -6  -6   5 3224.99  157.41 
  -1  -9  12  232.98   78.89 
  -1  16   8  184.67   98.07 
  -1  -9  12  180.75   77.00 
  -1 -16   8  260.26   81.97 
  -1   9  12  255.79  148.73 
  -1  16   8  201.28   89.41 
  -1   9  12  195.69   71.83 
  -5  -8   8   16.71   18.86 
  -5   8   8   25.26   34.33 
  -6   8   1  410.21   39.88 
  -5  -8   8   47.89   39.34 
  -6   8   1  319.59  138.33 
  -6  -8   1  452.60   64.73 
   5 -12   2  166.02   34.58 
  -6   8   2   31.39   26.32 
  -1 -17   7  116.79   61.86 
  -1  17   7  139.11   75.63 
  -6  -8   2   27.97   37.81 
  -6   8   2   14.13   20.33 
  -5 -12  -2  127.54   92.85 
  -1  17   7  193.48   77.12 
  -5  12  -2  164.03   93.30 
   5  12   2  153.35  103.82 
   4  14   4 1236.48  138.63 
   4 -14   4 1119.17  111.20 
   5   4   7 2044.37  143.27 
  -5   4  -7 2176.38  138.96 
   5  -4   7 2178.88  128.52 
  -4  14  -4 1365.55  111.62 
  -4 -14  -4 1256.99  131.08 
  -5   9  -5  326.37  106.87 
  -3  -9  11   65.37   29.33 
   5   9   5  259.38  135.58 
   5  -9   5  271.71   99.25 
  -3   9  11   74.01   37.35 
   5   9   5  283.48  101.71 
  -3  -9  11   96.03   62.68 
  -4  14   6    8.57   18.89 
  -1 -19   4 1949.13  147.18 
  -4 -14   6  -11.44   38.32 
   3   3  11  196.61  113.43 
   1 -19  -4 1650.02  108.59 
   3  -3  11  251.90  132.36 
  -1  19   4 1736.25  108.26 
  -1  19   4 1788.03  116.68 
   1  19  -4 1772.64  104.55 
  -4  14   6   29.80   35.60 
   0  20   1  567.17  161.77 
  -3  16   6  294.34   84.71 
   0  20  -1  531.80  171.71 
   0 -20  -1  568.50  124.31 
   0 -20   1  496.86   78.15 
   0  20   1  498.12   59.80 
   0  20  -1  474.93  104.48 
  -3  16   6  310.99  102.19 
  -3 -16   6  299.22  171.99 
  -5  13   1 2218.01  129.74 
  -5  13   1 2247.06  142.05 
  -5 -13   1 2052.56  164.38 
  -4  12  -6  117.10   52.51 
   4  12   6   89.08   68.99 
   4  12   6  145.57   90.89 
   4 -12   6  143.16   59.65 
   1   0  13  194.83   89.70 
   1   0  13  190.45   86.71 
  -6   0  -4  507.31   95.09 
   6   0   4  496.83  141.62 
   2   4  12  158.85   75.01 
   2 -19   1   61.28   40.91 
   2   4  12  213.74   46.12 
   2  -4  12  212.00  109.67 
  -2  19  -1   77.23   31.12 
  -2 -19  -1   57.74   56.71 
   2  19   1  146.60   48.11 
  -2  19  -1  100.36   63.61 
   2  19  -2  324.34  106.95 
   2 -19  -2  395.08   81.22 
  -2 -19   2  475.32  250.51 
  -2  19   2  389.17  122.19 
  -2  19   2  421.84  161.83 
   2  19  -2  445.39  201.69 
   1  -1  13  107.38   86.01 
  -5 -13   2 2784.68  169.47 
  -5  13   2 2580.12  139.80 
   1  -1  13  100.84   55.79 
  -5  13   2 2816.56  159.61 
   1   1  13  120.10   75.33 
   1   1  13  148.07   78.15 
   0  -9  12   38.67   34.78 
   0   9  12   11.60   31.18 
   0   9  12   21.02   24.15 
  -4 -12   8 1480.29  108.98 
  -4  12   8 1525.38  115.23 
   0   5  13  773.51  178.05 
   6   1   4 1104.88  118.54 
   0   5  13  715.55  117.48 
  -6   1  -4 1051.29   70.11 
   0  -5  13  811.37  161.32 
   6  -1   4 1128.07  105.38 
   0  -5  13  659.68  184.00 
  -6  -1  -4 1168.38   72.65 
   3 -17   3   36.66   27.23 
  -3  17  -3   87.26   58.57 
  -3 -17  -3   65.92   41.47 
   3  17   3   44.82   34.38 
  -3  17  -3   56.81   31.01 
  -2  -4  13   56.41   41.83 
  -2   4  13   50.14   66.89 
  -2   4  13   22.44   18.60 
  -2  -4  13   63.66   33.98 
  -3  -6  12  375.62  188.11 
  -3   6  12  333.90   35.37 
   0 -18  -6   21.32   30.15 
  -3  -6  12  363.65  108.26 
   0  18   6   -7.94   35.60 
   0 -18   6   35.06   29.71 
  -6   0   7   19.27   61.71 
  -3   6  12  380.43   65.88 
   6   8   0 1102.42   88.39 
  -6   8   0 1120.81  218.20 
  -5  -6   9  632.39   56.95 
  -5  -6   9  696.78  209.42 
  -5   6   9  654.59  106.83 
   2 -11  10 1327.77  187.99 
   2  11  10 1340.71  129.18 
   2  11  10 1225.69  130.75 
  -6   8   3  355.36  111.85 
  -4  16   1 2832.44  133.86 
  -6   8   3  308.06  101.51 
  -4  16   1 2684.63  188.01 
  -4 -16   1 2665.74  151.19 
  -6  -8   3  315.63  160.32 
  -5 -11   6  637.24  260.17 
  -5  11   6  766.99   88.43 
  -5  11   6  697.96  168.14 
  -5  13   0  510.14   72.49 
  -5 -13   0  584.78  221.76 
  -6  -1   7   28.31   28.17 
  -5  13   0  467.11  119.76 
  -6   1   7   18.55   53.30 
   6  -5   3  102.73   57.08 
  -6   5  -3  123.26   59.76 
   6   5   3   74.24   50.73 
   6   5   3  116.69   66.63 
  -2  11  11  748.01  201.42 
  -5   0  10   11.94   35.85 
  -2 -11  11  716.54  226.76 
  -2  11  11  642.59   91.81 
  -3  13   9  287.13  176.09 
  -1  15   9   56.43   59.71 
  -3 -13   9  359.65  151.06 
  -1 -15   9   41.65   37.07 
  -1  15   9   36.46   37.51 
   3   8  10  882.73  287.92 
   3  -8  10  801.54   76.92 
   3   8  10  743.52   60.24 
   2  18   4  443.62   59.91 
   0  15   9  721.47   93.65 
   0  15   9  687.18   63.11 
  -2  18  -4  450.69  108.28 
  -2  18  -4  515.66  154.28 
   2 -18   4  432.80  185.86 
   0 -15   9  698.70   91.58 
  -2 -18  -4  476.12  218.98 
   1   2  13   51.79   55.60 
   1  -2  13   37.38   31.99 
   1   2  13   54.95   36.49 
   1  -2  13   24.35   19.14 
  -2 -18   5   18.77   38.02 
  -2  18   5   22.05   29.03 
  -2  18   5   14.10   24.80 
   2 -18  -5   28.75   34.71 
  -6   2  -4 1117.30   78.06 
  -6  -5   6  589.95  198.20 
   6  -2   4 1178.62   89.45 
   6   2   4 1191.33   88.57 
  -6   5   6  537.46  239.91 
  -5  -1  10   70.99   49.33 
  -5   1  10   70.93   55.12 
  -6  -5   6  648.62  280.73 
  -6  -2  -4 1137.22   65.43 
  -4  16   0  374.69  143.35 
   4 -16   0  401.93   67.42 
  -4 -16   0  475.94  235.71 
  -4  16   0  451.51   65.95 
   1 -18  -6  917.63  187.00 
  -4  16   2   44.05   26.35 
  -1  18   6 1022.63   66.78 
  -4  16   2   67.11   46.96 
  -1  18   6 1044.15  117.38 
  -4 -16   2   64.17   85.34 
  -1 -18   6 1087.90  336.08 
   3  18  -1   86.29   32.59 
  -3 -18   1   74.26   54.25 
  -5  10   7  788.73  245.95 
  -3  18   1   96.75   75.94 
   3 -18  -1   55.29   49.74 
  -3  18   1   96.17   54.36 
  -5 -10   7  683.96  242.42 
   2  13   9   48.44   46.65 
   2  13   9    4.28   22.68 
   2 -13   9   36.59   44.20 
  -6  -2   7  294.67  123.64 
   4   6   9 1257.15  159.19 
   4  -6   9 1379.13   95.24 
  -4   6  -9 1272.79  141.39 
  -6   2   7  264.78  124.13 
   0  20  -2   25.86   34.26 
   0  20  -2    0.01   22.25 
   0 -20   2   17.41   23.50 
   0  20   2   19.31   24.15 
   3   4  11   50.48   30.81 
   3  -4  11    8.77   28.15 
   0 -20  -2   20.95   31.50 
   3   4  11    5.68   14.05 
   3  18   0 1886.74  119.79 
  -2 -13  10   87.12   81.51 
  -3 -18   0 1959.51  121.44 
  -2  13  10   51.81   46.93 
  -3  18   0 1854.26   95.91 
   3 -18   0 1880.87   87.87 
  -3  18   0 1828.23  101.80 
  -2  13  10   95.52   33.50 
  -1  20   0  122.81   64.87 
  -5  13   3   94.51   56.66 
  -5 -13   3   81.44   56.47 
  -5  12   5  522.40  242.65 
  -5  12   5  659.73  145.98 
  -5 -12   5  581.67   70.68 
  -1 -20   0  112.88   61.14 
  -1  20   0  104.21   77.24 
   1  20   0   88.21   51.95 
  -5  13   3   96.22   75.75 
   1  20   0  150.71   62.28 
   1 -20   0  141.61   65.97 
   1   8  12   21.18   26.43 
   1  -8  12   22.66   26.07 
  -4 -15  -3  357.26  171.91 
   4  15   3  295.29  122.90 
   4 -15   3  305.10   43.68 
  -4  15  -3  356.74  180.42 
   5   5   7  824.76  306.92 
   5  -5   7  877.53   85.33 
  -5   5  -7  811.34  209.16 
  -5  -2  10   80.76   41.13 
  -5   2  10  106.55   76.81 
  -5  -2  10   94.46   61.61 
  -1   6  13 1106.72   75.71 
  -1  -6  13 1167.27  106.60 
  -1   6  13 1157.97  153.38 
  -1  -6  13 1096.18  146.74 
  -1 -20   1   42.37   58.45 
  -4  15   5 2326.38  120.41 
   1 -19   4   41.52   25.81 
  -4   6  11  320.19  206.08 
  -4  -6  11  344.05  208.81 
   1  20  -1   47.66   25.33 
  -3  15  -6   26.74   24.97 
  -4 -15   5 2232.08  174.77 
  -1  20   1   41.65   26.44 
  -1  20   1   38.92   30.27 
  -4  -6  11  384.89  230.90 
   3 -15   6   20.07   19.10 
   3  15   6   55.55   28.98 
   1 -20  -1   65.91   38.05 
  -4  15   5 2193.67  202.76 
   1  20  -1   93.51   55.17 
  -1 -19  -4   56.23   63.87 
   1  19   4   38.05   27.21 
  -1  19  -4   30.43   37.77 
   3  15   6   20.51   39.53 
  -1  19  -4   30.01   24.33 
   4   9   8 1226.73  218.40 
   4  -9   8 1055.85   92.80 
  -4   9  -8 1246.54  105.84 
   4   9   8 1143.87   64.85 
  -3  18   2  124.29   92.33 
  -3 -18   2  111.93   78.22 
  -3  18   2  122.48   55.60 
   3 -18  -2   85.06   74.83 
   1   3  13 1891.85   96.63 
   1  -3  13 1773.54   79.40 
   1  -3  13 1969.28  110.14 
   1   3  13 1773.75  123.79 
   6   3   4 1655.68  100.54 
  -6   7  -2   89.97   49.48 
  -6  -3  -4 1553.65   68.93 
  -6   3  -4 1574.15   96.22 
   6  -3   4 1589.69   84.40 
   6   7   2  105.02   42.32 
   6  -7   2   49.26   43.24 
   2   5  12   78.93   46.23 
   2 -19   2  168.26   89.29 
   2   5  12   88.17   60.22 
  -2 -19  -2   97.95   93.47 
   2  19   2  135.71   56.70 
   2  -5  12   65.53   62.16 
  -2  19  -2   79.35   78.79 
  -2  19  -2  103.86   61.54 
  -2 -19   3   80.07   60.03 
  -2  19   3  132.79   63.93 
   2 -19  -3   81.84   55.79 
  -2  19   3   95.76   44.59 
   2  19  -3  150.65   68.32 
  -1 -12  11   13.24   28.85 
  -1  20  -1  402.05  201.46 
  -1  12  11   30.49   31.21 
  -1 -20  -1  373.69  224.50 
   1  20   1  270.36   76.95 
   1 -20   1  333.93  235.36 
  -1  12  11    7.26   25.25 
  -1  20  -1  384.17  143.00 
   1  20   1  372.30  125.61 
  -4  -9  10  990.42  148.60 
  -4  -9  10  961.96  272.76 
  -4   9  10  964.34  129.14 
  -6  -7   5  559.47   68.18 
  -6   7   5  579.91  198.29 
   4 -11   7 1233.86   83.13 
   4  11   7 1049.51  269.62 
  -4  11  -7 1066.14   99.91 
   4  11   7 1019.08  149.76 
  -2   5  13   14.12   29.23 
  -5 -13  -1   30.53   30.20 
  -5  13  -1   13.53   16.31 
  -2   5  13   54.42   47.81 
  -5  13  -1   35.42   51.07 
  -2  -5  13   39.76   27.08 
  -2  -5  13   14.98   23.78 
   6   8   1  138.33   88.67 
   1 -13  10  146.25   80.45 
  -3  16  -5  231.54  113.58 
   1  13  10  121.59   56.30 
   3  16   5  353.82  199.82 
  -6   8  -1  175.63   65.48 
   1  13  10   96.04   56.96 
  -3  16  -5  393.78  198.42 
  -3 -16  -5  307.62  246.98 
  -6   3   7  327.94  137.23 
  -6  -3   7  311.27  147.89 
   3 -16   5  332.37  158.86 
  -3  17   5    6.65   18.07 
  -3  17   5   -8.25   31.83 
  -3 -17   5   33.87   27.98 
   1  11  11  228.93  114.32 
   1 -11  11  197.60  111.51 
   1  11  11  225.95  112.38 
   4 -16   1   26.52   17.95 
  -4  16  -1   16.40   33.92 
  -4  16  -1   30.57   29.00 
   4  16   1   30.74   39.02 
  -4 -16  -1   13.33   48.11 
   3  14   7   12.91   16.12 
   3 -14   7   25.35   29.75 
  -3  14  -7   24.31   17.67 
   3  14   7   11.52   49.54 
  -6   8   4  242.43  128.76 
  -6  -8   4  303.19  165.92 
   2   9  11  148.68   91.55 
   2  -9  11  195.06   96.34 
   5   8   6  562.96  131.42 
  -6   8   4  230.30  149.90 
   2   9  11  207.92   87.90 
  -5   8  -6  526.73   84.92 
   5  -8   6  433.05   63.90 
   5   8   6  421.38   75.97 
  -4  16   3 2276.99  124.41 
  -4 -16   3 2204.65  129.21 
  -4  16   3 2339.17  111.38 
   3 -18   1   38.43   20.98 
  -4 -11   9  448.52  132.01 
  -3  18  -1  102.64   44.16 
   3  18   1   69.83   64.76 
  -3  18  -1   61.96   36.08 
  -4  11   9  361.57   57.69 
  -3 -18  -1   14.32   58.39 
   0  -6  13  164.11  101.19 
   0  -6  13  181.78   86.73 
  -5  -3  10   49.81   26.01 
   0   6  13  186.67  124.10 
   0   6  13  159.25  122.25 
  -5  -3  10   53.63   48.30 
   0 -12  11  552.51  236.91 
  -2  -9  12   58.30   49.12 
  -2   9  12   25.65   25.68 
   0  12  11  403.13  184.63 
   0  12  11  427.14   70.29 
  -2   9  12   45.23   43.35 
  -2  -9  12   36.46   28.93 
   5  11   4   21.20   30.16 
   5  11   4   13.46   28.93 
   5 -11   4   17.24   25.22 
  -5  11  -4   27.91   25.03 
   1  17   7   76.87   52.15 
   1  17   7   59.78   30.87 
  -1  17  -7   41.74   35.60 
  -1  17  -7   13.84   24.09 
   1 -17   7   70.72   65.58 
  -1  20   2  809.52   69.31 
   1 -20  -2  913.73   82.82 
   1  20  -2  886.62  141.42 
   1  20  -2  807.10   58.62 
  -1  20   2  876.84   93.22 
  -1 -20   2  789.52  340.36 
   6  -6   3   60.35   55.45 
   6   6   3   50.72   40.01 
   6   6   3   92.13   41.27 
  -6   6  -3  108.56   78.06 
   0  19  -5   57.45   49.67 
   0  19  -5   61.11   35.47 
   0  19   5   40.19   28.62 
   0 -19   5   61.27   30.81 
   0  19   5   43.05   50.97 
   0 -19  -5   84.85   45.79 
  -5  -9   8  564.96  123.19 
  -5  12  -3  781.95  256.93 
   5 -12   3  763.49   53.12 
   5  12   3  686.54  318.25 
   5  12   3  798.07  126.19 
  -5   9   8  597.07   87.00 
  -5  -9   8  630.42  291.84 
   3  11   9 2061.86  133.24 
  -3  11  -9 2066.76  127.27 
  -6   9   2  673.78   70.89 
  -6  -9   1  331.89   70.37 
  -6  -9   2  659.34  113.00 
  -6   9   2  647.61   97.59 
   3 -11   9 2108.22  112.05 
  -6   9   1  334.37   83.64 
   3  11   9 2139.43   99.53 
  -6   9   1  367.38  224.11 
   1  16   8  316.57  191.99 
  -3  -7  12   48.16   42.80 
  -3   7  12   21.50   16.56 
  -3  -7  12   61.90   68.78 
   1 -16   8  368.80  198.38 
   1  16   8  317.58  124.32 
  -3   7  12   75.54   65.73 
  -5  -7   9  827.91  103.81 
  -5  -7   9  813.77  251.51 
   3   5  11  257.34  128.63 
  -5   7   9  870.37   89.76 
   3  -5  11  237.32  197.98 
   3   5  11  172.04  109.47 
  -6  -6   6 1846.23  137.83 
  -6  -6   6 2075.70   93.89 
  -6   6   6 1980.78  108.43 
   1  -4  13  105.79   85.82 
   1  -4  13  176.61   79.50 
  -1 -14  10  460.38  298.33 
  -1  14  10  524.36   70.13 
  -1  14  10  485.98   69.37 
   1   4  13  176.55   65.44 
   1   4  13  172.81  104.06 
   2  16   7  546.03   66.63 
   2 -16   7  586.05   64.77 
   2  16   7  638.16   62.26 
  -6   4  -4 1295.11  101.45 
   6   4   4 1413.93  248.14 
  -2  16  -7  586.21   48.60 
   6  -4   4 1397.59   85.63 
  -2  16  -7  632.39   74.69 
  -1  10  12   51.84   21.59 
  -1  10  12   76.74   39.16 
  -1 -10  12  114.92   64.03 
  -1 -10  12   68.85   81.09 
   3 -18  -3    5.62   16.80 
  -3  18   3   16.07   22.43 
  -3  18   3    5.26   32.53 
  -3 -18   3   31.99   29.44 
  -5  13   4  143.32   70.34 
   4   0  10  326.85  129.10 
  -5 -13   4  131.41  102.13 
  -5  13   4  158.63   63.42 
  -4   0 -10  336.81  151.07 
  -2  16   8 1138.36   81.84 
  -2  16   8 1276.47  131.06 
  -2 -16   8 1269.15  145.67 
   0  20   3   30.66   30.02 
   0  20  -3   69.70   38.63 
   0 -20   3   67.35   48.95 
   0  20  -3   19.78   25.49 
   0 -20  -3   75.78   61.66 
   0  20   3   53.59   34.43 
   0 -14  10  136.57   67.38 
   5 -10   5    9.85   19.24 
   0  14  10  119.73   67.63 
   0  14  10   97.46   53.86 
  -5  10  -5   19.40   27.69 
   5  10   5   13.84   17.19 
   5  10   5   -4.73   38.96 
  -3  10  11  250.99  101.74 
  -3 -10  11  175.29  124.08 
  -3 -10  11  245.63   86.25 
  -3  12  10  756.62   77.95 
   1  20   2 1411.47   94.27 
  -1  20  -2 1500.56   89.48 
  -1  20  -2 2110.48  108.24 
  -3 -12  10  892.37   81.29 
   1 -20   2 1588.01  104.93 
  -6   4   7   21.16   35.97 
  -6  -4   7   39.32   41.91 
  -1 -20  -2 1538.38  128.17 
  -6  -4   7   15.42   20.59 
  -1  18  -6  204.61  164.44 
  -2  17  -6    3.81   25.96 
   1 -18   6  219.01  128.53 
   4   1  10   39.35   35.70 
   1  18   6  157.12  142.59 
  -2  17  -6    9.46   15.87 
   2 -17   6   22.01   32.85 
   2  17   6   34.22   30.02 
  -1 -18  -6  223.16  115.96 
  -4   1 -10   41.40   33.10 
  -1  18  -6  230.85   79.22 
   4  -1  10   37.74   29.30 
  -4  -1 -10   26.32   39.10 
   5  -6   7  765.03   72.29 
  -1  19   5   27.98   17.47 
   5   6   7  751.05   79.90 
   1 -19  -5   14.77   19.10 
  -1  19   5   12.44   63.13 
  -1 -19   5   22.09   45.39 
  -5   6  -7  756.65  121.50 
  -2 -17   7  160.32   77.38 
  -2  17   7  112.21   36.89 
  -2  17   7   84.60   37.25 
  -3   0  13   27.39   36.92 
  -3   0  13   28.36   22.87 
   4   7   9  202.79   63.37 
   4  -7   9  108.79   88.41 
  -4   7  -9   69.87   70.02 
   4   7   9   79.68   62.32 
  -6   9   0  321.64  160.93 
  -6  -9   0  177.13  184.06 
  -4   0  12 1518.29  117.81 
  -4   0  12 1712.93  134.83 
  -5  -4  10  216.55   87.98 
  -5  -4  10  257.03  134.44 
  -5   4  10  269.12   93.21 
  -6   9   3   96.57   76.02 
  -6   9   3  149.31   60.91 
  -6  -9   3  117.49   66.44 
  -3   1  13   60.66   34.01 
  -3  -1  13   -8.93   39.56 
  -3   1  13   33.62   23.08 
  -3  -1  13   21.20   46.17 
  -4   1  12  360.53   37.46 
  -4   1  12  483.89  160.59 
  -4  -1  12  421.37  166.52 
  -4  -1  12  350.05  158.23 
   0 -10  12 2222.71  126.80 
   0  10  12 1984.94  104.66 
   0  10  12 2239.41  157.66 
  -1  -7  13  101.75   76.08 
  -1   7  13  179.43   72.34 
  -1  -7  13  141.15   59.05 
   2   6  12  271.09  144.07 
   2  -6  12  344.27  197.13 
  -3  17  -4 1433.90  102.69 
  -3  17  -4 1122.89   82.00 
  -3 -17  -4 1152.11  268.81 
   2   6  12  296.65   55.06 
  -1   7  13   96.66   82.49 
   3  17   4 1148.35  212.92 
   3 -17   4 1166.63   86.58 
   3  -9  10  190.19   78.88 
   3   9  10  128.21   37.42 
   3   9  10  146.92   57.82 
   4  -2  10 5367.83  185.72 
  -4  -2 -10 5045.75  134.36 
  -4  -7  11 1168.11  174.73 
  -4   7  11 1010.44   91.22 
  -4  -7  11 1128.98   84.37 
   4   2  10 5243.84  223.08 
  -4   2 -10 5124.65  151.16 
   3  13   8   16.88   24.35 
   2 -15   8  720.63  260.00 
   3 -13   8   13.75   26.25 
   3  13   8    1.43   23.91 
  -2  15  -8  755.60   49.75 
   2  15   8  777.39  173.10 
   2  15   8  723.94  102.64 
  -3  13  -8   38.57   33.95 
  -2  15  -8  807.24   91.76 
   5   0   8   12.46   26.26 
  -5   0  -8    2.80   14.44 
  -2   6  13  927.87  220.97 
  -2   6  13  947.45   63.36 
  -2  -6  13  980.29   78.09 
  -2  -6  13 1088.10  245.54 
  -2  15   9  573.10   47.64 
  -2  15   9  556.33   67.88 
  -3  18  -2  909.84   84.55 
  -3  18  -2  924.68   66.44 
   3 -18   2  866.25   70.88 
  -2 -15   9  626.44  316.10 
   3  18   2  973.47  273.57 
  -3 -18  -2  831.76  284.15 
   4  16   2  194.32  100.91 
   4 -16   2   96.29  101.22 
  -5  -1  -8  261.86  115.53 
   5  -1   8  269.65  194.34 
  -4  16  -2  159.87   81.02 
  -4  16  -2  171.79   70.91 
  -4 -16  -2  232.15  123.53 
   5   1   8  191.64  150.37 
  -5   1  -8  317.52  144.57 
   4  14   5  315.22   96.03 
   4 -14   5  327.19  146.57 
   4  14   5  297.38  226.42 
  -3  -2  13    5.54   32.49 
  -3   2  13    5.01   20.23 
  -3   2  13   27.53   34.06 
  -4  14  -5  423.30  147.50 
  -3  -2  13    0.35   24.72 
   2 -19   3  497.02  166.69 
  -5  13  -2  835.02  127.46 
   2  19   3  324.91  189.38 
  -2  19  -3  384.69  167.84 
  -2 -19  -3  416.87  175.00 
  -5 -13  -2  821.47   88.43 
   5 -13   2  841.72   57.39 
   5  13   2  861.66   94.21 
  -2  19  -3  421.12   54.43 
  -4  16   4   58.65   68.97 
  -4  16   4   80.51   34.77 
  -4   2  12  150.46   77.73 
  -4  -2  12  163.21   82.31 
  -4  -2  12  140.48   81.55 
  -4 -16   4   25.23   30.03 
  -2  19   4   91.50   65.43 
   2 -19  -4   61.91   31.15 
  -2 -19   4   84.41   60.31 
  -2  19   4   86.34   66.85 
   1  15   9   57.49   28.60 
   1 -15   9  101.02   59.99 
   1  15   9   54.48   37.19 
   1  20  -3   13.18   14.04 
  -1  20   3   12.20   23.00 
  -1 -20   3   36.13   26.87 
   1  20  -3   24.39   27.31 
   1 -20  -3   11.33   21.30 
  -1  20   3   10.06   25.54 
  -4  14   7  428.94  152.26 
   1   9  12  653.66   66.94 
   1  -9  12  618.08  104.18 
   1   9  12  664.86  128.87 
  -4 -14   7  752.00   74.53 
  -4  14   7  755.84   77.71 
   6   8   2  165.43   46.84 
  -6   8  -2  193.20   77.14 
  -3 -15   8 1084.42   91.75 
  -3  15   8 1144.63   98.94 
   4  13   6 1024.25  213.03 
   4  13   6 1012.15  100.03 
  -4  13  -6 1125.64  343.72 
   4 -13   6 1060.30  115.96 
   1   5  13   97.10   65.27 
   1  -5  13   91.34   81.70 
   1  -5  13   84.89   53.85 
   1   5  13  137.72   63.57 
  -3  16   7   70.29   55.29 
  -6   8   5   49.96   47.47 
  -6  -8   5   72.81   52.92 
  -6   8   5   77.36   70.81 
  -3  16   7   51.94   27.61 
  -3 -16   7   47.39   44.33 
   2  12  10  180.34  118.98 
   6  -5   4 2824.02  104.80 
   6   5   4 2841.22  151.21 
   0   7  13  108.56   41.65 
   2  12  10   93.64   75.83 
   0  -7  13  124.17   82.51 
   0  -7  13  122.98   74.99 
  -5   2  -8   66.57   62.72 
   5  -2   8   83.53   46.22 
   5   2   8   57.13   54.64 
   0   7  13  127.25   63.16 
   2 -12  10  168.05   54.75 
  -5  -2  -8   42.39   44.37 
  -6   5  -4 2860.18  141.75 
  -5  12   6  259.12  165.68 
  -5 -12   6  325.49  128.92 
  -5  12   6  324.98  166.38 
  -4  -3 -10  225.89   88.03 
   4  -3  10  322.16  140.60 
   4   3  10  277.02  170.81 
  -4   3 -10  259.52  157.09 
  -2  18  -5   22.46   16.28 
   2  18   5   36.86   30.96 
  -2  18  -5   10.98   22.58 
  -2 -18  -5   -0.48   43.23 
  -4 -13   8    4.52   17.21 
   2 -18   5   -3.01   42.40 
   3  -6  11  256.43  149.11 
  -4  13   8   -9.44   39.55 
   3   6  11  193.55  102.50 
   3   6  11  179.67   76.25 
  -2 -12  11 2409.12  135.80 
  -2  12  11 2545.54  136.09 
  -2  12  11 2332.87   85.83 
  -5  11   7 1663.86  111.33 
  -5 -11   7 1752.80  105.32 
  -5  14   1   -0.98   43.90 
  -2 -18   6  491.33  282.89 
  -5  14   1   18.60   24.06 
  -2  18   6  455.62  209.32 
  -2  18   6  448.76   86.36 
  -2  18   6  467.98  124.43 
  -5 -14   1   40.96   55.35 
  -6  -5   7   96.18   90.53 
  -6   5   7  258.12  117.01 
  -6  -5   7  254.27  130.91 
   6   7   3   18.52   19.82 
   6  -7   3   25.93   34.97 
  -6   7  -3   17.98   20.68 
   6   7   3   38.71   33.13 
  -4 -15  -4  153.02   92.76 
   4 -15   4  147.32   76.02 
  -6   0  -5    8.36   26.58 
   4  15   4  231.54   83.09 
  -4  15  -4  191.04   84.56 
   6   0   5   22.71   30.65 
   4  10   8   41.42   32.19 
   4 -10   8   56.02   62.79 
   4  10   8   57.04   29.38 
  -4  10  -8   49.34   26.43 
  -3   3  13  584.52   72.57 
  -3  -3  13  532.64   77.39 
  -3   3  13  421.65  103.58 
  -3  -3  13  496.51  208.67 
  -6   9  -1   18.12   32.61 
  -5 -14   2 1760.22  125.95 
   6   9   1    7.35   33.35 
  -5  14   2 1565.11  127.00 
  -5  14   2 1807.65  376.37 
  -4  -3  12  366.02  105.79 
  -4  15   6   43.41   24.90 
  -4 -15   6   51.65   37.18 
  -4  -3  12  422.64   57.90 
  -6   1  -5   29.77   42.47 
   6   1   5   18.79   21.49 
  -6  -1  -5  141.71   27.62 
  -4  15   6   46.36   42.60 
   6  -1   5    2.38   20.31 
  -4   3  12  508.83  225.68 
  -6  -7   6   87.47   66.59 
  -6  -7   6   82.12   54.69 
  -6   7   6   64.99   56.24 
  -5  -5  10 1025.01  281.08 
  -5  -5  10 1022.08   73.30 
  -5   5  10 1131.96  116.49 
   5  -9   6  844.03   73.10 
   5   9   6  811.64   55.57 
  -6  -9   4   -1.53   36.51 
   5   9   6  885.41   95.69 
  -5   9  -6  811.86  105.31 
  -6   9   4   42.79   30.35 
  -6   9   4   15.69   15.28 
  -6   0   8  754.38  100.59 
  -4 -10  10   34.96   57.76 
  -1  19  -5  706.16   68.47 
   1  19   5  800.59  235.80 
  -1 -19  -5  639.72  133.57 
  -4  10  10   54.96   43.91 
   1 -19   5  644.57  285.47 
  -4 -10  10   55.42   48.16 
  -3 -18   4  121.28   84.56 
  -1  19  -5  660.90  249.29 
  -3  18   4   89.45   68.69 
  -3  18   4  120.86   60.31 
   0  17   8   43.12   39.42 
   0 -17   8   11.49   46.97 
   0  17   8   14.14   28.11 
  -5  14   0 1013.77   68.30 
  -3  -8  12 2750.56  129.49 
  -5 -14   0 1080.56  100.07 
  -6  -1   8  432.88  145.01 
  -6   1   8  302.24  140.46 
  -5  14   0 1143.87   90.29 
  -3  -8  12 2778.49  133.85 
  -3   8  12 2801.84  132.51 
  -1  20  -3   75.86   36.68 
   1 -20   3   77.61   46.68 
  -1  20  -3  154.52   98.79 
   1  20   3   95.60   59.46 
  -1 -20  -3   72.25   60.55 
  -5  -8   9 2393.58  165.39 
  -5  -8   9 2409.93  197.56 
  -5   8   9 2431.54  135.39 
  -5   3  -8   40.06   23.25 
  -3 -14   9  104.60   59.60 
  -1  17   8   63.77   36.09 
  -1  17   8   44.40   30.49 
  -3  14   9   87.80   59.01 
  -1 -17   8  107.30   46.48 
   5  -3   8   13.60   31.43 
   5   3   8    4.55   31.90 
   2 -10  11   81.10   85.35 
   2  10  11  101.83   49.95 
   2  10  11   82.66   39.31 
  -1   0  14    9.14   19.37 
  -1   0  14   16.02   19.70 
   0 -18   7  707.85  116.42 
   6  -2   5   44.00   38.49 
  -6   2  -5   39.60   50.37 
   6   2   5   29.81   40.08 
   0  18   7  638.73  140.96 
  -6  -2  -5   21.92   16.29 
   0  18   7  557.79  207.86 
   5  -7   7 1364.27  162.85 
   5   7   7 1156.79   98.58 
  -5   7  -7 1429.45  105.24 
  -5  13   5   14.91   19.81 
  -5 -13   5   21.65   25.79 
  -5  13   5   10.86   31.11 
  -2 -10  12  145.20   71.52 
  -2  10  12   81.39   62.96 
  -2  10  12  103.83   63.80 
  -2 -10  12   71.96   56.64 
  -1  -1  14  109.00   64.41 
  -1   1  14   90.12   74.66 
  -1  -1  14  115.41   58.03 
  -1   1  14   95.34   44.16 
  -3  17   6  406.74  210.15 
  -3 -17   6  357.75  223.26 
  -3  17   6  346.30  144.45 
   2 -14   9   59.02   56.70 
   2  14   9   98.29   66.80 
   2  14   9   94.30   52.61 
  -1  18   7  102.57   87.60 
  -1  18   7   62.90   53.22 
  -6  -2   8   56.82   60.90 
   4  -4  10 2373.67  124.15 
  -6   2   8   74.51   41.43 
  -1 -18   7   96.75   42.67 
   4   4  10 2313.75  145.16 
  -4   4 -10 2204.65  111.27 
   0 -20  -4  816.47  107.28 
   0  20  -4  826.77  277.85 
   0  20   4  847.52  174.56 
   0  20   4  841.53   58.19 
   0  20  -4  905.49   77.81 
   0 -20   4  807.51  143.36 
  -4  12  -7   25.90   20.37 
   4  12   7   10.21   27.61 
   4  12   7   19.58   28.24 
   4 -12   7   11.13   25.37 
  -5 -10   8  153.57   63.75 
   2   7  12  374.53   71.28 
   2   7  12  411.18  257.46 
  -2 -14  10  270.90  125.07 
  -2  14  10  155.79   88.40 
   2  -7  12  382.46  219.00 
  -5  10   8  131.80   48.18 
  -2  14  10  282.46  158.42 
  -5 -14   3  321.12  170.70 
  -6 -10   1 1621.15  114.70 
  -6  10   1 1680.40  111.23 
  -5  14   3  350.48  155.78 
  -5  14   3  391.20  189.15 
  -6  10   2    5.70   12.29 
   4  -8   9 1836.80  115.13 
  -4   8  -9 1644.46   95.23 
   4   8   9 1705.62   73.56 
   4   8   9 1844.87  131.04 
  -6 -10   2   11.55   26.60 
  -6  10   2   19.36   40.21 
   1  12  11  209.70  129.21 
   1 -12  11  299.48  135.40 
   1  12  11  274.91  131.62 
  -1  16   9  152.37  107.41 
  -1  16   9  208.84   99.24 
  -1 -16   9  252.34   94.24 
  -2  -7  13  630.73  242.70 
  -2   7  13  557.17  238.77 
  -2   7  13  615.59   67.51 
  -2  -7  13  657.87  209.43 
  -3   4  13  156.62   81.79 
  -3   4  13  119.83  138.25 
  -3  -4  13  121.47   96.52 
  -3  -4  13  186.26  151.75 
  -1   2  14   79.07   95.69 
  -4  -4  12  264.65  139.66 
  -4   4  12  241.23  180.35 
  -1 -13  11  167.61  109.66 
  -1  13  11  130.58   41.14 
  -4  12   9   65.39   42.39 
   0  16   9  177.30   65.06 
  -1  -2  14  104.38   75.37 
   0 -16   9  176.76   90.52 
  -1  -2  14   67.82   54.91 
  -1  13  11  119.61   57.28 
  -4 -12   9   50.91   52.27 
  -1   2  14   32.48   54.11 
   0  16   9  149.08   97.51 
  -4  -4  12  277.59  153.44 
   2 -20  -1   15.34   22.72 
  -2 -20   1   32.46   56.12 
  -2  20   0    7.93   15.77 
   2  20  -1   61.45   38.41 
  -2  20   0   25.93   18.74 
   2 -20   0  -12.87   30.92 
  -2 -20   0   15.78   35.33 
  -2  20   1   19.80   28.38 
  -2  20   1   53.77   37.20 
   2  20   0   20.09   43.13 
  -4  17   1  152.28   77.77 
  -4 -17   1  159.03   93.50 
  -1  -8  13 1255.43   91.28 
  -4  17   1  156.55  108.77 
  -1   8  13 1052.02  146.93 
  -1   8  13 1084.88  171.57 
  -1  -8  13 1119.12   95.25 
  -5  12  -4   22.95   23.69 
   5 -12   4   23.75   22.38 
   5  12   4   12.15   30.74 
   5  12   4   11.54   25.04 
  -4  -8  11   94.10   72.30 
  -4  -8  11   77.54   55.05 
  -4   8  11  107.46   99.18 
   1   6  13   49.21   55.18 
   1  -6  13   49.14   23.03 
  -6   3  -5   68.39   41.53 
   6   3   5  101.11   82.02 
   6  -3   5   89.57   34.68 
   1   6  13   93.81   39.78 
   6   6   4  263.00  113.55 
  -6   6  -4  322.12  161.84 
  -3 -18  -3   88.25   33.46 
  -3  18  -3   56.70   67.92 
  -3  18  -3  125.97   58.44 
   6  -6   4  171.42  122.52 
   3  18   3  115.86   64.70 
   3 -18   3  103.14   54.63 
   0   0  14  788.35  279.36 
   0   0  14  670.97   79.87 
   5   4   8  883.71  128.67 
  -5   4  -8  888.37  231.89 
   5  -4   8 1007.63   88.30 
  -1  11  12 3240.19  141.52 
  -1 -11  12 3063.96  153.80 
  -1  11  12 3004.19  118.83 
   3  12   9   96.73   60.72 
  -4  17   0   13.61   33.94 
  -5 -14  -1  564.01  213.72 
   4  17   0    9.47   24.28 
  -3  12  -9  109.72   69.02 
   3 -12   9  136.72   62.74 
   0  13  11  303.92  147.69 
   3  12   9  110.30   73.26 
   0 -13  11  250.92  162.54 
  -4 -17   0   32.45   45.53 
  -5  14  -1  411.80  216.25 
   0  13  11  310.23  135.16 
  -4  17   0   13.18   39.40 
   1  14  10 1843.78  108.10 
  -6  -6   7  645.91  281.99 
  -4  17   2  191.63   76.50 
   0   1  14 3197.06  138.03 
  -6  -3   8  764.30  202.79 
   1 -14  10 2017.41  180.33 
  -6  -6   7  791.16   60.53 
  -4 -17   2  164.56  127.38 
   1  14  10 2003.78  123.42 
   0   1  14 2902.26  133.43 
   0  -1  14 2909.50  130.75 
  -6   6   7  748.70   88.53 
   0  -1  14 2814.14  158.66 
  -6   3   8  788.21   79.26 
  -4  17   2  188.18  103.00 
   1 -20  -4  461.27  228.05 
  -1  20   4  651.65   87.30 
  -6  10   0  519.08  188.12 
  -4  16  -3  332.25  109.45 
   1  20  -4  546.86  157.08 
   1  20  -4  641.03  204.08 
  -1 -20   4  514.04  176.81 
  -1  20   4  535.70   62.80 
   4 -16   3  204.83  105.41 
   4  16   3  317.08  157.73 
  -6 -10   0  581.90  144.97 
  -4 -16  -3  305.69  155.49 
   0  21   0    6.42   26.15 
   0 -21   0   32.96   44.12 
   0  21   0   52.63   45.70 
   5  11   5  117.19   52.39 
  -5  11  -5  206.31   98.67 
   5 -11   5  107.35   78.70 
   5  11   5  132.82   72.80 
  -6  10   3   51.10   43.42 
  -6 -10   3   77.03   58.57 
  -3 -11  11  118.64   94.46 
  -6  10   3   72.56   56.83 
  -3 -11  11  106.25   73.55 
  -3  11  11   98.99   56.93 
  -4 -16   5  517.45   69.86 
  -4  16   5  554.45   70.45 
  -4  16   5  502.55  175.68 
   3  16   6  598.90   75.29 
  -3  16  -6  567.54  225.18 
   0 -19  -6 1567.02  109.98 
   0  19   6 1633.44  106.90 
   0  19  -6 1675.74  105.62 
   0  19  -6 1684.66  136.73 
   0 -19   6 1486.90  101.37 
   3  16   6  598.51  220.43 
   3 -16   6  474.08  123.10 
   3   7  11  131.75   77.05 
   3   7  11  205.74  112.44 
   3  -7  11  239.05  101.36 
  -5   6  10  630.84  265.71 
  -5  -6  10  554.03  289.44 
  -5  -6  10  712.90  112.11 
   5  13   3   18.95   24.26 
   5  13   3  -20.56   42.58 
  -5  13  -3   46.29   55.84 
  -2 -20  -1  971.13  106.32 
   2 -20   1  917.30  204.77 
  -2  20  -1  867.82   89.68 
   5 -13   3   15.93   24.12 
   2  20   1  841.85   83.66 
  -2  20  -1  983.97   85.89 
  -2  20   2  147.52  118.56 
   2  20  -2  175.00   79.62 
   3  10  10  537.85   74.60 
   3  10  10  489.46  264.19 
  -3  10 -10  598.10  118.45 
  -2 -20   2  241.98  176.34 
   3 -10  10  578.46  164.18 
   2 -20  -2  145.30   85.10 
  -2  20   2  130.60   99.83 
   2  20  -2   93.04   65.66 
  -1   3  14   18.80   19.90 
  -1  -3  14   16.56   27.01 
  -1   3  14    2.56   43.86 
  -1  -3  14   19.31   31.90 
   0   8  13  110.36   91.03 
   0  -8  13  123.61   60.52 
   0  -8  13  110.52   52.00 
   0   8  13  101.86   93.84 
   3  15   7   49.75   40.97 
   0 -21  -1 1143.00   98.64 
   3 -15   7   46.50   30.17 
   0  21  -1 1363.66   91.71 
  -3  15  -7   29.00   55.72 
   0 -21   1 1290.79  103.49 
   0  21  -1 1318.76   80.26 
   0  21   1 1295.09   73.20 
   0  21   1 1211.91  106.48 
   3  15   7   18.38   31.72 
   0  -2  14 2095.62  133.51 
   0   2  14 2118.78  118.18 
   0  -2  14 2237.12  110.42 
   0   2  14 2016.11  106.49 
  -2  19  -4   -3.27   35.12 
   2  19   4   34.13   31.78 
  -2  19  -4   24.10   33.15 
  -2 -19  -4   21.56   32.33 
   2 -19   4   20.47   25.33 
   6   9   2  776.49   98.44 
  -2 -19   5  607.21   87.52 
  -2  19   5  509.75  109.20 
   0  11  12   20.71   38.86 
   2 -19  -5  464.51  125.99 
   0  11  12   83.99   60.10 
  -6   9  -2  821.12   78.92 
   0 -11  12  106.70   76.08 
  -2  19   5  553.11  260.22 
  -1  19   6  464.81  255.24 
  -1  19   6  560.36   56.14 
   4  -5  10   31.38   43.19 
  -4   5 -10   21.38   22.87 
   1 -19  -6  569.19   90.67 
   4   5  10   32.92   23.61 
  -1 -19   6  629.92  255.99 
   6  -8   3   76.58   48.60 
   6   8   3   85.57   68.37 
   6   8   3  145.74   89.50 
  -6   8  -3   85.62   85.75 
  -6   9   5  163.03  160.94 
  -6   9   5  237.59  100.30 
  -6  -9   5  243.57  114.12 
  -3 -19   1   42.05   58.50 
   3 -19  -1   63.15   49.59 
  -3  19   1   46.25   33.28 
   3  19  -1   31.60   44.16 
  -3  19   1   36.57   25.89 
   2   0  13   -2.25   41.04 
  -3  13  10  784.17   83.78 
   1 -10  12   59.63   42.94 
   1  10  12   35.18   35.51 
  -3 -13  10  777.69  288.17 
   1  10  12   65.15   24.33 
   6   4   5   82.27   41.78 
   6  -4   5   90.72   41.02 
  -6   4  -5   64.16   55.43 
   3 -19   0   49.99   43.99 
  -3 -19   0   52.72   72.71 
  -3  19   0   61.27   42.31 
   3  19   0   57.86   56.46 
  -3  19   0   47.26   38.93 
  -6   8   6  164.83  168.99 
  -6  -8   6  191.86   90.96 
  -3  -5  13  240.63  185.28 
  -3  -5  13  184.11  146.55 
   2  -1  13  120.25   63.76 
   2   1  13   61.79   42.28 
  -3   5  13  204.75  155.29 
  -3   5  13  196.02  108.65 
  -2   0  14  133.21   51.48 
  -3 -17  -5  343.87  160.38 
  -5  14   4 3562.06  145.18 
  -5 -14   4 3552.50  166.60 
   3 -17   5  322.26  177.49 
  -5  14   4 3770.47  162.38 
   3  17   5  269.86  141.72 
  -2   0  14  106.28   42.28 
  -3  17  -5  440.38  159.25 
  -4  -5  12  499.99  282.01 
  -4  -5  12  489.85   60.12 
  -4   5  12  468.42   66.64 
   4 -17   1 1257.53   70.90 
  -4  17  -1 1263.08  117.50 
  -4 -17  -1 1280.67  215.55 
  -4  17  -1 1279.73   77.98 
   4  17   1 1305.48   97.33 
  -4  17   3 1027.41   80.97 
  -4  17   3 1296.42  242.52 
  -4 -17   3 1060.23  191.03 
  -6  -4   8  505.68  249.32 
  -2  -1  14  167.10   97.64 
  -1 -15  10 1324.36  114.06 
  -2  -1  14  190.60   77.75 
  -1  15  10 1367.84   85.36 
  -1  15  10 1331.23   95.18 
  -2   1  14  185.90   66.20 
  -5   0  11  755.17  105.36 
  -6   4   8  571.52   65.40 
  -2   1  14  127.88   78.60 
   3   0  12   22.11   44.83 
  -3  19   2 1635.49  104.31 
  -3 -19   2 1460.66  260.46 
  -3  19   2 1615.22  101.35 
   3 -19  -2 1590.22   82.98 
  -5   1  11 1677.41  135.65 
   0  -3  14 3131.98  142.89 
   0   3  14 3005.29  140.20 
  -5  -1  11 1483.78  262.42 
   3   1  12  499.57  212.25 
   0   3  14 3326.04  146.60 
   3  -1  12  375.18  234.27 
   0  -3  14 3057.87  139.19 
  -3  18   5   40.95   43.43 
  -3 -18   5   51.96   52.32 
  -3  18   5   54.82   49.41 
   5   8   7  212.41  118.09 
   5  -8   7  194.63  101.28 
  -5   8  -7  182.96   94.67 
   0  15  10  419.16   54.39 
   0  15  10  529.38   62.96 
  -5   5  -8  594.65  185.02 
   0 -15  10  492.65  239.68 
   5  -5   8  578.62  223.14 
   5   5   8  432.72  243.48 
   2   2  13    6.55   14.97 
   2   2  13   22.46   37.22 
   2  -2  13   -2.95   36.92 
   6  10   1   28.85   85.49 
  -1  20  -4 2068.30  111.33 
  -3  -9  12   -3.54   39.31 
   1  20   4 2000.27  110.66 
  -1 -20  -4 2093.31  124.84 
  -3   9  12   30.33   41.53 
  -1  20  -4 1981.99  108.84 
   1 -20   4 2188.03  127.48 
  -3  -9  12   64.18   50.13 
  -6  10  -1   35.25   61.66 
  -1  -4  14  426.35  161.51 
  -1   4  14  383.43  106.45 
  -1  -4  14  416.26   61.69 
  -1   4  14  402.83  198.71 
  -5  -9   9  112.46   92.88 
   0  21   2  105.81  111.68 
  -5  -9   9   85.46   83.10 
   0  21  -2  219.23   69.80 
   0  21  -2  150.03  100.64 
   0  21   2  221.85  113.81 
  -5   9   9  121.34   56.80 
   0 -21   2  150.89  122.31 
   0 -21  -2  197.33  144.98 
  -6  10   4   49.27   40.63 
   1 -21   0  945.00  144.10 
  -5  10  -6  262.72  162.65 
  -6 -10   4   83.79   57.55 
  -1 -21   0  911.21   84.17 
  -1  21   0  931.72   70.71 
   1  21   0  996.96  111.87 
   1  21   0  959.33   64.13 
   5  10   6  102.18  124.94 
   5 -10   6  215.92   93.58 
  -6  10   4   44.39   49.79 
  -1  21   0 1012.79   78.62 
   5  10   6  198.67   95.29 
  -2  -2  14  829.98  227.97 
   1  17   8  120.69   62.50 
  -2   2  14  755.24   70.59 
   1 -17   8  108.12   46.06 
  -2   2  14  881.17   80.53 
  -2  -2  14  953.37  264.11 
   1  17   8   95.22   99.73 
   1  18   7  157.00  117.56 
   1 -18   7  143.89   52.87 
   4  11   8  664.91  248.30 
   3  14   8   45.90   43.64 
  -1  18  -7  146.17  100.53 
  -4  11  -8  775.22  268.05 
   1  18   7  149.77   84.29 
  -1  18  -7  209.12  104.10 
   4  11   8  548.73  154.52 
   4 -11   8  690.11  178.87 
  -3  14  -8   78.47   51.68 
   3 -14   8   76.36   54.65 
   3  14   8   80.77   51.12 
  -2  20  -2   14.71   27.44 
   2  -8  12   28.07   49.53 
   2 -20   2   10.70   24.22 
  -2  20  -2    8.53   17.89 
   2  20   2   30.56   29.26 
   2   8  12   20.83   20.77 
  -2 -20  -2   26.26   27.16 
   2   8  12    8.00   26.24 
   2  20  -3  626.06   64.79 
  -2  20   3  659.44   74.80 
  -2 -20   3  704.95  220.35 
  -2  20   3  536.42  152.91 
   2  20  -3  627.72  188.02 
   2 -20  -3  659.33   71.64 
  -3 -19  -1  279.79  160.27 
  -3  19  -1  161.69   96.70 
   3  19   1  272.00  101.97 
   3  -2  12  313.19  117.45 
  -1  21   1    9.30   17.08 
  -3  19  -1  218.05   97.85 
   3   2  12  273.53  155.92 
   1 -21  -1   30.26   27.15 
   1  21  -1   26.25   41.31 
   3 -19   1  180.02  112.32 
   1  21  -1   36.68   31.30 
  -1 -21   1   14.24   26.52 
  -1  21   1   23.32   24.11 
   1  -7  13  339.81  134.29 
   1   7  13  399.05  172.78 
  -5  -2  11 2460.51  134.71 
   1  -7  13  440.08   61.69 
   1   7  13  325.28  147.03 
  -5   2  11 2434.61  137.38 
  -5 -12   7   17.75   21.30 
  -2  17  -7  126.02   51.97 
  -5  12   7   14.59   18.04 
  -2  17  -7   90.79   61.31 
   6  -7   4  503.20  114.35 
  -6   7  -4  515.09  111.74 
   2  17   7   88.95   67.67 
   2  17   7  140.71   69.08 
   2 -17   7   79.91   98.11 
   6   7   4  396.76  231.73 
  -2   8  13  688.92   56.09 
  -2   8  13  739.28   74.09 
  -2  -8  13  577.03  247.66 
  -2  -8  13  757.04  147.85 
   5  14   2  297.28  103.28 
  -5 -14  -2  346.82  244.60 
  -5  14  -2  351.49  208.18 
  -2  17   8  506.85  246.33 
  -2 -17   8  601.83  226.48 
  -2  17   8  465.33   47.74 
  -4 -11  10  128.68   78.01 
  -4  11  10  218.23   98.35 
   2  13  10   47.68   56.46 
   2 -13  10   47.34   58.13 
   2  13  10    9.28   16.58 
  -5  13   6  429.30   89.09 
  -5  13   6  408.11   62.51 
  -5 -13   6  417.26  171.41 
  -6  -7   7   18.70   30.31 
  -4   9  -9   40.05   31.09 
   4  -9   9   87.67   70.07 
   4   9   9   86.41   53.93 
  -6   7   7   25.73   22.01 
   4   9   9   45.44   30.70 
  -6  -7   7   31.20   22.19 
   1  21   1   86.93   52.62 
  -1  21  -1   84.04   60.63 
  -1 -21  -1   89.54   78.50 
  -1  21  -1  112.87   76.49 
   1 -21   1   64.00   76.76 
  -2  13  11  353.77  131.20 
  -2 -13  11  515.21  255.60 
  -2  13  11  562.93  249.17 
   2  -3  13   49.28   31.57 
   2  11  11    8.52   19.68 
   2 -11  11   13.40   31.78 
   2   3  13   42.94   21.50 
   2  11  11   27.70   26.37 
   2   3  13   43.22   29.00 
  -4  15  -5  118.83   54.59 
   4  14   6   -1.89   40.36 
  -4  14  -6   37.58   28.73 
   4 -14   6   30.54   49.45 
   4  15   5  102.65   80.18 
   4  15   5  100.94   85.38 
   4 -15   5  118.33   58.20 
   4  14   6   18.58   30.67 
   2 -16   8   43.56   44.29 
   2  16   8   46.13   32.71 
  -2  16  -8   15.62   31.48 
   6  -5   5    5.55   18.47 
   2  16   8   47.33   60.66 
  -2  16  -8    5.01   14.17 
  -6   5  -5   14.57   29.89 
   6   5   5   12.14   21.86 
  -5  -7  10   36.57   55.44 
  -5  -7  10   46.81   42.69 
  -5   7  10   62.98   77.36 
  -1  -9  13   22.03   45.84 
  -1   9  13   28.18   36.75 
  -1   9  13    3.03   30.68 
  -1  -9  13   19.98   27.16 
  -2 -11  12   17.94   26.64 
  -2 -11  12  -13.54   39.75 
  -2  11  12   13.31   24.11 
  -4   9  11 4144.12  178.38 
  -4  -9  11 4048.79  288.06 
  -4  -9  11 4122.43  300.00 
  -2  11  12   18.10   18.53 
   2 -18   6  116.87   53.18 
   0   4  14 1057.73  115.66 
  -2   3  14 3028.01  240.50 
  -2 -16   9 1714.24  122.33 
   0   4  14 1013.61  102.19 
  -2  18  -6   67.90   41.10 
  -2 -18  -6   56.75   53.23 
  -2  18  -6   59.86   41.22 
  -2  -3  14 3161.15  132.54 
   0  -4  14 1132.64   82.76 
  -4  15   7  450.13   64.16 
   2  18   6   87.33   71.39 
  -2  16   9 1562.99  127.66 
   0  -4  14 1050.19   85.49 
  -2   3  14 3074.07  117.15 
  -2  -3  14 3132.06  147.51 
   4   6  10  915.60  120.32 
  -4 -15   7  464.26  230.43 
  -4   6 -10  703.18  212.76 
  -4  15   7  474.16  225.66 
   4  -6  10 1078.06  191.61 
  -4  14   8  513.35  250.59 
  -4 -14   8  396.22   83.02 
   0  20   5 3029.19  133.50 
   0 -20   5 3031.87  171.55 
   0 -20  -5 3233.07  157.28 
   0  20  -5 3104.12  124.54 
   0  20  -5 3198.03  155.97 
  -3 -19   3  140.80  106.08 
  -3  19   3  226.27  106.03 
  -3  19   3  162.04  107.85 
  -2 -18   7   67.88   51.32 
  -2  18   7  106.70   82.44 
  -2  18   7   54.20   41.29 
   3  -3  12    6.50   33.83 
   3   3  12   20.50   35.23 
  -6  -5   8 3107.36  148.60 
  -5   3  11  291.26  215.11 
   3   8  11  232.97   71.26 
  -5  -3  11  281.66   93.42 
  -5  -3  11  361.13  230.78 
  -6   5   8 3221.86  154.90 
   3  -8  11  232.72  134.65 
   3   8  11  173.40  111.36 
   1  16   9   14.21   23.04 
   1 -16   9   39.87   48.40 
   1  16   9    8.68   27.25 
  -1  21   2  454.81   52.18 
   1  21  -2  424.50  199.69 
   1 -21  -2  399.69  131.02 
   1  21  -2  339.12   86.11 
  -1  21   2  440.39  146.96 
  -1 -21   2  366.21  248.61 
  -5  11   8   13.46   19.81 
  -5 -11   8   37.31   27.79 
  -7   0   2    8.77   23.08 
  -3  -6  13   32.37   42.83 
  -6  11   1  233.82  116.64 
  -6 -11   1  254.95   98.83 
  -3  -6  13   32.59   39.82 
  -3   6  13   24.80   31.10 
  -6 -11   2  363.98  178.64 
  -4  -6  12  544.30  109.23 
  -6  11   2  389.11  157.28 
  -1 -19  -6 2234.82  130.03 
   1  19   6 2060.77  127.19 
  -4   6  12  566.92   88.95 
  -1  19  -6 2332.67  121.22 
  -1  19  -6 2408.61  206.53 
  -4  -6  12  590.59  240.24 
  -6  11   2  432.27   90.43 
   1 -19   6 2232.03  132.77 
  -4 -17  -2  123.91   66.34 
  -3  18  -4   14.05   19.19 
   3  18   4   14.89   33.68 
   4 -17   2  112.06   68.44 
  -4  17  -2  100.66   61.20 
   3 -18   4   49.58   22.89 
  -3 -18  -4   15.83   60.35 
  -3  18  -4   11.27   31.70 
  -4  17  -2  118.01   79.70 
   4  17   2  186.22   83.33 
  -3 -16   8  180.04   82.93 
  -5  15   1 1031.26   95.86 
  -3  16   8  281.90  163.59 
  -5 -15   1  959.77   98.08 
  -5  15   1  982.39  108.68 
  -1  -5  14  175.57   80.94 
  -1   5  14  229.34   95.73 
  -1   5  14  161.30   99.54 
  -1  -5  14  182.68  141.75 
  -7   1   2   24.94   38.06 
  -4  17   4  549.88  260.24 
  -4 -17   4  446.73  216.42 
  -4  17   4  514.71   73.16 
  -7   1   1   10.25   28.96 
  -5  15   2 4887.92  188.78 
  -5  15   2 4763.88  158.99 
  -5 -15   2 4583.49  184.26 
   1  20  -5  126.85  118.40 
  -1  20   5  109.08   77.74 
  -1 -20   5  163.99  112.48 
  -1  20   5  119.04   73.61 
   1 -20  -5  110.05   67.16 
   0   9  13  197.34  151.00 
   0  -9  13  332.69  147.66 
   5   6   8 1178.80  193.48 
   5  -6   8 1183.39   96.82 
   0   9  13  237.92   95.55 
   0  -9  13  165.16  131.48 
  -5   6  -8 1162.12  228.96 
  -4  16  -4   18.76   31.78 
   4 -16   4   20.38   31.41 
  -4 -16  -4   32.88   45.81 
   4  16   4   41.48   23.36 
  -4  13  -7 2176.89  236.33 
   0 -21  -3  357.36   87.44 
  -7   0   3   14.44   27.16 
   0 -21   3  376.07  170.82 
   4  13   7 2074.69  136.12 
   4 -13   7 2153.71  111.00 
  -3  17   7   74.58  109.15 
   0  21  -3  370.36  149.34 
   4  13   7 2090.12  107.26 
  -6   0  -6  146.20  123.97 
   0  21  -3  227.90  153.94 
   0  21   3  351.76  185.31 
  -3  17   7  190.21  146.24 
   6   0   6  160.34  138.17 
  -3 -17   7  110.76  160.90 
  -5  14   5  340.48  214.93 
  -5 -14   5  361.13  193.55 
  -5  14   5  438.14  143.34 
   2  -4  13  503.02   85.49 
   2   4  13  426.41  221.70 
   2   4  13  385.88  141.15 
  -5 -15   0  844.21  141.06 
  -1  21  -2  641.96  216.33 
  -5  15   0 1023.17   91.43 
  -1  21  -2  643.82   81.14 
  -1 -21  -2  738.82  148.61 
  -5  15   0  742.60   88.03 
   1 -21   2  688.03  112.25 
  -7   2   2   52.63   49.19 
   1  21   2  670.74   69.58 
   3 -19   2  982.92   76.73 
  -6   9  -3  306.16  214.96 
  -3  19  -2  985.14   83.93 
  -3  19  -2  860.97  131.75 
  -3 -19  -2  983.88  103.53 
  -6 -11   0   86.98   55.88 
  -4 -16   6  180.76   99.86 
  -4  16   6  160.17   62.83 
  -6  11   0  103.58   56.54 
   3  19   2  886.58  155.45 
   6   9   3  356.60   71.21 
  -4  16   6  177.16   84.39 
   6   9   3  320.76  207.10 
   1  13  11  635.82  153.15 
   1 -13  11  558.93  188.44 
   1  13  11  495.42  239.39 
  -3  15   9  254.44  152.99 
   6   1   6   28.90   24.00 
  -6  -1  -6   31.45   18.74 
  -7   1   3   33.09   25.38 
  -3 -15   9  222.18  141.54 
  -6   1  -6   30.96   27.40 
  -7  -1   3   10.89   19.60 
   6  -1   6   50.31   41.09 
  -6  11   3  454.83   64.97 
  -6  11   3  210.35  176.31 
  -6 -11   3  372.84  155.90 
   7   2  -1 1067.38  118.60 
  -4 -13   9  445.04  136.01 
  -7   2   1 1133.20  138.97 
  -4  13   9  477.63  253.39 
  -2  -4  14   31.37   48.61 
  -2   4  14   23.91   17.10 
  -2   4  14   20.75   26.05 
  -2  -4  14   28.09   29.67 
  -6  10  -2  174.07  122.75 
   6  10   2  169.38  127.92 
  -6   9   6  110.60   74.30 
  -6  -9   6   82.36   79.49 
  -1 -12  12  861.88   85.00 
  -1  12  12  800.37  274.56 
  -1  12  12  787.57   75.17 
  -6   0   9   12.56   34.20 
   3 -11  10  995.01  113.06 
  -3  11 -10 1059.61  119.84 
   3  11  10 1084.37  108.49 
   5  13   4 1063.24   86.50 
   3  11  10 1051.21   75.28 
   5  13   4 1038.13  111.71 
  -5  13  -4 1117.18  104.64 
  -5  -4  11 2964.26  106.98 
  -5  -4  11 2831.08  150.21 
   3  -4  12  312.74  234.23 
   3   4  12  301.02  195.33 
  -5   4  11 3163.58  170.84 
  -7   0   0   10.82   17.75 
  -6  10   5  720.46   80.01 
  -6 -10   5  698.00  311.72 
  -6  10   5  664.83   71.18 
   2  15   9   19.97   21.06 
   5 -12   5   91.08   56.93 
  -5  12  -5  133.88   87.74 
  -6  -1   9   16.54   31.86 
  -2  15  -9   35.89   73.74 
   5  12   5   83.41   51.71 
   2 -15   9   -8.25   39.44 
   2  15   9   31.51   40.20 
   5  12   5   56.81   93.13 
   1   0  14   28.14   37.11 
  -3  12  11  903.71  191.39 
  -3 -12  11  909.79   81.48 
  -2 -20  -3  456.56  215.57 
   0   5  14 1499.88  121.51 
   2  20   3  350.05  212.64 
   2 -20   3  385.03  169.41 
   0  -5  14 1531.84   99.47 
   0  -5  14 1536.74  260.30 
  -2  20  -3  449.62  148.64 
  -2  20  -3  316.23  186.61 
   0   5  14 1622.42  115.63 
  -1 -14  11   15.17   46.89 
  -1  14  11   -0.44   30.40 
  -1  14  11   20.59   33.71 
   2  20  -4   23.11   14.60 
   2 -20  -4   13.19   24.21 
  -7   1   0   91.83   67.98 
   7   1   0   97.74   80.77 
  -2  20   4   22.47   18.44 
  -2  20   4   44.12   34.19 
  -2 -20   4   23.35   47.79 
  -2 -15  10  244.57  136.93 
   6  -2   6  346.51  113.37 
   6   2   6  373.63   52.64 
  -2  15  10  289.03  126.49 
  -7   2   3  205.43  101.58 
  -6   2  -6  336.02   76.93 
  -7  -2   3  139.79  102.43 
  -5 -15   3   45.88   23.81 
  -5  15   3   24.94   26.81 
  -5  15   3   34.98   35.03 
  -3  13  -9  191.14  123.86 
   1   1  14   43.42   50.99 
   1  -1  14   22.29   17.86 
   1  -1  14   25.28   18.17 
   1   1  14   41.56   71.02 
   3 -13   9  216.35  115.80 
   3  13   9  140.62  133.12 
   3  13   9  190.49  159.12 
  -2 -19  -5 1054.55  257.79 
   6   6   5   66.08   74.10 
  -6   6  -5   59.74   45.20 
   2 -19   5 1073.68   88.28 
  -2  19  -5 1078.71   74.77 
   6  -6   5   35.88   42.29 
  -2  19  -5 1244.97  112.30 
   2  19   5 1176.65  298.67 
   5  -9   7   80.30   47.00 
   5   9   7   27.55   37.61 
   5   9   7   22.73   35.84 
  -5   9  -7  104.83   63.51 
  -2  19   6  152.77   70.40 
  -2  19   6  160.19  111.30 
  -2 -19   6  119.17  130.33 
   1  11  12  302.24  165.39 
  -7   3   2   64.58   32.03 
  -7   3   2   70.28   49.39 
   1  11  12  271.59  143.52 
   7   3  -2   31.84   29.63 
   1 -11  12  279.28  163.33 
   1  -8  13  117.24   85.11 
   1   8  13   52.68   50.45 
   1   8  13   64.55   31.06 
   6   8   4 1193.46  289.05 
   0  12  12   74.46   57.78 
   0 -12  12   87.83   45.30 
   0  12  12   75.52   49.25 
  -6   8  -4 1286.61  140.18 
   6  -8   4 1266.27  100.06 
  -6  -2   9  168.70  135.13 
  -6   2   9  227.14  135.15 
  -1 -21   3   29.28   35.29 
   1 -21  -3   10.65   28.58 
   1  21  -3    7.30   33.72 
   0 -14  11  775.84  154.01 
   1  21  -3   10.85   20.82 
  -1  21   3   27.95   22.50 
   0  14  11  711.94   86.19 
  -1  21   3   25.01   33.26 
   0  14  11  783.83  203.55 
   7   3  -1  182.66  143.54 
   0 -18   8   51.29   43.69 
   0  18   8   14.72   43.60 
   0  18   8   58.31   35.22 
  -7   3   1  353.93   58.38 
  -5   0  -9  617.47  146.74 
   5   0   9  698.07   82.32 
  -6   6   8  728.45   84.04 
  -6  -6   8  703.98  231.05 
  -6  -6   8  660.28   74.30 
   7   2   0  210.14  100.91 
  -7   2   0  228.55  187.38 
  -1  18   8  930.34  101.99 
   2   9  12  406.07  223.96 
  -1  18   8 1285.08  159.62 
   2   9  12  368.24   54.62 
  -1 -18   8 1219.47   96.99 
   2  -9  12  485.76  181.10 
   1  -2  14  100.50   54.45 
   1  -2  14   77.27   45.14 
   1   2  14   82.91   71.75 
   1   2  14   20.91   36.34 
  -3 -10  12 1082.10   83.04 
   4  -7  10  137.32  112.03 
  -3 -10  12 1065.79  102.41 
  -4   7 -10  105.53   35.13 
  -3  10  12  993.74   89.50 
  -6   8   7 1076.89   94.91 
   4   7  10  162.47  105.89 
  -6  -8   7  984.17  120.20 
   5  -1   9   30.26   46.61 
  -5  -1  -9   16.37   14.44 
  -3  19   4  249.64  179.51 
  -5   1  -9   13.72   20.18 
  -3 -19   4  340.50  222.95 
   5   1   9   76.28   56.14 
  -3  19   4  360.18   51.13 
  -7   0   4    9.85   17.81 
  -5  10   9   59.21   28.16 
  -5 -10   9   44.38   41.40 
   5  14   3  147.04   56.16 
  -5  14  -3  109.19  101.01 
   5 -14   3   92.10   76.97 
  -2  -9  13  378.17  157.80 
  -5 -15  -1  568.94   77.11 
  -2  -9  13  437.79  206.41 
  -2   9  13  457.93  199.11 
  -2   9  13  361.08   43.03 
   5  15   1  497.38  149.84 
  -5  15  -1  591.86   69.86 
  -1   6  14   43.70   63.50 
  -1  -6  14   48.21   62.74 
  -1  -6  14   23.79   24.32 
  -1   6  14   20.17   42.96 
   1  15  10   81.00   48.92 
   1 -15  10   80.29   53.07 
  -7   3   3  561.64   62.21 
  -6   3  -6  225.51  140.23 
   6  -3   6  319.99   51.00 
  -7   1   4   16.29   21.96 
  -1 -17   9   35.89   31.47 
  -1  17   9   20.36   35.76 
  -3  18   6   49.36   24.64 
  -5  -8  10 1610.03  137.75 
  -5   8  10 1486.05  211.43 
  -3  18   6   56.88   37.57 
  -1  17   9   10.91   36.58 
  -7  -1   4   44.96   41.04 
  -3 -18   6   28.35   31.13 
   6   3   6  286.51  148.97 
  -5  -8  10 1493.32  173.73 
  -3  -7  13  135.42   93.21 
  -3   7  13  105.15   84.25 
  -3  -7  13  171.17  106.24 
   0  17   9 2505.97  162.52 
   2  -5  13   67.70   55.63 
   0  17   9 2838.66  150.86 
   2   5  13   35.99   41.98 
   0 -17   9 2954.68  151.05 
   2   5  13   93.57   45.69 
  -6  11  -1  187.41   79.12 
   6  11   1  140.31  163.08 
  -4   7  12  771.96  197.88 
  -4  -7  12  776.19   76.32 
  -4  -7  12  695.56  321.01 
   0  19   7   16.21   31.96 
   1 -20   5 1276.85  202.53 
   0  19   7   22.37   35.98 
  -1 -20  -5 1424.20  291.74 
   0 -19   7   27.31   46.01 
  -1  20  -5 1302.01  220.43 
   1  20   5 1361.93  102.73 
  -1  20  -5 1291.57  174.90 
  -4   0 -11   -1.99   21.84 
   4   0  11   21.51   38.01 
  -6 -11   4    5.89   32.77 
  -6  11   4   11.75   31.94 
   5  11   6 1100.59   73.24 
   5  11   6 1137.73  138.17 
   5 -11   6 1171.60  164.20 
  -5  11  -6 1292.53   97.76 
  -6  11   4   20.33   23.78 
  -2   5  14  560.99  123.73 
  -2  -5  14  545.62   70.19 
  -2  -5  14  610.39   64.44 
  -2   5  14  632.05   94.99 
   5  -2   9 1319.53  141.79 
   5   2   9 1322.73  104.12 
  -5   2  -9 1397.17   91.82 
   4   1  11  178.20  123.70 
   4  -1  11  144.74   88.68 
  -6   3   9   14.46   26.71 
  -6  -3   9   28.73   21.51 
  -4   1 -11  134.48   79.73 
  -4  -1 -11   75.91   97.41 
   3   5  12   17.53   20.72 
  -3  14  10 2714.80  150.69 
  -1 -19   7    6.78   33.86 
  -1  19   7   31.25   48.36 
   4  10   9  356.76  145.92 
   4 -10   9  375.28   97.52 
  -3 -14  10 2680.65  139.27 
  -1  19   7    0.47   27.01 
  -4  10  -9  337.82  148.56 
   3  -5  12   54.17   50.21 
  -5  -5  11  443.88  260.19 
  -5   5  11  364.59  224.43 
  -5  -5  11  359.10  140.23 
   7   3   0    1.41   17.76 
  -7   3   0   -2.78   30.74 
  -5   7  -8   88.68   35.32 
  -7  -2   4   14.58   24.81 
   5  -7   8   99.57   51.07 
  -7   2   4   26.95   43.08 
   5   7   8   78.20   48.36 
  -4  18   1 3625.27  165.24 
  -4  18   1 3407.48  138.14 
  -4 -18   1 3656.39  203.39 
   1  -3  14  105.77   66.05 
   1   3  14   25.87   33.88 
   1  -3  14   37.24   31.97 
   1   3  14   74.72   52.18 
  -4   0  13   40.63   41.59 
   7   4  -2  244.35  137.54 
  -7   4   2  324.57  139.56 
   3   9  11   79.53   51.23 
   3  -9  11   91.07   72.11 
  -4 -17  -3 1744.21  199.89 
   4 -17   3 1607.67  156.95 
  -4  17  -3 1632.82  113.97 
   4  17   3 1684.70  114.36 
   3   9  11   69.20   54.28 
  -1  21  -3   55.86   24.83 
  -1 -21  -3   59.73   33.11 
  -1  21  -3   50.29   38.20 
   1 -21   3   45.22   32.66 
   7   0   1  148.52   98.77 
  -7   0  -1  214.30  112.04 
   1  21   3   25.66   38.95 
   3  16   7  153.07  107.75 
  -4  12  -8  349.43  219.78 
  -3  16  -7  186.26  135.14 
   3  16   7  139.73   81.76 
   4  12   8  242.24  108.48 
   4  12   8  142.92  127.63 
   3 -16   7  149.22   99.59 
   4 -12   8  387.07  122.50 
  -1 -10  13 1278.14   90.82 
  -1 -10  13 1374.58  157.13 
  -1  10  13 1353.50   97.43 
  -1  10  13 1319.39   80.97 
  -7   4   1  183.44  111.25 
  -4 -17   5  377.70  228.53 
  -4  17   5  352.63  187.20 
  -4  17   5  356.76  124.75 
  -4 -10  11 1112.87  129.69 
  -4   1  13  191.63  109.96 
  -4  -1  13  139.03   76.36 
  -4  10  11  994.51   92.94 
  -4 -10  11 1132.89   97.73 
  -3  17  -6  640.59   74.39 
   3 -17   6  426.54  176.56 
   3  17   6  463.01  305.08 
   3  17   6  433.92  241.31 
  -7   1  -1  589.10  198.85 
  -7  -1  -1  548.45   70.44 
   7   1   1  446.59  137.74 
   4   2  11   19.24   29.02 
  -4   2 -11   56.98   30.87 
   4  -2  11   66.55   68.38 
  -4  -2 -11   37.24   31.26 
  -4  18   0   94.41   71.67 
   4  18   0   90.19   50.92 
  -4  18   0   88.99   44.73 
  -4 -18   0  106.43   73.27 
  -5  15   4  116.37   55.22 
   0  -6  14  591.32  243.90 
  -5  15   4  214.54  119.18 
  -5 -15   4  179.11   96.52 
   0   6  14  492.58   76.70 
  -4  18   2 1072.28  330.85 
   0   6  14  542.36   94.55 
  -4  18   2  903.51  153.55 
   0  -6  14  475.33  174.51 
  -4 -18   2  910.87  155.50 
  -4  12  10   51.63   36.69 
  -4 -12  10   30.94   31.47 
  -3  19  -3  205.38  101.48 
  -3  19  -3   97.19  100.50 
   3 -19   3  158.36  127.63 
  -3 -19  -3  245.27  111.67 
   3  19   3  243.39   82.01 
   0  21   4  270.41  156.83 
   0 -21   4  245.55  171.26 
   5   3   9  368.48  244.16 
   0  21  -4  210.85  121.82 
   0  21  -4  339.86  166.25 
  -5   3  -9  364.42  178.27 
   5  -3   9  481.35   87.41 
   0 -21  -4  262.64  161.52 
   6   4   6  418.53  218.80 
  -6   4  -6  352.20  208.44 
  -7   4   3  500.59   57.51 
   6  -4   6  379.84  123.22 
  -5  13   7 1996.08  114.98 
  -5 -13   7 2021.40  118.20 
   2 -12  11  169.67  113.23 
   2  12  11  258.32  150.90 
   2  12  11  264.29  150.55 
  -4   2  13  400.69  277.18 
  -4  -2  13  409.34   73.56 
  -7   2  -1  885.75   85.45 
   7   2   1  712.65  185.13 
  -7   3   4  106.57   53.26 
  -7  -3   4   85.20   46.25 
  -2 -12  12  232.78  112.77 
  -2  12  12  196.34  128.22 
  -2  12  12  159.97  127.91 
  -3   0  14   32.68   31.26 
  -3   0  14   -7.53   28.12 
   6   7   5  302.26  108.31 
  -1  16  10 1049.96   76.75 
  -1  16  10 1330.07  100.18 
  -2  21   1 1137.97   80.11 
   6  -7   5  307.29   59.67 
  -2  21   0   38.25   58.71 
   2 -21  -1 1114.10  110.24 
  -2 -21   1 1220.67  111.72 
  -6   7  -5  315.87  194.97 
   2  21  -1 1193.26   93.00 
  -2 -21   0   41.08   35.69 
   2  21   0   71.87   45.51 
  -2  21   0   39.10   30.46 
  -2  21   1 1324.21   87.49 
   2 -21   0   31.93   31.34 
  -1 -16  10 1087.33  115.89 
   0  10  13   54.33   58.83 
   0 -10  13   68.38   55.17 
   0  10  13   80.41   55.64 
  -6  -4   9   29.12   50.61 
  -6   4   9   47.58   47.43 
  -3   1  14   12.19   19.74 
  -3  -1  14   44.43   42.07 
  -3  -1  14   15.47   47.11 
  -3   1  14   60.89   42.92 
   7   4   0    3.98   20.23 
  -7   4   0   29.66   30.40 
   2  14  10  570.33  101.39 
   4   3  11   59.54   41.90 
  -4   3 -11   50.32   28.79 
   3  15   8 1304.87  113.56 
   2  14  10  649.04  205.50 
   2 -14  10  584.61  141.57 
   3 -15   8 1198.57   93.30 
   4  -3  11   31.87   34.11 
   3  15   8 1309.09   88.75 
  -3  15  -8 1321.26  109.92 
   0 -16  10   58.45   31.26 
   0  16  10   23.83   42.34 
  -5 -12   8   83.71   53.31 
  -5  12   8   42.36   30.26 
   0  16  10    9.66   50.05 
   1  -4  14 1274.85  101.79 
  -6  12   1  380.88  216.46 
  -5 -14   6  466.24   64.40 
  -6 -12   1  348.39  225.35 
  -5  14   6  318.47  224.38 
  -5  14   6  392.45  202.06 
   1   4  14 1168.27   91.95 
   1   4  14 1236.79   82.50 
  -6  12   2   33.68   32.40 
  -6  10  -3  512.38   94.35 
   0  20   6   10.72   32.74 
   6  10   3  431.56  247.77 
   6  10   3  497.61   71.13 
  -6 -12   2   61.08   42.55 
  -6   7   8  211.75  109.58 
  -6  12   2   63.89   52.30 
   0  20  -6   39.86   43.73 
   0 -20   6   37.42   33.14 
  -6  -7   8  183.79  143.15 
   0 -20  -6   29.40   22.86 
   0  20  -6   40.61   28.16 
  -6  -7   8  174.67  142.94 
  -2  14  11 1129.68  101.75 
  -2 -14  11 1178.02  108.43 
   2   6  13  235.47   52.38 
   2   6  13  256.23  184.75 
   2  -6  13  324.64  208.63 
   5  15   2   18.77   25.95 
  -3 -18  -5   84.74   75.29 
  -5 -15  -2   38.02   43.03 
   3  18   5   16.81   35.85 
  -7   0   5   33.37   42.45 
  -3  18  -5   73.11   71.99 
   3 -18   5   51.91   45.38 
  -5  15  -2   -0.18   27.76 
  -1  21   4 1961.63   90.77 
   1  21  -4 2168.88  125.94 
   1 -21  -4 2177.36  126.77 
  -1  21   4 2024.25  127.42 
  -1 -21   4 2112.92  249.71 
   1  21  -4 2090.71  114.14 
  -4 -18  -1   77.60   42.08 
  -4  18  -1   25.27   30.30 
  -6  10   6 1195.33  145.72 
  -4  18  -1   35.43   47.69 
   4  18   1   56.41   53.68 
  -6 -10   6 1206.91  107.56 
  -4   3  13   14.13   39.85 
  -4  18   3  503.07  250.94 
   2 -20   4  386.49  167.60 
  -4  18   3  661.11  224.02 
  -4 -18   3  765.01   88.16 
   2  20   4  465.15  246.68 
  -2  20  -4  466.72   65.74 
  -2 -20  -4  639.56   91.43 
  -4  -3  13   13.43   26.57 
  -4  -3  13   36.23   34.45 
  -2  20  -4  511.96  154.29 
  -7  -1   5  218.28  147.58 
  -7   5   2   70.26   69.09 
  -7   1   5  194.20  146.30 
  -7   3  -1 1186.80  158.22 
  -2   6  14  599.85  210.59 
   7   3   1 1298.28   92.83 
  -3   2  14  121.34   70.72 
  -1  -7  14   56.79   43.75 
  -2   6  14  467.50  165.79 
  -3  -2  14   81.15   85.40 
  -2  -6  14  452.45  227.61 
  -1   7  14   72.36   62.91 
  -2  -6  14  539.70   83.36 
  -1  -7  14   42.16   33.20 
  -3   2  14   49.13   58.28 
  -1   7  14   28.38   45.71 
  -3  -2  14   72.13   41.70 
  -2  20   5  567.05   70.61 
  -2 -20   5  567.56  103.54 
  -2  20   5  504.67  175.27 
   2 -20  -5  487.11  181.38 
  -2  21  -1   75.43   79.51 
   2 -21   1  123.59   70.44 
   2  21   1  114.60   61.13 
  -2  21  -1  117.58  100.21 
  -2 -21  -1   91.12   63.90 
  -2 -21   2   29.30   45.29 
   2  21  -2   38.94   30.47 
   2 -21  -2   13.90   20.64 
  -2  21   2   29.18   25.51 
  -2  21   2   -5.01   24.15 
   4  15   6   38.74   27.78 
   4 -15   6   13.84   28.50 
  -4  15  -6   26.14   23.13 
  -7   5   1   16.53   16.35 
  -1 -20   6  352.84  111.93 
  -1  20   6  186.52  141.23 
   4  15   6   14.56   27.81 
   1 -20  -6  211.97  149.33 
   7   5  -1   12.01   19.52 
  -1  20   6  276.22  173.04 
  -5  -6  11 3575.89  220.60 
  -5   6  11 3772.92  173.50 
  -5   4  -9  598.03  243.70 
   4   8  10  818.13  258.89 
   5  -4   9  868.29  103.15 
   5   4   9  788.33  192.50 
   1  -9  13 1023.65  121.54 
   1   9  13 1126.24   83.03 
   4  -8  10  629.79  155.46 
  -4   8 -10  647.43   70.79 
  -5  -6  11 3568.74  130.88 
   3  -6  12  259.70  125.74 
   3   6  12  272.70  179.74 
   1   9  13 1108.56   91.12 
   0  22   0  490.09   71.11 
   6  11   2   20.23   42.97 
   6  11   2   75.44   49.87 
  -6  11  -2   46.05   55.28 
   0  22   0  556.96  180.45 
   0 -22   0  405.05  284.21 
  -3  20   1   23.86   43.00 
   3  20  -1   57.43   35.33 
  -3 -20   1   27.19   32.69 
   6   9   4   65.42   67.00 
  -6   9  -4   72.87   59.23 
   6   9   4   65.68   62.66 
   3 -20  -1   11.85   22.72 
  -3  20   1   38.19   37.82 
   6  -9   4   48.76   40.38 
  -6 -12   0   87.48   76.44 
  -6  12   0   98.40   79.41 
  -4  15   8   12.23   27.77 
  -6  11   5  842.38  121.25 
   5 -10   7  619.51   84.06 
  -7   4   4   83.18   38.34 
   5  10   7  557.99   48.75 
   5  10   7  593.91  257.66 
  -5  10  -7  642.15  284.04 
  -6  11   5  794.15  175.50 
  -6 -11   5  836.45  103.40 
  -3 -20   0 1045.35  104.31 
   3 -20   0  798.94   65.97 
  -6  12   3   82.62   92.20 
  -6 -12   3   85.41   70.30 
   3  20   0  902.53   84.70 
  -3  20   0  840.37  103.52 
  -6  12   3   65.11   58.00 
  -3  20   0  790.89  150.20 
  -3  -8  13   81.32   58.77 
   4 -16   5  227.25  173.98 
  -3   8  13   76.68   55.62 
  -3  -8  13   63.62   72.62 
   4  16   5  340.31  205.04 
  -4  16  -5  369.50  210.55 
   4  16   5  396.18  189.49 
  -7  -2   5   27.88   37.32 
  -6  -9   7   15.36   27.26 
  -7   2   5    4.39   31.52 
  -6   9   7   49.94   62.64 
  -4   8  12 2388.82  138.20 
  -1  18  -8   -0.57   29.57 
  -4  -8  12 2347.08  118.56 
  -4  -8  12 2293.87  154.61 
  -1  18  -8   -9.30   37.14 
   1 -18   8   39.22   37.05 
   1  18   8   -3.23   29.59 
  -3  19   5   46.39   53.36 
  -3 -19   5   39.83   70.95 
   1  18   8   50.22   55.63 
  -3  19   5   25.93   20.90 
  -7   5   3  794.64   73.43 
   7   5  -3  786.34   62.22 
  -7   5   3  827.75   92.85 
   0  22   1 1253.92  119.29 
   6   5   6   87.26   66.69 
   0  22  -1 1496.84   99.63 
   0 -22   1 1407.49  132.66 
   6  -5   6   75.20   62.17 
   0  22  -1 1382.85   77.27 
   0  22   1 1374.70  110.79 
  -6   5  -6   51.93   65.14 
   0 -22  -1 1443.29  113.73 
   3  12  10  656.80  108.32 
  -3  12 -10  851.55   99.83 
   3  12  10  781.61   72.69 
   3 -12  10  745.80   76.92 
  -4  16   7  301.54  160.72 
  -4 -16   7  392.55  259.50 
  -4  16   7  404.35  106.00 
  -2  18  -7  320.11  158.26 
   4   4  11  352.06  223.46 
   4  -4  11  394.95  229.78 
   2  18   7  563.72   93.63 
   2 -18   7  529.51  121.13 
   2  10  12  156.45   97.13 
  -2  18  -7  665.36   73.28 
  -5  -9  10  328.50  155.33 
  -4   4 -11  333.10  195.20 
   2  10  12  126.05   90.92 
  -5   9  10  361.46  226.31 
  -5  -9  10  356.10  118.08 
   2  18   7  476.03   69.48 
   2 -10  12  163.59   88.52 
   3  20  -2  260.42  147.53 
  -3  20   2  242.64  205.50 
  -3 -20   2  251.59  140.04 
  -3  20   2  230.26  159.53 
  -3  -3  14   72.70   71.77 
  -2  18   8  323.42  227.48 
  -3   3  14   91.04   61.80 
  -3  -3  14  139.32   78.33 
  -3   3  14   85.56   45.40 
  -2 -18   8  419.90  208.02 
   2 -17   8   41.68   31.19 
  -2  17  -8   26.61   49.06 
   2  17   8   19.30   37.64 
   2  17   8   63.18   28.74 
  -1  19  -7  141.51   43.74 
   1  19   7   87.91  113.97 
   1 -19   7  200.67   89.64 
   4 -14   7    8.06   21.82 
   4  14   7   41.03   50.07 
   4  14   7   35.06   41.72 
   1  19   7  232.00  135.21 
   5   8   8 1160.67  352.03 
  -1  19  -7  165.23   90.60 
   5  -8   8 1189.73   92.11 
  -4  14  -7   30.98   34.27 
  -5   8  -8 1177.56   91.38 
  -1 -13  12 1107.13  102.10 
  -6  -5   9  251.03  112.80 
   7   0   2   17.10   21.15 
  -2 -10  13   23.35   25.92 
  -2 -10  13    6.93   31.13 
  -7   0  -2    1.99   29.19 
  -2  10  13    6.78   20.83 
  -6   5   9  160.60  104.26 
  -2  10  13   46.54   48.60 
  -1  13  12 1072.75   80.33 
  -1  13  12 1217.72   91.36 
  -2  17   9 1435.54  110.67 
   0   7  14 1681.60  106.80 
   0   7  14 1418.08  106.54 
  -2 -17   9 1649.84  122.25 
   0  -7  14 1548.39   90.92 
   0  -7  14 1529.59  124.97 
   1  14  11  477.69  227.57 
   1 -14  11  441.13  226.06 
   7   5   0  135.40   97.21 
   1  14  11  397.85  216.73 
  -7   5   0  134.75  119.73 
   5 -13   5   74.80   41.44 
   5  13   5   61.03   33.26 
  -7   1  -2   11.27   24.77 
  -7  -1  -2   -1.31   25.10 
   7  -1   2   -1.12   18.25 
   5  13   5   99.40   68.11 
  -5  13  -5   49.41   50.32 
   7   1   2   21.00   14.20 
   1  -5  14  560.85   78.84 
  -5  16   1  120.00   57.03 
  -3 -13  11  120.86   74.76 
  -4   4  13  157.75   75.97 
  -4  -4  13   72.99   81.24 
  -3  13  11   57.56   65.21 
  -5 -16   1  127.26   95.90 
   1   5  14  544.58  123.50 
  -5  16   1  169.24   76.84 
  -4  -4  13  163.65   88.51 
   1   5  14  612.86   99.72 
  -3 -11  12 1366.80  127.06 
  -4  14   9  206.16  138.91 
  -3  11  12 1308.77  107.20 
   1 -12  12  161.15  108.46 
   1  12  12  143.08  103.97 
  -4 -14   9  220.88  113.65 
   1  12  12  111.97   68.03 
  -3 -11  12 1418.34  109.34 
  -7   4  -1 1113.25   89.98 
   7   4   1 1074.23  134.31 
  -5  11   9  111.54   75.51 
   1 -17   9   60.99   35.96 
   1  17   9   68.01   79.97 
  -5 -11   9  126.89   62.90 
   1  17   9   46.99   47.09 
  -5  15   5  176.02   59.31 
  -5  15   5  183.69  114.81 
  -5 -15   5  175.84   96.55 
  -7  -3   5  306.29  141.93 
   5 -14   4  412.06   74.53 
  -5  14  -4  377.88  207.41 
   5  14   4  345.00  203.42 
  -7   3   5  356.92  137.72 
   5  14   4  293.85  281.96 
  -5  16   2   22.64   42.50 
  -5 -16   2   44.80   35.60 
  -1  21  -4  336.63  173.11 
  -5  16   2   24.78   25.21 
   3 -20   1   49.57   63.19 
   3  20   1   73.92   55.20 
  -3  20  -1   75.25   78.04 
   1 -21   4  339.33  122.99 
  -3 -20  -1   80.85   47.67 
   1  21   4  287.35  121.70 
  -3  20  -1   69.86   41.35 
  -1  21  -4  224.86  153.62 
  -1 -21  -4  275.99  166.38 
  -3 -17   8  398.38  210.89 
  -3  17   8  467.71  260.11 
   0  13  12  205.09  170.44 
   0  13  12  224.84  133.57 
   0 -13  12  239.77  103.76 
  -2 -21  -2   28.61   25.47 
   2 -21   2   53.41   36.63 
  -2  21  -2   61.05   39.43 
   2  21   2   62.86   61.00 
  -2  21  -2   73.86   44.31 
  -7   2  -2  912.93   86.96 
   7   2   2  743.36   78.79 
  -7  -2  -2  855.28   64.20 
  -2 -21   3   30.32   65.39 
   3 -14   9   21.90   21.46 
  -2  21   3   36.94   31.13 
  -2  21   3   33.59   39.65 
   3  14   9   11.66   18.60 
   2 -21  -3   27.26   38.58 
   3  14   9   34.39   40.28 
   2  21  -3   36.56   15.92 
  -3  14  -9    8.60   39.50 
   2  21  -3   65.87   52.58 
  -2 -19  -6   33.15   37.28 
   2 -19   6   20.10   24.52 
  -2  19  -6   34.89   24.53 
   2  19   6  -16.23   31.30 
  -5  16   0  241.66  141.05 
  -2  19  -6   11.73   30.08 
  -5 -16   0  284.83  142.49 
   0  22  -2   61.10   47.19 
   0  22  -2   68.34   54.63 
   0 -22   2   69.10   67.02 
   0 -22  -2   66.61   42.52 
   0  22   2   94.69   81.48 
   5  -5   9 1619.73  169.75 
  -5   5  -9 1528.12  106.70 
   3 -10  11  279.82   95.67 
   3  10  11  164.62  134.09 
   3  10  11  252.26  170.21 
   5   5   9 1706.02  122.17 
  -4 -18  -2   26.25   35.84 
  -3  16   9  251.41  128.68 
  -3 -16   9  255.57  142.23 
   4  18   2   21.80   29.69 
  -4  18  -2    9.37   30.47 
   4 -18   2   10.60   18.96 
  -2 -19   7  343.18  178.96 
   1  22   0  184.94   83.16 
  -1 -22   0  100.03   68.20 
  -1  22   0  104.11   88.61 
  -2  19   7  255.78  195.64 
  -1  22   0  184.45   84.06 
   1 -22   0  109.21   86.59 
  -7   6   2   41.37   20.45 
  -6  12  -1   64.54   57.61 
   4 -11   9   46.94   36.69 
  -6 -12  -1   36.90   54.68 
   7   6  -2   32.57   38.18 
   4  11   9   14.78   39.84 
  -4  11  -9   41.81   44.98 
   4  11   9   56.99   33.43 
  -4  18   4  147.86   67.65 
  -4  18   4   85.58   51.98 
  -5   0  12   24.21   45.06 
  -4 -18   4  175.99  134.66 
  -1 -15  11  125.24   93.20 
   6   8   5   76.91   49.27 
  -1  15  11   90.39   65.91 
  -4 -17  -4  265.09  203.79 
  -1  15  11  136.96   84.94 
   4  17   4  232.16  146.58 
   4 -17   4  149.49  130.00 
   6  -8   5   60.13   52.96 
  -4  17  -4  334.61  139.45 
  -6   8  -5   45.81   38.46 
  -7   5   4  726.52   79.23 
  -6  12   4   49.85   36.04 
   5  12   6  151.67   77.22 
   2   7  13  166.98  113.25 
   5  12   6   56.86   63.33 
   2   7  13  106.53  127.05 
  -6 -12   4   20.78   40.08 
   5 -12   6  102.03   70.17 
   2  -7  13  162.13  102.68 
  -5  12  -6  137.49   89.87 
  -6  12   4   64.23   44.58 
   1 -22  -1  471.45  192.40 
   7   6  -1   61.75   83.58 
  -1  22   1  373.87  140.19 
  -1  22   1  306.95  163.49 
  -1 -22   1  427.55   97.46 
  -7   6   1   62.51   79.67 
   1  22  -1  404.37  255.97 
  -3  -4  14  105.81  101.50 
  -3   4  14  125.39  105.05 
  -3  -4  14  137.21  128.20 
  -5   1  12  -15.83   45.87 
  -5  -1  12   48.84   34.86 
  -4  17   6   40.43   41.25 
  -4 -17   6   20.36   51.85 
  -3   4  14  106.89   72.82 
  -4  17   6   61.66   43.04 
  -1 -11  13   82.94   48.91 
   3 -19   4 1064.59   80.87 
  -1  11  13   83.19   88.13 
  -1  11  13   42.41   48.29 
  -3  19  -4 1035.12  119.33 
   3  19   4 1185.78  101.58 
  -3 -19  -4  995.80  125.06 
  -3  19  -4 1044.42   68.14 
   2  16   9   72.54   58.36 
   2  16   9   75.87   48.14 
  -2  16  -9   56.92   32.81 
   2 -16   9   64.11   80.85 
  -4 -11  11  660.15  100.24 
  -4  11  11  593.34  263.77 
  -4 -11  11  662.54   95.26 
  -3  20   3   55.97   60.43 
  -3  20   3   23.43   35.39 
  -3 -20   3   75.00   64.91 
  -6   8   8  105.87   85.59 
  -2  -7  14  524.17  103.79 
  -6  -8   8   76.54   69.94 
  -6  -8   8  107.95   69.54 
  -2   7  14  443.21  136.59 
  -2   7  14  574.36  154.50 
  -2  -7  14  409.56  225.85 
   4  -5  11   47.52   43.66 
  -3 -18   7  495.37  268.60 
  -4   5 -11   54.38   53.47 
  -2 -16  10   31.43   35.87 
  -3  18   7  455.77   57.38 
  -2  16  10   28.22   34.51 
  -3  18   7  492.15  236.47 
   4   5  11   70.70   77.31 
   0 -15  11   44.33   52.61 
   0  15  11   19.06   56.76 
   0  15  11   36.96   43.84 
  -5  16   3  798.08  322.25 
  -5  16   3  847.26   78.65 
  -5 -16   3  699.04  271.00 
  -1 -20  -6   56.26   65.44 
  -1 -22  -1   33.24   41.62 
  -5  -7  11  803.98  234.53 
   1  20   6   99.25   49.70 
  -1  20  -6   80.99   82.29 
  -1  22  -1   55.91   55.33 
  -5  -7  11  766.97   67.83 
  -1  22  -1   75.49   53.59 
   3  -7  12   14.34   38.52 
   1 -22   1   34.35   57.60 
  -1  20  -6   93.20   41.71 
  -5   7  11  933.10  104.18 
   3   7  12   27.47   44.16 
   1 -20   6   76.76   42.36 
   1  22   1   64.33   59.29 
  -6   0  -7    9.24   18.43 
   6   0   7   14.63   13.38 
   0  21   5  892.07  167.84 
   7   6  -3  892.88   91.65 
   0 -21   5  954.27   91.18 
   6   6   6   35.17   31.02 
  -7   6   3  975.09  117.42 
  -7   6   3  893.79  122.27 
   6  -6   6    0.38   12.95 
   0 -21  -5  939.20  225.19 
  -6   6  -6   29.20   37.62 
   0  21  -5 1108.79  101.98 
   0  21  -5  932.55   80.98 
  -7   3  -2  230.54  150.16 
   7   3   2  233.65  100.19 
  -1  -8  14  188.55  103.60 
  -1   8  14  207.27  111.06 
  -7   4   5  412.15  135.98 
  -1  -8  14  312.11  152.41 
  -1   0  15 2130.05  118.37 
  -7  -4   5  398.61  150.55 
  -1   8  14  182.77  107.78 
  -1   0  15 2054.39  118.79 
  -5   2  12  546.81   92.76 
   6   1   7    9.54   22.45 
  -5  -2  12  556.23   77.17 
  -5  15  -3   29.18   36.00 
  -5 -15  -3   36.68   54.62 
  -4  -5  13   36.20   58.34 
  -4  -5  13   19.13   37.69 
  -4   5  13   62.17   53.48 
  -1  -1  15 1793.92  116.25 
  -1  -1  15 1950.83  123.99 
  -1   1  15 1910.85  114.74 
  -1   1  15 2043.45  126.55 
  -7   0   6   15.50   61.00 
   7   5   1  616.50   65.61 
  -7   5  -1  548.30   64.33 
  -4  13  -8   93.78   57.77 
   4 -13   8   73.06   44.39 
   4  13   8   28.52   31.29 
   4  13   8   67.04   99.81 
  -6   6   9  780.95   79.77 
  -6   0  10 2103.72  168.70 
  -6  -6   9  721.28  243.70 
  -7   1   6  160.04  129.17 
  -7  -1   6  172.63  128.14 
  -7   6   0   50.06   19.58 
   7   6   0   43.07   33.95 
  -1  22   2  706.92  133.20 
  -1 -22   2  779.65  234.77 
  -1  22   2  692.18  106.09 
   0  11  13  109.94   94.52 
   1  22  -2  813.42  149.79 
   0  11  13  149.89  106.42 
   1 -22  -2  889.15   82.42 
   1  22  -2  741.87   57.96 
   0 -11  13   93.98  113.48 
  -6  -1  10  214.66  175.88 
  -5  16  -1   39.84   37.92 
  -5 -16  -1   11.88   35.89 
  -6   1  10  334.92  163.52 
   5  16   1   18.89   35.36 
   1  -6  14  133.13   66.11 
   1   6  14   80.09   70.26 
   1   6  14  122.78   92.15 
   3 -20   2  361.04  186.30 
   4  -9  10   52.00   49.92 
   4   9  10   39.03   69.44 
  -4   9 -10   34.54   41.59 
   1 -16  10  592.29   69.67 
   1  16  10  617.38  186.44 
  -3 -20  -2  385.70  259.37 
   3  20   2  376.36  166.30 
  -3  20  -2  314.58  219.34 
  -3  20  -2  307.02  182.95 
   1  16  10  696.86   84.60 
  -4  13  10  212.26  108.90 
  -4 -13  10  163.63   99.50 
   6   2   7   36.47   31.97 
  -6   2  -7   20.07   31.44 
   6  -2   7    2.22   16.31 
  -1  21   5   11.78   16.31 
   1  21  -5   14.05   14.38 
   1 -21  -5   20.41   31.89 
  -1 -21   5   44.62   42.00 
  -1  21   5   25.55   36.45 
   1  21  -5    1.17   36.80 
  -3 -15  10   34.22   37.87 
  -3  15  10   25.83   38.82 
  -1  -2  15 2809.28  168.04 
  -1   2  15 3081.88  139.57 
  -1  -2  15 2903.58  132.63 
  -1   2  15 2779.15  138.99 
   6  11   3  192.07  188.09 
   6  11   3  267.48   39.59 
  -6  11  -3  245.12  162.18 
  -3  -9  13  159.44   76.50 
   2  13  11  227.53   70.41 
   2  13  11  295.43  149.12 
   2 -13  11  303.13  162.59 
  -3  -9  13  149.91   56.42 
  -3   9  13  137.60  101.58 
  -7   2   6   26.22   51.16 
  -7  -2   6    3.64   18.70 
  -4  -9  12   36.10   44.11 
  -5   3  12   52.67   46.33 
  -5  -3  12   64.87   47.52 
  -4  -9  12   33.95   64.67 
   1  10  13  123.97   77.07 
   1  10  13   71.66   59.42 
  -4   9  12   26.14   35.49 
   1 -10  13   48.57   57.32 
   6  10   4  373.48  151.98 
  -6  10  -4  423.61  241.94 
  -6  11   6   19.85   28.06 
   6  10   4  500.68   82.95 
  -6  11   6    9.12   37.14 
  -6 -11   6    8.26   20.73 
  -6  -2  10  469.02  250.01 
  -6   2  10  376.42  135.43 
  -2 -13  12  137.79   96.13 
   0   8  14   18.55   39.63 
  -2  13  12  190.53  110.05 
   0  -8  14    9.10   36.15 
   0   8  14   30.98   46.20 
   0  -8  14   28.66   38.34 
   5  -6   9  597.13  117.49 
  -5   6  -9  583.02  199.43 
   5   6   9  555.38  175.60 
  -3  -5  14  813.26  236.69 
  -3   5  14  734.78  169.54 
  -3  -5  14  986.86   98.97 
   0  22   3   92.70   66.14 
   0  22  -3  134.25   69.12 
  -5  14   7  154.11  129.74 
  -5 -14   7  181.59   88.93 
   0 -22   3  145.38   84.60 
   0  22  -3   75.33   47.33 
   0 -22  -3   58.36   64.71 
   7   4   2   46.86   21.24 
  -7   4  -2   56.30   38.80 
  -1  22  -2  385.40  204.41 
   1 -22   2  510.40   65.00 
   0  19   8   22.28   43.36 
  -1  22  -2  416.11  133.45 
   0 -19   8   39.26   42.84 
  -1 -22  -2  302.40  263.79 
   1  22   2  365.17  187.75 
   0  19   8   35.75   34.75 
  -6 -10   7  112.34   72.64 
  -6  10   7   49.33   63.18 
   0   0  15   17.01   25.39 
   0   0  15   25.39   54.71 
  -2  20  -5   14.42   29.56 
   2  20   5   28.61   35.77 
  -2  20  -5    9.30   24.11 
  -1  19   8   27.45   22.92 
  -7  -6   4   93.72   99.87 
  -5   9  -8  638.47  257.16 
  -1 -19   8   17.66   49.70 
   5  -9   8  466.69  232.48 
  -1  19   8   -3.41   40.19 
  -7   6   4  150.69   94.78 
   5   9   8  621.71  181.29 
  -2  20   6   15.84   22.25 
  -1  18   9   99.33   75.19 
  -1 -18   9   85.58   40.20 
  -5  13   8  276.98  150.35 
  -2  20   6   29.85   30.64 
  -5 -13   8  232.53  187.44 
  -2 -20   6   37.56   46.81 
  -1  18   9   49.06   58.52 
  -6  13   1  842.92   86.38 
  -2 -21  -3   89.83   75.29 
  -2  21  -3  127.35   62.25 
   2 -21   3   81.39   51.32 
  -2  21  -3   48.64   69.82 
   2  21   3   76.16   90.50 
  -6 -13   1  886.45  109.55 
   0  18   9  127.71  100.98 
   0 -18   9   82.59   82.81 
  -6 -13   2  145.95   96.48 
  -6  13   2  171.08  111.07 
   0  18   9  117.17   73.82 
   0   1  15   19.25   15.74 
   0  -1  15    5.60   32.25 
   0   1  15   -3.00   33.48 
   6  -3   7   13.52   30.18 
   2  21  -4   34.44   25.42 
   6   3   7   25.31   20.28 
   2  21  -4    7.81   26.84 
   2 -21  -4   15.71   20.76 
  -2 -21   4   38.13   47.55 
  -6   3  -7   22.39   34.59 
  -2  21   4   14.35   22.70 
  -5  10  10 1034.69  219.46 
   5  11   7  804.59   95.14 
  -5 -10  10 1079.61  124.38 
   5  11   7  774.59  189.58 
   5 -11   7  948.67  129.11 
  -5 -10  10 1158.13   91.40 
  -5  11  -7  998.62  324.31 
   7   7  -2   53.68   46.59 
  -7   7   2   62.24   57.57 
  -1   3  15  418.10  236.60 
  -1  -3  15  484.00   81.76 
  -7   5   5   25.71   33.60 
  -5 -16   4 2399.00  269.47 
  -5  16   4 2461.71  122.15 
  -1  -3  15  451.03   80.78 
  -5  16   4 2391.11  129.95 
  -1   3  15  445.84  123.85 
   6  12   2   36.33   58.79 
   6  12   2   73.17   54.91 
   3  17   7   19.59   24.03 
  -6  12  -2   72.04   63.94 
   3  17   7   24.75   39.97 
   3 -17   7   39.62   38.49 
   3   0  13 3014.49  150.79 
  -3 -19   6  493.93  308.81 
  -3  19   6  488.43  256.00 
   4   6  11   32.28   40.54 
  -3  19   6  542.75  185.90 
  -4   6 -11   36.87   35.74 
  -7   0  -3   16.84   25.06 
   4  -6  11   26.20   21.61 
   7   0   3   23.22   36.02 
  -7   7   1   20.87   39.01 
   7   7  -1   25.53   30.54 
  -7  -3   6   52.91   37.94 
  -7   3   6   69.59   32.94 
  -3 -20   4  806.22   91.61 
  -3  20   4  754.35  145.67 
  -3  20   4  867.78   77.65 
  -6 -12   5 1658.63  115.36 
  -6  12   5 1587.93  109.17 
  -6  12   5 1508.18  103.11 
   3  -1  13   55.74   29.91 
   3   1  13   63.93   76.27 
  -7   1  -3  618.12   71.16 
  -6   3  10  343.72  257.39 
   7   1   3  636.05   96.76 
   2 -11  12   29.30   27.22 
  -7  -1  -3  701.84   60.21 
   7  -1   3  596.23  116.26 
   2  11  12   32.73   24.78 
  -6  -3  10  461.18  209.04 
   2   0  14  255.63  185.19 
   2  11  12   -2.58   40.10 
   0   2  15   12.23   23.61 
   0   2  15   22.47   17.43 
   0  -2  15   19.38   24.29 
   0  -2  15   17.90   39.12 
  -4  18  -3  763.49  101.49 
   4  18   3  626.93  172.59 
   4 -18   3  710.45   64.30 
  -4 -18  -3  690.70   88.83 
   2   1  14  333.94  228.67 
   2  15  10   29.33   40.34 
   2  15  10   20.90   20.22 
   2  -1  14  477.40  251.08 
   2 -15  10   23.70   29.52 
  -2 -11  13  611.80   82.29 
  -2 -11  13  574.72  240.83 
  -2  11  13  609.05  239.34 
  -4  18   5   32.50   57.56 
  -4  -6  13 2154.91  139.17 
   2  -8  13  162.87  127.27 
  -2   0  15  -17.58   39.72 
   2   8  13  144.23  107.90 
  -5  15   6  698.36  260.73 
   2   8  13   85.74   89.14 
  -2   0  15   23.36   23.29 
  -5  15   6  953.40   88.39 
  -4  18   5   40.17   63.62 
  -5 -15   6  742.68   82.72 
  -4 -18   5   47.95   57.73 
  -4  -6  13 2015.22  121.87 
  -4   6  13 2037.10  221.52 
   3  18   6 1502.44  106.03 
   0  20   7  479.81  231.08 
   0 -20   7  479.27  180.59 
  -6  13   0   66.00   61.05 
  -6 -13   0   72.35   68.15 
  -5  -4  12   27.34   45.88 
   0  20  -7  441.40  220.00 
   0  20   7  480.79   65.23 
   0  20  -7  401.66  267.46 
   3 -18   6 1549.48  104.94 
   3  18   6 1489.28  128.38 
  -3  18  -6 1729.70  122.48 
   7   6   1  427.09   98.59 
  -7   6  -1  291.75  198.55 
   6  -7   6   58.40   37.86 
  -7   7   3  166.33  111.77 
  -2 -15  11 1518.74  123.39 
  -6   7  -6   53.59   28.89 
   6   7   6   61.74   63.61 
  -2  15  11 1491.44  110.27 
  -4 -19   1  508.84  280.89 
   4  19  -1  500.52   83.06 
  -1  22   3   61.98   38.40 
   1 -22  -3   72.55   58.48 
  -1 -22   3   73.85   66.81 
  -6  13   3  232.50  158.87 
  -6  13   3  312.09  259.90 
   1  22  -3   99.57   51.85 
  -6 -13   3  252.96  185.96 
  -4  19   1  553.95   86.58 
  -4  19   1  605.39   69.90 
  -1  22   3   67.02   62.83 
   1  22  -3   42.17   45.62 
  -2  -1  15  147.79   73.40 
  -2   1  15  105.92   90.07 
  -2  -1  15  119.13   74.48 
  -2   1  15  132.11  117.13 
  -2   8  14    7.02   24.30 
  -2  -8  14   13.00   26.60 
  -2   8  14   30.85   42.67 
  -2  -8  14   24.06   38.57 
  -6   9  -5   54.12   39.42 
   6  -9   5   21.29   40.22 
   6   9   5   39.44   35.13 
  -7   2  -3  968.52  117.97 
   3   2  13 1373.17  128.75 
   3  16   8    3.28   50.77 
   7   2   3 1032.55   82.60 
   3  -2  13 1173.32  222.66 
   7  -2   3  854.93   63.69 
   3  16   8   21.04   26.82 
  -3  16  -8   35.36   33.42 
   3 -16   8   14.73   25.19 
   3  13  10  151.78  120.74 
  -3  13 -10  159.27  127.69 
   3 -13  10  189.97  109.86 
   3  13  10  162.02   93.46 
  -1 -17  10   91.51  115.72 
  -1  17  10  114.59   63.68 
  -5   8  11  234.12  249.65 
   3  -8  12  979.72  224.74 
  -5  -8  11  319.75  107.97 
  -1  20   7   21.33   33.15 
   3   8  12  863.22  257.41 
  -1  17  10   94.11   86.63 
  -1 -20   7   75.21   42.46 
  -1  20   7   81.67   68.41 
  -5  -8  11  212.46  165.45 
  -1  21  -5   55.18   32.77 
   1 -21   5   85.09   42.72 
  -1 -21  -5   23.05   26.64 
   1  21   5   64.50   47.45 
  -1  21  -5   74.48   46.11 
  -6  -7   9 1515.45   91.29 
  -6  -7   9 1520.44  119.85 
   2  -2  14   -9.03   45.30 
  -6   7   9 1445.87  100.90 
   2   2  14   31.25   46.57 
  -4  19   0  -21.92   39.88 
   4  19   0   53.94   46.63 
  -4 -19   0   27.35   31.52 
  -3 -12  12  843.32   93.72 
  -6  -9   8   41.99   22.19 
  -5 -16  -2  354.45  181.68 
  -5  16  -2  434.95  203.59 
  -3  12  12  847.15   86.03 
  -4  19   2   10.33   38.32 
  -6   9   8   96.91   53.64 
  -4 -19   2   46.34   56.70 
   5  16   2  467.76   95.44 
  -4  19   2   38.03   35.45 
   6  -4   7   91.00   66.91 
  -6   4  -7   83.69  106.36 
   6   4   7  127.56   98.44 
  -5 -12   9   80.28   67.94 
  -5  12   9   39.35   36.78 
   7   7   0   11.66   16.62 
  -7   7   0    7.51   20.65 
   0  17  10  145.94  106.27 
  -7   5  -2   19.64   24.69 
   7   5   2   16.87   31.58 
   0 -17  10  158.87  115.48 
   0  17  10  191.75  129.48 
   1   7  14  210.19  124.78 
   1   7  14  206.52  164.33 
   1  -7  14  247.96  210.00 
   0   3  15  356.49   51.79 
  -2   2  15   27.76   29.62 
   0  -3  15  189.85  162.16 
  -2   2  15   31.71   41.04 
  -2  -2  15   49.96   23.81 
  -1  -4  15  614.07   96.27 
  -2  -2  15   26.06   39.80 
   0  -3  15  345.77  201.08 
  -1   4  15  590.37   93.28 
   0   3  15  263.84  153.82 
  -1  -4  15  619.12  194.02 
  -1   4  15  674.33   74.25 
   3 -11  11  207.50  188.35 
   3  11  11  209.70   93.15 
   3  11  11  302.47  156.80 
  -3  11 -11  222.53  142.20 
   4  16   6  208.96  139.68 
   4 -16   6  148.95   76.79 
   1  13  12 1074.32   93.80 
   4  16   6   99.47   91.27 
  -4  16  -6  155.07   90.87 
  -7  -4   6  189.55   89.44 
   1 -13  12 1104.87  127.25 
   1  13  12 1046.33   87.23 
  -7   4   6  250.91  117.37 
  -1  -9  14   18.56   31.11 
  -3  -6  14  141.86  111.77 
  -1   9  14   39.15   29.31 
  -1  -9  14   44.68   27.91 
  -3  -6  14   84.04   72.69 
  -3   6  14  126.91   99.23 
  -1   9  14   16.72   42.98 
  -3 -20  -3  358.85  240.94 
  -3  20  -3  334.12  219.87 
  -1 -14  12   44.55   49.88 
  -3  20  -3  149.26  170.35 
   3 -20   3  254.81  121.80 
  -1  14  12   31.01   20.24 
   3  20   3  290.38  142.83 
  -1  14  12   22.61   28.68 
  -6   4  10  780.30   93.52 
  -6  -4  10  756.66  130.91 
  -4 -16   8  -12.16   35.09 
  -5   0 -10   32.50   27.18 
   5   0  10    8.21   18.07 
  -4  16   8   29.51   36.99 
   5 -14   5   72.07   87.74 
  -5  14  -5   76.52   81.67 
   7   3   3  346.27  172.58 
   5  14   5   85.54   49.24 
   5  14   5   51.97   43.87 
   3  -3  13 1346.67  109.41 
   3   3  13 1343.61  111.65 
  -7   3  -3  345.56  183.45 
  -3 -14  11  155.48   85.46 
  -3  14  11  223.05  131.01 
   5  -7   9  108.22   88.49 
   4 -12   9  407.55  134.00 
   5   7   9  135.89   86.77 
  -4  12  -9  242.72  159.21 
  -5   7  -9  111.11   76.67 
   4  12   9  352.81  194.52 
   4  12   9  248.44  140.93 
  -1 -22  -3   14.88   36.79 
  -5   1 -10    8.61   23.00 
  -1  22  -3   24.33   27.59 
   1 -22   3   22.49   30.00 
   5  -1  10   22.48   39.37 
   1  22   3   20.32   58.48 
   5   1  10   23.86   33.21 
   4  15   7 1055.28  133.26 
   4  15   7 1319.36  141.12 
  -4  15  -7 1258.30  101.94 
   4 -15   7 1158.02   85.62 
   2   3  14   23.64   33.52 
   2  -3  14   51.29   35.39 
  -7   6   5   93.32   89.90 
   1  15  11   46.89   51.32 
   1 -15  11   52.01   53.48 
   1  15  11   39.57   22.49 
  -7   7   4  534.60  103.85 
  -7   7   4  634.18   82.64 
  -7  -7   4  623.57  109.40 
  -1  12  13   82.10   52.50 
  -1  12  13   58.16   50.08 
  -1 -12  13   90.05   68.11 
   4  17   5  259.76  251.24 
   4 -17   5  194.17  160.84 
   4  17   5  269.07  193.15 
  -4  17  -5  291.71  162.06 
  -3 -19  -5   16.11   28.46 
  -4 -12  11  976.39  344.92 
  -4  12  11 1082.45  100.56 
  -2   3  15  278.59  155.52 
  -6 -13  -1   11.92   24.19 
  -3  19  -5   28.02   40.85 
  -6  13  -1   17.83   48.77 
   3  19   5   13.27   20.56 
  -4 -15   9  991.77   89.58 
  -4  15   9  841.64  126.41 
   3 -19   5   17.23   20.21 
  -2  -3  15  224.67  214.47 
  -2  -3  15  357.98  190.53 
  -2   3  15  378.41  174.31 
   0  14  12   31.60   26.74 
  -5  -5  12  261.15  102.50 
  -5   5  12  246.24  130.73 
  -5  -5  12  247.29  121.57 
   0  14  12   10.40   26.34 
   0 -14  12   58.75   44.67 
  -4  19  -1 1650.06  116.89 
  -4 -19  -1 1700.17  129.24 
   4  19   1 1761.62  144.58 
  -4  19  -1 1384.20  100.30 
   5  15   4  834.80  182.10 
   5 -13   6  631.16  149.93 
  -6  13   4  337.55  129.67 
  -4  19   3 2314.72  125.97 
  -5  15  -4  850.36  101.63 
  -5  13  -6  837.43   98.82 
   5  15   4  760.59  179.40 
  -4 -19   3 2431.02  148.32 
   5  13   6  696.87  122.16 
  -6 -13   4  405.30  163.24 
  -4  19   3 2268.06  118.34 
   5  13   6  907.76  195.65 
  -6  13   4  421.49  139.28 
  -4  17   7  258.31  149.53 
   4 -10  10  833.80  219.12 
  -4  17   7  197.66  129.64 
   4  10  10  858.12  104.50 
  -4  10 -10  996.60   86.14 
  -4 -17   7  198.76  126.73 
  -5   2 -10  110.99   83.51 
   0  22  -4   27.23   15.63 
   0  22  -4   25.69   31.56 
   5   2  10  130.71  125.94 
   5  -2  10  242.78  138.05 
   0 -22  -4   15.37   41.82 
   0 -22   4    9.70   41.32 
   0  22   4   20.53   37.30 
  -7   0   7  918.97   85.18 
   4  -7  11  128.46   87.64 
  -4   7 -11   83.16   66.06 
   4   7  11   80.26   82.40 
   0  -4  15  199.07  157.46 
   0  -9  14 2244.42  206.55 
   0  -4  15  338.03   49.63 
   0   4  15  175.43  171.25 
   0   4  15  235.70  145.98 
   0   9  14 2243.12  121.86 
   0  -9  14 2161.22  116.67 
   0   9  14 2551.72  139.33 
  -7  -1   7   20.92   27.55 
  -7   1   7    0.75   31.75 
  -3 -10  13   24.02   38.42 
  -5  16   5   86.65   52.28 
  -3  10  13    4.18   40.35 
  -5 -16   5   96.31   51.65 
  -5  16   5  111.49   84.78 
  -3 -10  13    9.79   20.84 
   3  15   9  297.42  197.27 
   3  15   9  390.10  310.26 
   0  21   6  118.69   65.88 
   0  21  -6  112.22   69.91 
   3 -15   9  318.52  201.41 
   7   8  -2   27.82   57.60 
   0  21  -6  111.54   82.16 
  -3  15  -9  493.64  225.10 
   0 -21  -6   94.04   81.10 
  -7   8   2   53.28   62.73 
   0 -21   6  103.76   52.10 
  -4 -10  12 2180.38  196.38 
  -2 -22   1   22.25   24.59 
  -2 -22   0  123.20   77.18 
   6  -5   7  124.94   50.76 
  -4 -10  12 2203.38  443.95 
  -6   5  -7   34.73   54.71 
   2 -22   0   98.04   95.78 
  -2  22   1   -6.06   29.82 
  -2  22   0   72.02   83.26 
   6   5   7   81.11   76.77 
  -4  10  12 2110.15  146.92 
   2  22  -1   29.47   49.80 
   2 -22  -1   17.45   28.00 
  -2  22   0   81.24   71.42 
  -2  22   1   21.26   14.76 
   2  22   0   83.73   74.05 
  -5  17   1  653.54   77.57 
  -5  17   1  815.69  264.89 
  -4  -7  13  358.69  248.06 
  -5 -17   1  511.75  285.61 
  -4   7  13  531.46   95.38 
  -4  -7  13  325.71  216.18 
  -1   5  15  487.87  172.56 
  -1   5  15  507.64   71.71 
  -1  -5  15  514.48  189.46 
  -7   8   1  303.80  228.82 
  -1  -5  15  500.63  276.16 
   7   8  -1  229.96  197.34 
  -1  19  -8   84.20   88.06 
   1 -19   8   68.02   51.95 
   1  19   8   52.46   31.40 
   1  19   8   48.93   47.53 
  -1  19  -8   69.93   45.70 
   0 -12  13 2355.51  136.07 
   0  12  13 2162.31  122.84 
  -7   7  -1  978.10  150.93 
   7   7   1  778.69   83.99 
   2 -18   8   28.63   41.43 
  -2  18  -8   35.48   58.49 
   2  18   8   71.25   41.34 
   0  12  13 2048.11  388.19 
   2  18   8   63.58   43.06 
   3   4  13   66.31   64.35 
   3  -4  13   91.26   85.57 
   7   4   3  858.83   77.63 
  -7   4  -3  916.03   82.11 
  -7   5   6   21.57   34.13 
  -7  -5   6   40.32   36.55 
  -2  21  -4   26.66   44.60 
  -2 -21  -4   12.95   43.36 
  -2  21  -4   17.53   30.62 
   2 -21   4   13.83   24.68 
   2  21   4    5.66   30.38 
  -2 -18   9   11.38   37.61 
   1  11  13 1237.39  101.01 
   1  11  13 1208.23  143.55 
  -5  17   2  669.51  188.66 
  -2  18   9   13.43   33.18 
   1 -11  13 1302.27  170.95 
  -5  17   2  661.85  186.11 
  -5 -17   2  855.86  111.58 
  -2 -21   5  942.59  137.80 
  -2  21   5 1041.53  155.14 
  -2  21   5 1030.40   92.30 
  -6  11  -4  278.94  190.20 
   2   4  14   11.07   45.03 
   2  19   7  107.04   90.66 
   6  11   4  365.14   69.66 
   5  10   8 1831.19  314.61 
   2  19   7   94.22   81.88 
   2  -4  14   31.54   21.80 
   6  11   4  343.70   79.53 
  -2  19  -7  100.68   87.35 
  -7  -2   7  774.24  317.68 
  -5  10  -8 1907.76  125.78 
  -7   2   7  836.30  127.40 
   5 -10   8 1691.74  127.98 
   2 -19   7  160.12   77.08 
   7   6   2  140.88   68.03 
  -6  -5  10  730.26   86.84 
  -7   6  -2  201.95   86.55 
  -6   5  10  796.74  211.41 
  -1  21   6  975.87  190.69 
   1  21  -6 1045.11   80.83 
   1 -21  -6  989.15   88.37 
  -1 -21   6  913.42  376.44 
  -3 -20   5   36.82   35.46 
   6  12   3   42.74   41.34 
  -2 -19   8  120.29   88.71 
  -1  16  11    6.67   18.07 
  -3  20   5   26.37   25.39 
  -2  19   8  121.70   93.79 
  -3  20   5   21.31   29.42 
  -6  12  -3   37.41   41.36 
  -1  16  11   43.94   21.02 
  -1 -16  11    3.53   25.23 
   6  12   3   12.67   19.76 
   1 -22  -4  371.18   89.05 
  -1 -22   4  439.19  235.13 
   5  -3  10   42.14   31.35 
  -1  22   4  472.41  208.73 
  -5   3 -10   10.39   32.54 
   1  18   9    5.22   24.78 
   5   3  10    9.08   23.37 
  -1  18  -9   14.86   23.01 
   1  18   9   26.58   20.74 
   1 -18   9   18.44   33.30 
   1  22  -4  371.59  197.83 
   1  22  -4  238.61  206.42 
  -1  22   4  296.92   92.56 
  -3  21   1   59.93   37.77 
  -6   8  -6   90.16   85.20 
  -7  -8   3  101.76  133.01 
   6  -8   6   80.62   62.10 
  -3  21   1   28.81   33.26 
  -3 -21   1  106.32   71.13 
   6   8   6   98.69   74.08 
  -7   8   3  164.29   95.44 
   3  21  -1   57.66   75.32 
  -6  11   7   33.92   56.08 
  -6 -11   7   41.06   38.65 
  -5  17   0 1540.15  125.73 
   5  17   0 1235.83   99.04 
  -2   4  15  969.86  122.58 
  -2  -4  15 1062.86  143.62 
  -5 -17   0 1138.44  103.62 
  -2  -4  15 1072.14  106.87 
  -2   4  15 1227.88  113.40 
  -4  14  -8  433.51  219.98 
  -6 -12   6  431.13  217.04 
  -6  12   6  473.88  109.67 
   3 -21   0    5.90   20.50 
  -3  21   0   11.87   25.10 
   4  14   8  204.63  188.29 
   4  14   8  370.39  213.60 
  -3 -21   0    8.87   31.00 
   3  21   0   42.80   51.78 
   4 -14   8  432.42   60.64 
  -3  21   0   30.54   47.64 
  -6  12   6  439.70  120.00 
  -3  18   8   45.84   44.78 
  -3 -17   9  303.81  126.60 
  -2  22  -1   44.40   54.92 
  -3  17   9  181.04  200.65 
  -3 -18   8  154.69  113.20 
  -2  22  -1   55.15   27.16 
   2 -22   1   45.59   44.25 
  -2 -22  -1   69.31   71.67 
   2  22   1   34.17   35.06 
   2 -22  -2   13.64   20.20 
   2  22  -2   56.06   44.68 
   2  -9  13   25.25   25.98 
  -2  22   2   25.15   40.04 
   2   9  13   51.56   49.54 
  -2  22   2    8.07   36.94 
   2   9  13    8.58   19.12 
  -2 -22   2   20.59   30.37 
   1  20   7   39.86   26.44 
  -5 -11  10   25.93   45.03 
   1 -20   7   82.47   50.04 
   1  20   7   36.88   51.42 
  -1  20  -7   68.18   56.49 
  -1  20  -7   58.31   39.06 
  -5  11  10   35.83   51.61 
  -6   8   9   98.44   84.86 
  -6  -8   9  147.19   98.35 
  -4   0 -12   30.92   28.16 
  -6  -8   9   95.10   76.26 
   4   0  12   11.40   36.17 
   0 -16  11  144.07  116.18 
   0  16  11  175.86  102.59 
   0  16  11  142.89  119.22 
  -2  -9  14  281.38  150.58 
  -2  -9  14  302.11  130.45 
  -3   7  14 3662.81  187.76 
  -3  -7  14 3592.47  161.30 
  -3  -7  14 3910.26  172.90 
  -2   9  14  295.42  134.65 
  -2   9  14  184.07  106.89 
  -4 -14  10  193.30   72.58 
  -4  14  10  171.87  125.20 
  -7   8   0  117.75   76.73 
   7   8   0   54.24   61.24 
   4  -1  12   25.89   23.86 
   2 -17   9   16.66   33.92 
   2  17   9   21.54   27.93 
  -4  -1 -12   10.62   22.31 
   2  17   9   33.32   50.31 
  -2  17  -9   67.63   52.51 
   4   1  12   11.67   36.72 
  -4   1 -12   36.03   31.11 
   1  -8  14  266.34  204.44 
   1   8  14  269.50  182.15 
   1   8  14  246.45  159.19 
  -5  -9  11 2117.37  119.50 
  -5  -9  11 1773.45  125.15 
   3  21  -2  482.12  159.98 
  -3 -21   2  462.51  298.41 
  -3  21   2  443.05  255.21 
  -5   9  11 2194.91  144.27 
  -3  21   2  434.80  172.30 
   3   9  12   20.66   37.74 
   3  -9  12   11.31   19.52 
   0  23   0   19.17   34.41 
   4 -18   4   25.05   35.23 
  -4  18  -4   -4.03   40.33 
   0  23   0   28.15   25.27 
  -4 -18  -4   14.75   39.04 
   4  18   4   41.27   39.04 
  -7   3   7   26.98   53.35 
   5  12   7 1321.12  143.11 
  -5  12  -7 1446.96  115.52 
  -7  -3   7   30.44   39.08 
   5  12   7 1290.72   77.45 
   5 -12   7 1342.34   92.74 
  -2  17  10   12.62   29.19 
  -2 -17  10   54.44   54.25 
  -5  17   3  112.92   91.73 
  -5 -17   3  140.09   90.28 
   5  16   3  243.28  100.85 
  -5  17   3  120.72   87.80 
  -5 -16  -3   80.73  135.37 
   2  14  11  273.05  185.94 
   2  14  11  219.93  176.29 
   2 -14  11  282.98  170.43 
  -5  16  -3  139.27  110.66 
  -4   0  14 1128.58  127.37 
   0   5  15  104.49   65.55 
   0   5  15   79.99   75.54 
   0  -5  15  131.21   95.47 
   0  -5  15  105.65   74.01 
  -5  -6  12   -1.23   18.68 
  -4  18   6    7.32   24.90 
  -4  18   6   51.79   25.72 
  -5  -6  12   48.22   42.25 
  -4 -18   6   32.07   67.36 
  -5   6  12   -5.27   30.34 
  -6  10  -5  264.67  146.71 
   6  10   5  274.25  130.48 
   6 -10   5  198.24  126.15 
  -4 -19  -2   62.51   95.23 
   4  19   2   61.29   57.94 
  -4  19  -2   50.40   44.14 
  -2  14  12   26.81   30.35 
  -2 -14  12  -10.53   44.01 
   7   0   4   17.16   18.98 
  -4   1  14  570.49  237.05 
   1   0  15  407.34   89.97 
  -7   7   5   72.42   89.15 
  -4  -1  14  484.02  327.45 
  -7   0  -4    8.04   25.20 
  -4 -19   4   -5.77   44.99 
  -4  19   4    9.72   47.01 
   4   2  12  579.78  135.57 
   2  12  12   47.05   62.01 
  -4   2 -12  438.55  149.19 
   0 -23   1 1418.19  124.17 
   4  -2  12  628.23  258.67 
   2  12  12   62.07   34.51 
   0  23  -1 1262.56   83.17 
   0 -23  -1 1334.07  108.79 
   0  23  -1 1213.43  343.87 
   0  23   1 1350.11  121.04 
   2 -12  12  109.32   48.68 
   1   1  15  168.49  142.05 
   7   1   4    2.00   24.41 
   7  -1   4   31.93   24.19 
   1  -1  15  127.80   92.22 
  -7   1  -4    8.11   15.87 
   1   1  15  107.61  111.76 
  -3 -21  -1  425.13  228.60 
  -2 -20  -6   52.27  131.68 
  -2  20  -6  113.99   79.18 
   3 -21   1  386.54  118.03 
  -6 -10   8   76.44   61.33 
   3  21   1  410.60  190.72 
  -6  10   8   79.91   77.49 
   5  -8   9   10.90   15.24 
   2 -20   6  129.22  116.67 
  -3  21  -1  345.39  181.58 
   5   8   9   12.55   40.45 
  -2  20  -6  166.16   57.68 
  -3  21  -1  317.46  236.65 
   2  20   6   94.63   99.30 
  -5   8  -9   23.27   26.23 
   5  -4  10   21.65   20.01 
  -5   4 -10   32.76   35.74 
   6  13   2   27.55   32.64 
   6  13   2   13.86   26.14 
  -6  13  -2   29.21   39.36 
   5   4  10   34.25   31.62 
   7   5   3  237.98  125.08 
  -7   5  -3  212.34  124.60 
   3   5  13  187.84  169.70 
   3  -5  13  189.33  146.64 
  -2  12  13   94.89  118.94 
  -2 -12  13  142.66  109.45 
  -5 -14   8  582.13  267.09 
  -2  20   7  848.10  132.63 
  -5  14   8  646.97  103.17 
  -2 -20   7  972.19  117.87 
  -6  14   2   45.79   42.71 
  -3 -16  10 1813.63  231.16 
  -6 -14   1   81.01   83.62 
  -3  16  10 1897.98  135.42 
  -6  14   1  204.65  165.37 
  -6 -14   2   92.06   43.03 
  -3  19   7 1019.13   87.56 
  -3 -19   7 1032.55  120.34 
  -6 -13   5   17.30   47.89 
   6   6   7  596.03  101.31 
   6  -6   7  483.11  187.03 
  -6  13   5   25.41   34.87 
  -3  19   7  983.63   78.05 
  -6  13   5   14.44   32.70 
  -6   6  -7  603.66   77.16 
  -7   8   4   23.14   37.79 
  -7   8   4   26.13   63.33 
  -5 -15   7  316.41  126.05 
  -7  -8   4    8.47   38.44 
   2   5  14   42.25   67.97 
  -5  15   7  299.38  231.53 
   2  -5  14   29.60   26.87 
  -5  17  -1   39.40   64.88 
  -5 -17  -1   51.79   32.42 
  -1  22  -4 1195.06  187.82 
   1 -22   4 1157.68   95.85 
  -1 -22  -4 1089.46  239.55 
   1  17  10   25.76   29.66 
  -1  -6  15 1819.49  128.08 
  -1  10  14  270.12  171.78 
  -1  22  -4 1121.69  165.51 
  -1 -10  14  340.68  172.99 
  -1 -10  14  221.49  195.17 
   1  22   4 1129.33  294.28 
  -1   6  15 2028.06  127.10 
   1  17  10   25.48   48.57 
  -4  -2  14  992.78  133.70 
  -1  10  14  169.34  147.71 
  -1   6  15 1918.01  105.76 
   1 -17  10   44.84   30.94 
  -4  -2  14  807.98  139.73 
  -1  -6  15 2144.64  125.19 
  -4   2  14  911.56  271.09 
   3 -20   4   71.87   64.60 
   3  20   4   82.49   53.31 
  -3 -20  -4  140.60  112.53 
  -3  20  -4   96.17   60.80 
   7  -2   4   32.58   18.74 
  -7   2  -4    5.29   17.68 
  -2  -5  15   65.10   49.38 
   1   2  15  972.98   78.59 
   1   2  15 1142.44   89.77 
  -7   6   6  402.99  160.92 
  -2   5  15   67.96   71.99 
   1  -2  15 1078.17   98.64 
   7   2   4   -1.21   24.16 
  -2  -5  15   54.96   29.05 
  -2   5  15   70.86   58.68 
  -2  22  -2   12.78   16.26 
   4   8  11  371.08  223.69 
  -4   8 -11  423.60  184.70 
   2 -22   2    5.47   27.11 
   4  -8  11  504.91  120.85 
   2  22   2   53.25   57.14 
  -2  22  -2   25.37   22.23 
  -2 -22  -2   25.72   27.93 
   2 -22  -3   96.97   60.62 
  -6  -6  10  411.81  273.07 
  -6   6  10  383.16  254.73 
  -2  22   3  143.00   75.07 
  -2  22   3  151.88   93.75 
   2  22  -3  206.97  138.68 
  -2 -22   3  170.40   87.22 
   4   3  12 1984.21  210.75 
  -7  -4   7  954.03  101.47 
  -7   4   7  736.55  174.44 
  -4   3 -12 1935.14  105.68 
   4  -3  12 2056.91  206.34 
  -3 -21   3   71.14  117.43 
  -3  21   3   72.41   62.49 
  -3  21   3   60.74   53.15 
   3  21  -3   80.40  103.77 
   3  12  11   25.11   52.10 
   3  12  11   47.96   51.75 
  -6  14   0  646.63  208.21 
   3 -12  11   37.64   36.76 
  -6 -14   0  581.55   75.86 
  -3  12 -11   42.29   59.60 
   6   0   8   66.17   49.50 
  -7   7  -2   68.38   75.31 
  -6  14   3  345.06  168.88 
  -6  14   3  357.24  187.49 
   7   7   2   34.53   51.65 
  -6 -14   3  275.77  197.91 
  -4  -8  13 4182.77  204.48 
  -4  -8  13 3711.46  146.37 
  -4   8  13 3064.65  171.06 
  -1  21  -6  522.95   63.53 
   1 -21   6  470.32  256.02 
  -3  13  12  295.04  164.48 
  -1  21  -6  551.75   62.10 
  -1 -21  -6  476.06   96.72 
  -3 -13  12  329.41  203.33 
   1  21   6  490.74  228.71 
  -5  13   9   55.06   74.84 
   7   8   1  522.30   73.28 
   0 -23  -2  873.81  115.08 
  -5 -13   9   78.54   63.22 
   0  23  -2  729.71  309.31 
   0  23   2  817.44  117.94 
   0 -23   2  981.96   93.07 
   0  23  -2  878.76   77.83 
  -7   8  -1  641.13   99.91 
   6   1   8  150.82  102.49 
   6  -1   8  113.93  120.14 
  -6   1  -8  108.65   95.33 
  -1  23   0  132.97  138.65 
   1  23   0  245.94  121.07 
  -3  14 -10  179.15  107.21 
  -1  23   0  125.45  147.03 
  -7   9   2  196.79  210.41 
   3 -14  10  146.09  116.18 
   3  14  10  186.18  133.51 
   1 -23   0  235.33  130.37 
  -1 -23   0  193.46   80.57 
   3  14  10  133.52  106.00 
  -4   3  14   50.92   71.95 
  -4  -3  14   78.09   77.29 
  -4  -3  14   53.39   47.64 
  -1 -23   1  225.99  139.39 
   1 -23  -1  105.25  132.06 
  -1  23   1  185.97   97.39 
  -7   9   1   25.97   30.83 
  -1  23   1  185.73   93.89 
   7   9  -1    6.64   44.95 
   1  23  -1  140.08  113.75 
   0 -10  14  175.35  119.74 
   0  10  14   91.79  103.84 
   1   3  15   83.91  126.09 
  -5 -17   4   15.76   48.65 
   1  -3  15  191.48  158.00 
  -5  17   4   38.37   39.62 
  -5  17   4   39.56   36.81 
   7  -3   4   35.40   25.77 
   0  10  14  160.85   86.62 
   1   3  15  175.14  151.31 
   7   3   4   36.62   31.46 
  -7   3  -4   25.38   31.05 
  -6   0  11   12.14   27.53 
   2  16  10   28.49   40.99 
   2 -16  10   24.38   32.16 
  -2  16 -10   58.89   70.33 
   0 -22  -5 1815.00  124.05 
   0  22  -5 1582.89  119.50 
   2  16  10   56.45   36.85 
   0  22   5 1609.23  121.10 
   0 -22   5 1507.80  121.78 
   0  22  -5 1663.62  103.51 
  -5  16   6  761.29  176.69 
  -5  16   6  551.48  276.63 
  -5 -16   6  648.78   99.17 
  -3   0  15 1714.74   98.44 
  -3   0  15 1929.47  128.63 
   0  -6  15  916.35  230.68 
  -4  11 -10  161.51   82.97 
   0  -6  15  777.03   69.41 
   0   6  15  821.54   87.51 
   4 -11  10  233.79  140.80 
   0   6  15  840.51   82.39 
   4  11  10  173.98  137.80 
   5  -5  10  336.44  106.25 
  -6  -1  11   33.91   35.71 
  -5   5 -10  366.61  175.16 
   5   5  10  336.26  210.82 
  -6   1  11    4.07   28.59 
   6  -2   8   52.83   31.50 
  -6   2  -8   52.70   31.33 
  -2  16  11 1115.22  104.87 
  -2 -16  11 1039.39  105.21 
  -3  -1  15 1195.62   92.01 
  -3  -1  15 1166.38  329.31 
  -3   1  15 1453.71   92.79 
  -3   1  15 1411.59  124.09 
   4 -13   9   13.38   25.35 
   3  21   2   71.59   55.76 
   3 -21   2   60.21   68.69 
   1  14  12   59.48   27.91 
   1  14  12   60.98   52.03 
   4  13   9   25.89   33.71 
   4  13   9   -5.41   49.57 
  -3 -21  -2  103.08   85.13 
  -4  13  -9   14.49   36.92 
  -3  21  -2   96.79   67.73 
   1 -14  12   43.71   41.29 
  -3  21  -2   86.14   71.71 
  -1  23  -1  730.88  155.63 
  -1  23  -1  651.63  138.26 
  -1 -23  -1  699.09  146.58 
   1 -23   1  769.77   90.35 
   1  23   1  635.73  153.90 
  -6   9  -6    6.56   48.12 
   6  -9   6    9.90   22.33 
  -7  -9   3   75.98   95.54 
  -7   9   3  132.20   90.08 
   6   9   6   26.35   24.32 
  -1  19   9   83.69  105.74 
  -1 -19   9  102.91   79.66 
  -1  19   9  146.13  116.15 
   3  18   7    6.72   36.36 
   3 -18   7   13.85   27.44 
  -3  18  -7   24.27   31.21 
   3  18   7   22.83   27.27 
  -3 -11  13  800.64  109.60 
  -3  11  13  875.12   94.95 
  -3 -11  13  790.83   83.03 
   0  19   9 2483.95  135.20 
   0  19   9 2031.41  124.61 
   0 -19   9 2298.63  139.21 
  -4  11  12   51.06   75.66 
  -4 -11  12   60.81   43.49 
  -5   7  12  226.76  223.58 
  -3  -8  14   65.41   44.77 
  -3   8  14   30.89   47.71 
  -5  -7  12  354.73  152.63 
  -5  -7  12  384.89  183.67 
  -3  -8  14   50.85   52.24 
  -4 -11  12   54.36   57.43 
   3  -6  13  300.80  217.79 
   3   6  13  266.36  200.82 
  -1  13  13   62.07   32.78 
  -7   6  -3  101.14   86.36 
   4  -4  12   24.48   46.40 
  -4   4 -12   41.78   37.03 
   4   4  12    0.78   16.25 
  -1  13  13   51.18   59.63 
   7   6   3   86.19   77.73 
  -1 -13  13   49.75   73.16 
   0 -20   8  133.74   97.11 
   0  20   8   77.89   87.21 
   0  20   8   95.08   72.54 
  -4  13  11 1737.86  169.38 
  -4 -13  11 1722.95  116.07 
  -6  -2  11  177.16  150.98 
  -6   2  11  146.53  142.54 
  -1 -22   5   43.77   62.52 
   1  22  -5   29.36   28.82 
   3  17   8  870.40  159.13 
   3 -17   8  691.43  263.36 
   3  17   8  726.59  237.00 
   1  22  -5   28.11   39.25 
   1 -22  -5   30.16   38.71 
  -1  22   5   43.25   51.29 
  -3  17  -8 1073.42  109.46 
  -6  -9   9   33.03   33.57 
  -1 -15  12  615.14  107.96 
  -1  15  12  551.25  224.42 
   2  -6  14  219.65  116.62 
  -1 -20   8 2235.07  132.59 
  -6   9   9    8.75   35.20 
  -6  -9   9   -0.17   18.98 
  -1  20   8 2156.85  131.91 
   2   6  14  117.15   80.17 
  -1  15  12  590.30   62.79 
  -1  20   8 2038.10  116.56 
  -3   2  15 1033.31   76.05 
  -5   0  13   42.35   53.77 
  -3  -2  15 1033.08   84.60 
  -3  -2  15 1028.43   96.66 
  -3   2  15 1131.70  109.19 
  -7   9   0   21.12   34.70 
  -7   5   7   19.30   36.90 
   7   9   0   12.86   31.81 
  -7  -5   7    4.51   40.29 
   1  23  -2   13.59   28.11 
  -5  15  -5   29.23   34.65 
   5  15   5   31.57   46.60 
   5  11   8  879.38  322.94 
  -5  11  -8 1056.35  303.58 
  -1 -23   2   24.96   49.21 
   5 -15   5   11.50   21.30 
  -1  23   2   -3.32   20.71 
   1 -23  -2   39.25   53.59 
   5 -11   8 1221.42  167.12 
  -1  23   2   15.23   20.13 
  -5  -1  13 1021.69  102.96 
  -3 -15  11  118.68   89.55 
  -3  15  11   69.79   66.33 
   2  10  13  528.12   85.90 
   1   9  14  380.36   66.88 
   1  -9  14  301.75  179.12 
   2 -10  13  396.97  252.60 
   2  10  13  413.51  185.64 
   1   9  14  279.12  233.34 
  -5   1  13 1099.03  104.45 
  -5  17  -2   28.75   26.86 
  -4   4  14  648.75   85.52 
  -4  -4  14  652.58   73.91 
  -6 -14  -1   31.24   43.23 
  -2   6  15   17.31   35.37 
   5  17   2   70.30   50.88 
  -2   6  15   17.10   20.08 
  -2  -6  15   17.98   22.67 
  -7   8   5    8.23   26.34 
  -4  -4  14  472.01  197.99 
  -6  14  -1   54.28   53.49 
  -5 -17  -2   63.61   80.59 
   2  21   5 1052.95   91.68 
   2 -21   5  975.90  110.82 
  -4  19  -3 1052.26   94.67 
   4  19   3  910.74   97.84 
  -6   7  -7   12.58   43.75 
   6  -7   7   39.09   52.02 
  -4 -19  -3 1036.57  102.78 
  -2 -21  -5 1108.81  110.67 
  -2  21  -5  900.10   79.98 
   6   7   7   87.09   48.88 
  -2  21  -5  867.03  168.40 
  -7   0   8   28.71   35.83 
  -6   3  -8   29.67   42.63 
   6  -3   8   38.07   51.10 
  -3  20   6   93.42   62.89 
   6   3   8   74.18   35.94 
  -3  20   6   54.28   34.94 
  -3 -20   6  125.36   88.82 
   5 -14   6  197.17  144.71 
  -2  21   6   41.24   48.49 
  -2  21   6   47.02   40.55 
  -6  14   4   59.42   53.61 
  -5  14  -6  361.97  152.81 
  -6 -14   4   92.66   85.22 
   5  14   6  154.36  172.10 
  -2 -21   6   54.66   44.99 
  -6  14   4  104.03   68.51 
   5  14   6  219.23  150.07 
   1  -4  15 1152.55  107.60 
  -3  19  -6   77.78   60.06 
  -4  19   5  807.64   81.45 
  -7   4  -4  187.31  144.66 
  -1   7  15   88.59   98.11 
  -4 -19   5  557.17  237.05 
   7   4   4  218.51  134.80 
   1   4  15  966.37   83.57 
   3  19   6   36.83   31.60 
  -1   7  15  188.35  144.15 
  -1  -7  15  184.70  106.35 
   1   4  15 1015.15   87.97 
  -4  19   5  619.57  157.70 
   3  19   6   33.62   48.76 
   3 -19   6   26.87   32.02 
  -1  -7  15  162.33  110.28 
  -1  18  10  250.81  117.33 
  -1  18  10  157.65   82.11 
  -2 -10  14   19.33   17.97 
   1  12  13   15.34   32.57 
  -2  10  14   26.85   38.80 
   1 -12  13   28.24   33.27 
  -1 -18  10  148.44   92.32 
   1  12  13   48.47   41.04 
   6  12   4   22.30   42.75 
   6  12   4   20.01   22.76 
  -7   1   8  223.90  122.86 
  -7  -1   8  197.16  122.22 
  -6  12  -4   31.42   32.61 
  -7   7   6   68.12   32.33 
   4 -17   6   10.05   17.94 
  -4  17  -6   43.11   49.95 
   4  17   6   33.87   54.05 
   4  17   6   45.16   44.70 
   3  10  12  413.19  288.51 
   3  10  12  407.45   77.29 
  -5 -10  11  145.26   64.61 
   3 -10  12  471.79  252.28 
  -5 -10  11  124.15   61.34 
  -5  10  11  112.05   77.64 
   0 -15  12  286.25  245.94 
   0  15  12  255.03  211.82 
   0  13  13 1303.32  149.60 
   0  13  13 1365.56  138.79 
   0  15  12  267.41  225.41 
   0 -13  13 1507.02  108.12 
   4  16   7   78.26   75.32 
   0 -18  10   18.24   37.05 
   4 -16   7   53.58   35.42 
   0  18  10   22.92   39.40 
   4  16   7   29.07   35.11 
  -4  16  -7   35.76   35.91 
   0  18  10   69.03   44.08 
  -5   2  13   10.74   39.83 
  -6  -7  10  673.25  304.34 
  -6   7  10  647.87   84.92 
  -5  -2  13    6.20   33.12 
  -2 -22  -3 1541.47  125.59 
  -6 -12   7   24.50   32.27 
  -2  22  -3 1550.31  105.83 
   2 -22   3 1533.73  131.11 
  -2  22  -3 1502.57  115.15 
   2  22   3 1489.49  116.31 
  -5   9  -9   67.19   70.20 
  -6   3  11   25.72   45.78 
  -3  21   4   21.46   20.96 
   5  -9   9   65.99   54.36 
  -3 -21   4   14.93   38.38 
  -3  21   4   20.49   63.30 
  -6  -3  11   75.79   82.91 
   5   9   9  132.69   48.87 
  -2  22   4   61.51   57.20 
   1  16  11   62.99   33.67 
  -2  22   4   43.80   31.73 
  -2 -22   4  110.61   67.02 
  -4  17   8   84.52   76.08 
   2  22  -4   91.05   77.31 
  -4 -17   8  105.29   46.18 
   1 -16  11   55.31   46.45 
   1  16  11   33.06   43.77 
   0  23   3  508.79  220.66 
   0  23  -3  514.39   58.27 
   0 -23  -3  755.18   84.49 
   0  23  -3  504.01  249.40 
   0 -23   3  483.41   68.46 
  -4 -20   1 2246.66  147.81 
  -4  20   1 2035.99  114.33 
  -4  20   1 2089.86  144.40 
   4  20  -1 2023.49  126.28 
  -4  16   9    9.79   17.40 
  -1  23  -2 2078.35  127.64 
  -3  -3  15  775.90   83.68 
  -3   3  15  560.59  297.23 
  -1  23  -2 1937.70  147.66 
   1 -23   2 2143.19  142.42 
  -1 -23  -2 2107.89  136.61 
  -3  -3  15  773.69   90.05 
   1  23   2 2213.10  135.37 
   6  13   3   17.01   34.62 
  -6  13  -3   12.09   29.93 
   6  13   3   16.25   29.23 
  -7  -2   8   14.76   35.76 
  -7   2   8   11.98   48.32 
  -5  12  10  445.96  175.47 
  -7   9   4  801.58  148.23 
  -7   9   4  737.45   66.92 
  -5 -12  10  436.60  241.36 
  -7  -9   4  761.15   91.71 
  -5  16  -4  328.32  183.94 
   5  16   4  201.97  178.57 
   5  16   4  195.87  153.63 
   0 -21   7  337.29  250.99 
   0  21   7  318.04  218.45 
   0  21  -7  243.62  216.74 
   0  21   7  221.01  168.68 
   0  21  -7  491.76   65.57 
  -6  11  -5   47.31   65.71 
   6  11   5  112.38  111.93 
  -6 -13   6   21.89   40.51 
  -6  13   6   39.04   41.24 
  -4 -20   0  405.90  209.60 
  -4  20   0  609.09  109.10 
  -4  20   0  355.00  168.74 
   4  20   0  393.84  256.28 
  -4  20   2   74.14   75.63 
  -4  20   2   87.05   37.19 
  -4 -20   2   26.00   65.14 
  -5   6 -10   40.66   43.29 
   5  -6  10   56.97   28.36 
   5   6  10    9.46   45.38 
  -4   9 -11   53.57   30.44 
  -4   5 -12  987.57  123.99 
   4  -5  12 1053.34  152.88 
   4   9  11   -2.27   43.81 
   4   5  12  926.27  118.31 
   4  -9  11   46.66   41.27 
  -7   8  -2   14.25   22.19 
   7   8   2   24.76   22.47 
  -1 -21   7   92.31   61.31 
  -1  21   7   49.72   43.79 
  -1  21   7   95.99  101.80 
  -3  16  -9   22.74   40.09 
   3  16   9    9.71   26.95 
   3  16   9   14.79   30.53 
   3 -16   9   35.30   29.90 
  -6  11   8  208.01  190.53 
  -6 -11   8  219.91  145.06 
   6   4   8   36.78   68.06 
  -6   4  -8   36.26   46.28 
   6  -4   8   46.49   47.74 
  -5   3  13  787.98   99.21 
  -5  -3  13  689.89   86.53 
   4  18   5  507.01   59.12 
   4  18   5  330.30  238.20 
   4 -18   5  434.40   62.90 
  -4  18  -5  343.09  275.64 
   0  -7  15  140.29   91.46 
   0   7  15  140.03   92.18 
   0   7  15  162.51  119.50 
   0  -7  15  217.99  143.97 
   5  13   7 1543.71   87.16 
  -5  13  -7 1710.47  148.20 
   5  13   7 1638.67  125.40 
   5 -13   7 1445.54  117.16 
  -5 -17   5   30.68   34.67 
  -5  17   5    8.59   28.75 
  -5  17   5  -10.49   35.16 
  -4  -5  14  212.96   54.75 
  -4  -5  14   94.20  108.92 
  -4 -18   7 1294.60  133.14 
  -4   9  13   38.05   39.67 
  -4   5  14  148.39  138.95 
  -4  18   7 1210.55  103.25 
  -4  -9  13   11.86   27.37 
  -4  -9  13   43.46   47.20 
  -4  18   7 1190.26   98.07 
  -1  11  14   29.56   36.71 
  -1 -11  14   29.41   47.44 
  -1  22  -5   54.60   27.70 
  -1 -22  -5   19.50   43.60 
  -1  22  -5   45.33   51.81 
   1 -22   5   27.93   34.34 
  -7   3   8 1002.01  114.66 
   7   9   1  518.57   97.84 
  -7  -3   8  837.99  307.02 
   1  22   5   10.70   25.22 
  -7   9  -1  477.08  265.18 
   4  15   8   22.38   60.57 
  -4  15  -8   26.69   55.23 
   4 -15   8   13.28   51.09 
   4  15   8   29.76   41.95 
   1 -23  -3  110.78   93.64 
   1  23  -3   80.85   75.35 
  -1  23   3  153.62   87.57 
  -1 -23   3  151.68   82.17 
   1  23  -3  153.63   82.89 
  -1  23   3   80.38   81.21 
   7   5   4   96.68   64.79 
   1   5  15    0.68   16.97 
   1   5  15   43.04   54.62 
  -7   5  -4   28.40   21.72 
   1  -5  15   26.34   37.79 
  -6  -4  11   30.70   80.36 
  -6   4  11   89.26   61.24 
  -3  21  -3   34.73   37.81 
   3   7  13   48.34   69.35 
   3  -7  13    8.60   39.56 
   2 -13  12  116.70   82.47 
  -7   7  -3  926.06   88.92 
  -7  -6   7 1527.92  122.56 
   3 -21   3   35.50   20.24 
  -7   6   7 1463.91  161.22 
   3  21   3   27.53   37.47 
  -3 -21  -3   52.57   33.22 
   2  13  12   78.49   62.83 
   2  13  12   62.52   99.42 
   7   7   3  743.94  174.56 
  -3  -4  15   53.21   50.03 
  -3   4  15   38.12   58.35 
  -3  -4  15   40.42   60.24 
  -4 -15  10   75.25   60.30 
  -4  15  10   82.16   56.24 
   2  -7  14  358.74   61.23 
   2   7  14  235.21  119.90 
  -5 -18   1   97.82   72.87 
  -2  13  13  411.72  219.95 
  -5  18   1   88.61   81.02 
  -2 -13  13  466.43  233.83 
  -7 -10   2 1655.65  139.45 
  -7  10   2 1387.22  222.59 
  -5  -8  12   -4.04   49.84 
  -3 -20  -5  346.63  253.69 
   3  20   5  446.73   63.74 
  -1  17  11  125.50   62.90 
  -5   8  12   15.72   49.73 
  -3  20  -5  312.91  186.26 
  -1 -17  11  104.28   69.81 
  -1  17  11  108.41  105.35 
   3 -20   5  285.22  231.12 
  -5  -8  12   24.22   33.04 
  -4 -20  -1  156.63  112.32 
  -4  20  -1  112.21  109.67 
   4  20   1  142.18   70.13 
   2  15  11   19.73   53.55 
   2  15  11   29.66   32.47 
   2 -15  11    2.22   34.63 
   7   0   5   25.45   21.33 
   7  10  -1    1.61   35.59 
  -4  20   3  432.29  226.32 
  -4 -20   3  480.36  291.85 
  -2  -7  15   31.08   24.04 
  -2   7  15    4.20   30.43 
  -2  -7  15   56.51   41.97 
  -4  20   3  525.37  126.57 
  -7  10   1   10.47   44.45 
  -2   7  15   32.26   47.12 
  -5 -18   2  528.17  289.38 
  -5  18   2  427.78  188.21 
  -5  18   2  509.36  211.38 
   6  14   2   80.08   92.10 
  -6  14  -2  116.15   57.97 
   6  14   2   89.82   65.66 
   7  -1   5  184.56  207.17 
  -7   1  -5  171.21  154.86 
   7   1   5  298.35   72.15 
  -2  15  12   48.24   42.31 
  -2 -15  12    5.89   29.34 
  -3   9  14  820.77   94.66 
  -3  -9  14  697.15  342.67 
  -3  -9  14  934.15   98.42 
   2 -19   8  167.39  169.69 
   2  19   8  152.17   83.70 
  -6 -14   5  304.47  142.02 
  -6  14   5  248.48  133.80 
   2  19   8  275.14  151.70 
  -6  14   5  266.15  156.68 
  -2  19  -8  235.44  205.12 
   0 -17  11   27.82   51.60 
   0  17  11   14.86   29.84 
  -5   4  13  136.46   64.19 
   0  17  11    7.23   18.57 
  -5  -4  13  100.38   83.22 
   0 -11  14 2057.32  364.01 
   0  11  14 1980.68  116.03 
   0  11  14 2335.78  125.88 
  -5  18   0  403.21   69.03 
   5  18   0  239.01  234.80 
  -2  19   9   30.36   59.79 
  -2 -19   9   25.24   30.41 
  -5 -18   0  339.09  194.03 
   6  -8   7  711.32   68.56 
   6   8   7  481.46  261.23 
  -6   8  -7  526.15  122.53 
  -3 -18   9  199.53  156.09 
  -3  18   9  255.87  186.45 
   6  10   6   14.39   42.63 
  -7  10   3  207.60  148.39 
  -7 -10   3  201.48  122.31 
   6 -10   6    8.68   14.36 
  -6  10  -6   -5.91   38.73 
  -5 -15   8  756.43  107.57 
  -5  15   8  774.61   91.44 
  -6  15   1  165.63   81.61 
  -6 -15   2   78.65   70.53 
  -6  15   2   32.54   26.15 
  -6 -15   1  178.10  124.54 
   3 -13  11   91.38   92.67 
  -1  -8  15  594.24  250.10 
   3  13  11   57.49   83.85 
   1  20   8   16.02   26.09 
   1 -20   8   27.11   21.77 
  -1   8  15  743.86  110.46 
   1  20   8   17.99   37.61 
  -1   8  15  778.84   74.07 
   3  13  11   87.85   96.53 
  -1  20  -8    5.48   26.79 
  -1  20  -8    7.52   39.93 
  -3  13 -11  131.03  100.17 
  -1  -8  15  728.18   81.49 
  -1  19  -9   19.17   32.34 
  -7   4   8  192.24  157.95 
  -1  23  -3   43.20   48.49 
  -1  19  -9   36.91   39.71 
  -1 -23  -3   38.89   30.63 
   1 -19   9   15.37   17.72 
   1 -23   3   19.22   36.15 
  -7  -4   8  184.59  153.69 
   1  19   9    3.05   27.40 
   1  23   3   34.07   33.60 
  -1  23  -3   69.02   28.60 
   1  19   9   19.26   43.59 
   6  -5   8   73.71   59.85 
  -6   5  -8   56.48   68.93 
   6   5   8   74.60   67.60 
   7  -2   5  528.76   56.08 
  -7   2  -5  313.77  236.71 
  -5 -17  -3   15.16   73.20 
   7   2   5  510.59   84.73 
  -5  17  -3  114.42   97.54 
   5  17   3   83.68   41.76 
  -7  -9   5  434.44  162.68 
  -7   9   5  583.25   61.35 
  -7   8   6   72.70   81.82 
  -4   6 -12   72.23   52.91 
  -6 -10   9   76.85   35.78 
   2 -20   7  212.53  169.53 
  -2  20  -7  185.53  153.16 
   2  20   7  146.51  139.55 
   2  20   7  183.09  136.24 
   4  -6  12   56.55   72.76 
   4   6  12   77.06   69.32 
  -6  10   9   44.28   64.42 
   2 -18   9  133.31  117.70 
   2  18   9  170.72   97.90 
  -6  -8  10  125.74   79.97 
  -3 -19   8   72.90   69.40 
  -3  19   8   79.68   42.95 
  -2  18  -9  221.43  194.33 
   2  18   9  165.78  161.81 
  -6   8  10   97.90  109.07 
   4  12  10  266.20  176.27 
   4 -12  10  144.94  105.43 
  -4  12 -10  224.96  119.27 
  -2  20   8   54.15   71.77 
  -2 -20   8   42.84   45.67 
  -7  10   0   31.98   27.53 
   7  10   0   14.90   44.53 
  -2 -18  10  173.11   82.95 
  -5 -16   7    8.29   32.92 
  -2  18  10  148.23  138.41 
  -5  16   7   15.45   19.07 
  -5  16   7   11.69   31.36 
  -5 -18   3  406.52  261.10 
   1  10  14 1985.62  113.15 
   1 -10  14 1801.58  169.22 
  -5  18   3  314.47  195.80 
   1  10  14 1818.23  122.65 
  -5  18   3  351.21  270.37 
  -3  14  12  754.45  302.00 
  -3 -14  12  972.91   94.85 
   0  22  -6    5.41   18.57 
  -6   5  11  171.26  138.98 
   0 -23   4  254.55  180.26 
   0 -23  -4  203.09  131.45 
   0 -22   6   16.57   45.43 
   0  23  -4  221.89   89.65 
   0  23   4  247.81  202.94 
   0 -22  -6   -9.07   31.11 
   0  22   6   -4.09   42.69 
   0  23  -4  207.44  191.72 
  -6  -5  11  155.35  134.54 
   0  22  -6   19.06   42.18 
  -5   7 -10  960.57  318.60 
   5  -7  10  929.76  165.70 
  -5  14   9  281.46  172.92 
  -5 -14   9  303.26  244.33 
   5   7  10 1140.55  176.94 
  -3 -12  13    6.42   38.85 
  -3  12  13   67.71   40.21 
  -3  -5  15  639.67  118.48 
  -3  -5  15  625.76  156.09 
  -4  -6  14  443.60   69.44 
  -4   6  14  319.28  259.40 
  -4  -6  14  368.70  239.22 
  -3 -17  10  952.33   92.74 
  -3   5  15  666.26  121.44 
  -3  17  10  718.25  405.84 
  -3  21   5   74.31   84.07 
  -3 -21   5   93.55   73.93 
  -3  21   5   77.55   72.68 
  -4  12  12  877.79   97.29 
  -6  15   0   40.33   55.99 
  -4 -12  12  835.89   93.59 
  -6 -15   0   27.25   30.41 
   4 -19   4   72.79   66.45 
   4  19   4   98.60  121.48 
  -4 -19  -4  178.41  108.26 
  -4  19  -4  130.25   94.95 
  -1   0  16   11.63   47.82 
  -6 -15   3 1683.86  130.86 
  -6  15   3 1803.90  130.76 
  -1   0  16   -2.91   29.88 
  -2  22  -4   32.58   37.24 
   2 -11  13  224.36  126.50 
   2  22   4   40.55   72.25 
   2  11  13  129.89   95.00 
  -2 -22  -4   46.87   32.42 
   2  11  13  119.17   87.12 
  -2  22  -4   48.30   64.02 
   2 -22   4   33.22   44.22 
   7   6   4   13.13   21.90 
   1   6  15   70.26   70.66 
   1  -6  15  143.06  103.30 
   1   6  15   82.28   64.05 
  -7   6  -4   38.94   37.28 
   2  23   0  104.48   57.76 
  -2 -23   1 1153.81  126.48 
  -4  19   6   43.25   65.68 
  -2  23   1 1091.48  139.75 
  -4 -19   6   55.25   61.75 
  -4  19   6  114.92   48.69 
  -2  23   0   55.02   44.92 
   2 -23  -1  898.57  103.29 
  -2  23   1  992.26   85.44 
   2 -23   0   50.36   61.67 
   2  23  -1 1021.15  180.95 
  -2 -23   0   41.57   83.61 
  -2  23   0   67.86   63.88 
   2  22  -5  457.10   53.66 
  -2  22   5  334.38  268.67 
  -2  22   5  322.00  180.50 
  -2 -22   5  340.72  295.95 
  -1   1  16   13.28   39.05 
  -1  -1  16   16.63   45.81 
  -1  -1  16    4.10   20.58 
  -1   1  16   42.19   29.72 
   3  15  10  177.56  115.57 
   3  15  10  242.86  155.56 
  -3  15 -10  224.17  132.39 
  -7   3  -5    5.95   13.38 
   7   3   5   17.62   26.47 
   3 -15  10  113.25  160.93 
   7  -3   5   -0.61   20.37 
  -1 -22   6 1211.36  207.79 
   1  22  -6 1079.97  351.05 
   1 -22  -6 1005.32  158.60 
   1  22  -6 1082.84  153.54 
  -1  22   6 1283.44  121.61 
  -5  10  -9   46.55   33.88 
  -2 -11  14  436.64   66.41 
  -2  11  14  362.96  177.17 
   5 -10   9    4.10   25.25 
   5  10   9   39.55   48.56 
  -2 -11  14  245.83  241.16 
   1  21   7   15.96   45.71 
  -1  21  -7   10.45   44.68 
   1  21   7   21.09   24.98 
   1 -21   7   32.16   42.48 
  -1  21  -7   18.82   25.56 
  -3 -22   1   97.82  136.12 
   3  22  -1  116.54  118.74 
  -5  12  -8 2213.05  147.06 
   5 -12   8 2079.84  113.18 
  -3  22   1  111.55   95.61 
   5  12   8 2255.21  156.73 
  -3  22   1  116.41  107.60 
   5   0  11  209.76  130.95 
   5  18   1  247.11  180.80 
  -5  18  -1  270.58  231.43 
  -5 -18  -1  256.58  206.52 
   4 -14   9 2012.09  152.47 
  -4  14  -9 2012.39  174.86 
   0  -8  15 1494.53  117.14 
   4  14   9 1715.46   92.81 
   0   8  15 1489.66  109.91 
   1 -18  10  469.85   67.97 
   1  18  10  524.68   75.13 
   0   8  15 1579.25  106.36 
   4  14   9 2053.70  140.81 
   1  18  10  346.53  239.40 
  -3  11 -12   27.05   45.60 
   3  11  12    2.48   17.20 
  -5 -11  11  387.57  249.32 
   3 -11  12   37.56   31.03 
   3  11  12   14.19   45.73 
  -5  11  11  482.12  301.66 
  -7  10   4   20.74   31.35 
  -7 -10   4    1.23   35.20 
  -7   7   7  185.11  108.96 
   4  20   2  507.68  247.96 
  -3 -22   0  820.08  200.13 
  -4  20  -2  385.53  274.42 
  -4 -20  -2  374.16  315.84 
  -3  22   0  827.60   91.13 
  -3  22   0  797.42   78.21 
   3  22   0  797.88   85.86 
  -7   9  -2 1205.22  117.70 
   7   9   2 1064.90   92.10 
  -5  -5  13  744.49   86.68 
  -5   5  13  751.89   95.18 
   5  -1  11 1653.27  116.22 
   5   1  11 1788.45  123.50 
  -1  23   4  173.44  104.39 
  -1 -23   4  153.33  124.52 
  -4 -20   4   70.60   66.08 
   1 -23  -4  117.16   79.83 
   1  23  -4  149.63   75.02 
   1  23  -4  118.47   61.40 
  -4  20   4  113.98   78.62 
  -4  20   4  114.45   70.52 
  -1  -2  16  115.65   88.21 
  -1  -2  16  127.18  111.88 
  -1   2  16   92.52   73.50 
  -1   2  16  141.90  131.18 
  -1  14  13   23.68   27.39 
  -1 -14  13   43.74   29.44 
  -1  14  13   14.52   25.23 
  -4  14  11  213.55  191.91 
   1  15  12   48.17   37.82 
  -4 -14  11  237.93  101.58 
   1  15  12   39.63   66.35 
   1 -15  12   79.15   45.64 
   3  -8  13  600.29  138.66 
  -7  -5   8  263.68  174.22 
  -7   5   8  358.90   95.36 
   3   0  14   17.20   24.30 
   3   8  13  746.87  116.72 
  -2 -23  -1   29.20   45.10 
   2 -23   1   37.35   43.60 
   2  23   1   36.98   27.65 
  -7   8  -3  119.97  128.61 
  -2  23  -1    6.50   15.65 
  -2  23  -1    7.77   23.89 
  -4  10 -11  224.71  172.66 
   7   8   3  155.22  107.20 
   4  10  11  282.21  153.89 
   4 -10  11  261.00  140.63 
   2  23  -2   32.52   44.36 
  -2  23   2   25.67   33.87 
   2 -23  -2   40.59   34.19 
  -2 -23   2   17.52   35.61 
  -2  23   2   54.51   42.18 
  -3 -22   2  211.93  106.13 
  -3  22   2  116.51   65.26 
  -3  22   2  101.90  117.48 
   3  22  -2  120.60   96.17 
   1  13  13  728.97  297.62 
   1 -13  13 1023.11  108.42 
   1  13  13  762.42   86.56 
  -3 -20   7  487.32  356.51 
   6  13   4  104.39   61.58 
  -3  20   7  496.69   61.42 
   6  13   4   13.06   24.82 
   3   1  14  205.66  162.66 
  -3  20   7  408.11  248.06 
  -6  13  -4   46.21   27.59 
   3  -1  14  117.77   95.48 
   2   8  14  214.49  128.50 
   2  -8  14  204.64  145.87 
   2   8  14  126.67  102.49 
  -5   2 -11    5.15   29.47 
   5  -2  11   14.37   22.75 
   5   2  11   25.95   54.42 
   2  21   6   11.83   35.79 
  -2  21  -6   61.80   97.33 
   2 -21   6   66.16   80.75 
  -2 -21  -6   16.29   48.74 
   6  -6   8  552.69  146.70 
   2 -17  10   30.54   28.69 
   2  17  10   17.92   27.40 
  -2  17 -10   -3.94   41.22 
  -6   6  -8  588.11  208.20 
   6   6   8  681.36  118.53 
   2  17  10   12.94   70.21 
  -4  10  13 1134.62  106.01 
  -2 -21   7  177.89   82.24 
  -5 -17   6  264.89  172.06 
  -4 -10  13  988.24   85.58 
  -4 -10  13  933.18  198.61 
  -5  17   6  320.68  207.80 
  -2  21   7  134.40   76.78 
  -5  17   6  313.59  197.04 
  -2  -8  15  368.24  207.84 
  -6  13   7   12.88   29.47 
  -2  -8  15  472.52   77.68 
  -2   8  15  428.88  102.21 
  -6 -13   7   35.75   20.81 
  -6  12  -5  128.50   94.95 
  -7  10  -1  152.84   85.63 
   7  10   1  119.29  131.70 
   6  12   5  123.17   54.81 
  -2  17  11   17.33   44.46 
  -2 -17  11   -9.36   44.97 
   0   0  16  110.76   71.99 
   0   0  16   72.56   72.82 
  -7   4  -5   90.46  108.69 
   7   4   5  140.91  123.72 
   7  -4   5  120.59   80.61 
  -3  22  -1   96.04   97.48 
  -3  22  -1   63.24   75.94 
  -5 -18   4 1943.06  136.97 
   3  22   1  111.85  102.83 
  -3 -22  -1  138.14  103.48 
   6  15   1  174.75  189.72 
  -6 -15  -1  325.66   62.06 
  -6  15  -1  206.22  182.87 
  -5  18   4 1910.92  118.12 
  -5  18   4 1902.21  139.82 
   3   2  14  122.47  104.07 
  -5   9  12 2656.42  147.47 
  -5  -9  12 2654.00  125.08 
   3  -2  14   27.61  108.31 
  -5  -9  12 2934.95  168.32 
   0  14  13  316.77  188.77 
  -5 -13  10   28.40   34.82 
  -5  13  10   32.70   42.57 
   0  14  13  226.07  122.64 
  -1   3  16  564.88   64.64 
  -1  -3  16  546.36   70.74 
  -1   3  16  529.57  163.92 
   0 -14  13  276.57  213.68 
  -1  -3  16  555.85  196.07 
   5 -15   6    7.99   18.15 
  -1  16  12    9.94   20.85 
  -3  21  -4 1397.33  200.58 
  -5  15  -6   22.10   39.93 
   0  -1  16  889.00  143.74 
   5  15   6    2.47   39.23 
   3  21   4 1414.31  107.76 
  -1 -16  12   19.55   56.13 
   0   1  16  943.24  115.85 
   5  15   6    6.05   40.30 
   3 -21   4 1445.69   98.30 
  -3 -21  -4 1441.30  217.15 
   0   1  16  883.37  140.22 
   0  -1  16 1011.86  136.15 
  -1  16  12    6.75   23.01 
  -6  15   4  185.04  183.44 
  -6 -15   4  255.35  149.51 
  -6  15   4  202.13  128.26 
   2   0  15   29.61   26.22 
  -6  12   8  116.62   81.82 
  -6 -12   8   88.24   87.55 
  -6   6  11  148.99   95.38 
  -6  -6  11  151.28  113.09 
   0 -24   0  585.49  127.97 
   0  24   0  519.07  215.60 
   4  -7  12  411.43  149.29 
  -4   7 -12  353.42  241.85 
   4   7  12  382.99  278.59 
   5  16   5   54.78   53.21 
  -3  16  11   -7.89   42.44 
  -3 -16  11   -0.01   43.56 
  -5  16  -5  115.36   85.93 
   5  16   5   37.59   84.66 
  -7   0   9 1121.57  107.69 
  -3  -6  15  806.99   92.38 
   2   1  15   20.92   30.28 
   2  -1  15   44.45   36.57 
  -3   6  15  781.03  125.62 
  -3  -6  15  727.24   93.75 
  -6  14  -3   30.54   44.97 
  -2   0  16  628.75  298.04 
  -2   0  16  784.56   79.98 
   6  14   3   18.62   10.57 
   6  14   3   17.92   33.15 
  -7  -1   9 1757.42  227.94 
  -7   1   9 1817.13  124.37 
   5   3  11  710.85  167.36 
   5  -3  11  775.30   90.76 
  -5   3 -11  491.61  248.97 
  -1  12  14 1278.20  218.64 
  -1  12  14 1323.15  106.02 
  -1 -12  14 1607.88  116.68 
  -2   1  16  656.91  155.34 
  -6   9  -7  688.76  211.75 
   6  -9   7  609.49  103.94 
  -2  -1  16  590.29  309.10 
  -2   1  16  631.37  209.70 
  -2  -1  16  717.00   87.95 
   6   9   7  705.23   96.18 
   0 -24  -1  153.95  187.21 
   0  24  -1  265.34  113.61 
  -6  14   6  229.57  192.21 
   0   2  16 1121.15   92.47 
   0  -2  16  843.74  153.13 
   0 -24   1  252.52  115.97 
  -6 -14   6  289.22  222.20 
   0   2  16  926.58  123.91 
  -6  14   6  260.72  184.56 
   0  24   1  198.81  206.59 
   0  -2  16  947.63   81.07 
  -7  11   2  165.56  109.92 
  -7 -11   2   78.18  124.65 
  -1  23  -4  266.37  176.66 
  -3 -10  14  105.44  114.07 
   1  23   4  330.30  169.37 
  -3  10  14  117.54   80.61 
  -1  -9  15   -7.79   42.00 
  -4   7  14   28.13   43.88 
  -1  -9  15   31.26   43.45 
  -3 -10  14  105.09  109.67 
  -4  -7  14   -1.16   31.16 
  -1 -23  -4  309.72  170.07 
  -1   9  15   34.39   33.86 
  -1   9  15   15.00   28.13 
   1 -23   4  447.07   73.83 
  -4  -7  14   49.79   29.59 
  -1  23  -4  207.63  181.58 
   0  16  12  487.32  129.60 
   0 -16  12  496.18  145.23 
   0  16  12  502.44   83.50 
   3  18   8   11.36   14.42 
  -3  19  -7   61.18   94.22 
  -3  18  -8   44.49   36.18 
   3  19   7   11.33   36.79 
   3 -19   7   39.06   32.27 
   3  18   8   34.95   38.64 
   3 -18   8   21.12   26.15 
   3  19   7   71.29   38.53 
   2   2  15  401.29  191.45 
   2  -2  15  575.11   82.96 
  -3  22   3    2.67   22.87 
   1   7  15   37.93   33.84 
   7   7   4   66.75   65.39 
  -7   7  -4   34.54   33.98 
   3  22  -3   40.72   34.64 
  -7  11   1   69.20   45.99 
  -3  22   3   44.72   52.16 
  -3 -22   3   51.78   57.50 
   7  11  -1   35.20   61.18 
  -7   9   6   14.52   32.32 
   1   7  15   20.91   32.68 
   5  -8  10   16.03   24.08 
   3  -3  14  177.86  114.45 
   5   8  10   19.96   32.23 
  -5   8 -10   21.84   34.00 
   3   3  14   84.04  164.19 
  -2  23  -2   14.83   30.23 
   2  23   2   11.09   32.56 
  -2  23  -2   -4.35   25.24 
   2 -23   2   11.96   26.97 
  -2  23   3   33.70   57.02 
  -6  -9  10   20.10   28.04 
  -5  -6  13   96.61  139.27 
  -6   9  10   25.47   61.58 
  -6  -9  10    8.49   26.71 
   2  23  -3   37.31   53.72 
  -5   6  13  148.25  141.04 
  -2 -23   3   57.99   67.59 
  -2  23   3   49.80   42.06 
  -7  -2   9   62.71   51.33 
   5  18   2 1182.99   97.63 
  -5  18  -2 1224.97  103.75 
  -7   2   9   62.72   67.11 
  -5 -18  -2 1164.87  116.37 
  -1 -22  -6   25.47   55.13 
   1 -22   6   84.71   56.54 
  -1  22  -6   54.51   57.95 
   1  22   6   50.55   45.62 
  -1  22  -6   53.15   59.13 
  -2  -2  16 1547.81   96.38 
   5  14   7  197.80  183.28 
  -2  -2  16 1731.95  123.80 
  -2   2  16 1464.48  110.08 
   5  14   7  258.07  197.51 
  -2   2  16 1480.60   96.07 
  -5  14  -7  228.78  233.69 
   5 -14   7  211.08  169.05 
  -1 -20   9   62.20   52.65 
   4  17   7  881.46  252.84 
  -1  20   9   39.79   41.36 
   4  17   7 1135.68  125.99 
  -1  20   9   44.96   46.41 
   4 -17   7  910.76  114.65 
  -4  17  -7 1142.41  109.81 
   0  20   9   57.36   64.16 
  -7 -10   5   64.06   46.61 
   0  20   9   54.20   42.75 
  -7  10   5   31.63   18.53 
   0 -20   9  155.36   76.76 
  -7  10   5   16.24   27.53 
   6   0   9   25.16   18.64 
  -7  -6   8   75.03   96.25 
   1  17  11   30.87   55.86 
  -7   6   8   87.34   72.75 
   1  17  11   20.88   44.06 
   1 -17  11   72.98   80.28 
  -1   4  16    7.51   41.66 
  -1  -4  16    3.51   26.74 
  -1  -4  16   14.24   32.72 
  -7  11   3   55.60   71.31 
  -7 -11   3   35.92   45.61 
  -6  11  -6   24.11   52.34 
   6 -11   6   21.97   17.41 
   6  11   6   35.77   46.20 
  -1   4  16   44.99   55.27 
  -4 -17   9 1239.27  116.24 
   4  18   6    8.97   56.23 
   4 -18   6   20.42   31.09 
  -4  17   9 1126.14  234.60 
   4  18   6   32.89   34.23 
   6  -1   9   26.56   30.00 
   6   1   9   11.74   31.30 
   0  -3  16  180.79  199.12 
   0   3  16  221.30  146.04 
   0   3  16  212.45  124.59 
   2  14  12  102.39   66.52 
   2 -14  12  169.96   96.30 
   0  -3  16  154.02  169.92 
   2  14  12  169.41  127.33 
  -7   5  -5   18.30   33.01 
   7   5   5    6.68   28.63 
   5  17   4 2070.05  264.83 
  -5  17  -4 1959.45  133.75 
   0  12  14  115.76   82.77 
   0 -12  14  103.42   66.68 
   5  17   4 1882.27  115.69 
   0  12  14   91.22   64.69 
  -1  19  10   81.88   64.27 
  -1 -19  10  100.16   75.80 
  -4 -18   8  195.72  151.84 
  -4  18   8  151.85  139.95 
  -7   8   7  391.86  206.08 
  -6  11   9  353.87  256.00 
  -6 -11   9  420.62  245.42 
  -2 -14  13   12.36   42.17 
  -2  14  13   14.35   41.55 
   2   3  15  186.22  110.98 
   0 -21   8   53.06   41.35 
   5  -4  11  131.56   77.59 
   0  21   8   15.28   36.80 
   0  21   8   11.83   28.86 
   0  21  -8   17.18   31.41 
   5   4  11   47.11   68.30 
   2  -3  15  137.75  167.08 
  -5   4 -11   26.07   55.67 
   0  21  -8   18.98   23.65 
  -3  22  -2  118.48  110.96 
   3  22   2  166.36  125.24 
  -3  22  -2  171.53  126.74 
   3 -22   2  132.21  143.62 
  -3 -22  -2  238.62  136.46 
   0  24  -2  347.52  106.84 
  -4  20  -3  582.77   78.30 
   0  24   2  283.25  214.61 
   0 -24  -2  388.72   64.76 
  -4 -20  -3  330.60  294.55 
   0  24  -2  399.69  233.85 
   4  20   3  480.03  241.04 
   0 -24   2  539.59  112.67 
   7  11   0  422.61   72.23 
  -7  11   0  346.88  257.09 
   0  23  -5  153.39  151.76 
   0  23   5  176.23  195.22 
   0  23  -5  212.21  181.61 
   0 -23  -5  217.83  165.21 
   0 -23   5  198.77  164.10 
  -1  21   8   69.42   58.47 
   0  19  10  193.03  183.50 
  -1 -21   8   83.47   77.93 
   0  19  10  144.96  105.70 
   0 -19  10  243.98  218.49 
  -1  21   8   50.97   49.67 
   3  17   9  112.42   81.89 
   1  24   0   41.66   27.50 
  -3  17  -9  170.04  123.19 
   3  17   9   86.01  131.80 
   3 -17   9  112.00   79.12 
  -1  24   0   47.42   45.06 
   1 -24   0   60.27   66.05 
  -7   3   9 1876.46  140.62 
  -7  -3   9 1977.02  142.07 
   1 -11  14   89.92   72.76 
  -1  24   0   14.72   42.99 
   1  11  14   82.44   70.17 
  -1 -24   0   97.53  112.39 
   1  11  14   49.58   71.16 
  -4  20   5   33.10   61.99 
   3  20   6  728.71   89.83 
  -4  20   5   41.81   47.21 
   3 -20   6  569.98  143.55 
   0   9  15  255.65  228.15 
   0   9  15  207.55  196.22 
   0  -9  15  309.79  234.67 
  -3  20  -6  727.48  119.95 
   3  20   6  595.00  256.35 
  -4 -20   5   32.20   26.90 
   6   2   9  149.30  132.30 
  -6   1  12   32.74   32.01 
   6  -2   9  142.22  117.18 
  -6   2  -9  101.73   80.88 
  -6   7  -8  916.11   83.17 
   6   7   8  751.21  144.08 
  -2   3  16   58.87   55.01 
  -2  -3  16   23.80   31.32 
   6  -7   8  883.32   82.34 
  -2  -3  16   24.92   47.83 
  -2   3  16   28.04   42.12 
   4 -16   8  120.16   80.68 
   4  16   8   49.06   68.41 
  -4  16  -8  144.45   86.04 
   4  16   8  107.03   66.97 
  -1  24   1 1172.11  106.76 
  -1  24   1 1165.18   85.06 
   1 -24  -1 1137.30  147.26 
   1  24  -1 1123.82  237.77 
  -1 -24   1 1127.19  318.90 
   3  -4  14   58.58   72.71 
   3   4  14   20.90   35.97 
  -3 -21   6   32.05   48.66 
  -3  21   6   43.32   55.50 
  -3  21   6   14.98   27.75 
   4   0  13   11.57   18.75 
  -4 -16  10  350.54  202.62 
  -4  16  10  373.82  226.98 
   6  15   2  145.13  109.30 
   3   9  13   66.21   64.03 
  -6  15  -2   90.02  101.32 
   3  -9  13   21.70   35.57 
   6  15   2  125.97  135.92 
  -7  10  -2   35.59   40.49 
   7   9   3  204.40   84.24 
   7  10   2    9.87   30.63 
  -7   9  -3  162.53  111.69 
  -4   1 -13   21.18   14.24 
   4  13  10   45.27   35.26 
   4   1  13   20.40   25.63 
  -1  24  -1   14.08   33.16 
  -5  11  -9  480.96  267.22 
   1 -24   1   43.71   44.73 
  -1  24  -1   12.73   28.71 
   4  -1  13   66.20   55.11 
   5  11   9  574.04  293.72 
   4  13  10   72.37  100.71 
   1  24   1   57.48   73.67 
   5 -11   9  687.92   88.40 
  -4  13 -10   64.71   31.81 
   4 -13  10   15.53   27.40 
  -1 -24  -1    7.56   19.98 
  -1  23   5    3.44   25.65 
   1  23  -5   36.77   42.48 
   3  14  11  140.67  134.73 
  -3  14 -11  145.07   76.83 
   1  23  -5    6.90   19.53 
  -6   2  12  712.74   84.60 
  -6  15   5   28.57   29.44 
   1 -23  -5   14.96   16.60 
  -6  -2  12  606.62   90.02 
  -1 -23   5   23.18   29.01 
  -6   7  11  572.65  346.42 
   3  14  11  174.55  115.68 
  -2  22  -5   29.37   47.79 
   2  22   5   33.90   34.94 
   2 -22   5   57.94   28.09 
  -6  15   5   16.63   23.53 
  -2  22  -5    9.98   15.15 
  -6 -15   5   -1.74   33.04 
  -2 -22  -5   26.04   20.68 
  -6  -7  11  464.23  278.76 
   3 -14  11  196.69  129.61 
   2   9  14   48.66   38.71 
   2  16  11   41.98   51.81 
   2  16  11   27.78   56.62 
  -2  22   6  102.51  120.55 
  -5 -18   5   17.85   42.75 
   2   9  14   40.15   53.13 
  -2  16 -11   51.08   62.50 
  -5  18   5   32.05   17.56 
   2 -16  11   26.99   38.14 
   2  -9  14   79.61   45.44 
  -2  22   6  203.86  191.21 
  -2 -22   6  217.94  177.18 
  -3  -7  15  765.13   94.88 
   2 -12  13 2402.82  147.46 
  -3   7  15  835.11  177.36 
   2  12  13 1994.55  136.60 
  -3  -7  15  781.63  103.24 
   2  12  13 2204.38  117.37 
  -7 -11   4 2228.69  137.27 
  -7  11   4 2145.39  124.98 
   0  -4  16  550.39  353.08 
   0  -4  16  739.90   74.13 
   0   4  16  756.83  191.00 
   0   4  16  776.56   84.12 
  -4 -21   1   15.69   35.62 
  -4  21   1   22.19   11.92 
  -4   0  15   15.62   67.64 
  -4  21   1   19.70   23.82 
   4  21  -1    9.20   22.26 
  -3  13  13  757.96   84.41 
   4  19   5   21.56   26.52 
  -2  16  12   76.18   75.53 
   4  19   5   77.54   59.75 
  -4  19  -5   65.87   58.96 
  -2 -16  12   83.03   65.77 
  -3 -13  13  761.77  131.32 
  -2  -9  15   14.00   37.86 
   4 -19   5   25.39   32.05 
  -2   9  15   54.17   53.03 
  -4  13  12   82.18   64.93 
  -6   3  -9  150.19   90.07 
   6   3   9  119.27  152.86 
  -2 -12  14   96.11  108.90 
  -2  12  14   79.02   36.07 
   6  -3   9  137.86  122.68 
  -4 -13  12  106.67   53.89 
   7   0   6    7.71   19.72 
   4   8  12  185.90  170.62 
  -1  -5  16   51.38   37.46 
  -4   8 -12  119.74   94.38 
   4  -8  12  169.32  154.37 
  -1  -5  16   33.37   32.02 
  -1   5  16   37.64   43.24 
  -4   1  15  139.44  127.52 
  -4  -1  15  230.99  137.35 
  -4   2 -13  133.38   70.72 
   2  -4  15  511.29  117.04 
   4  -2  13   86.19  101.50 
  -4 -19   7   59.98   30.79 
   2   4  15  353.27  297.30 
  -4  19   7   21.21   35.95 
  -4  19   7   58.16   53.17 
   4   2  13   75.82   87.94 
  -5  12  11 1104.14  102.44 
   3 -12  12 1021.22  137.21 
  -3  12 -12  969.81  100.68 
   7   1   6  120.02  127.54 
   3  12  12 1040.71   82.45 
   3  12  12  901.91  233.64 
  -5 -12  11 1308.55   97.85 
   7  -1   6  128.61  117.13 
  -3  22   4  162.00  140.04 
  -3 -22   4  175.65  197.74 
  -3  22   4  172.12  117.38 
   4  11  11   88.65  134.94 
   1 -24  -2  113.75  173.24 
   1  24  -2  189.60  126.53 
  -4  11 -11   51.63   46.48 
  -1 -24   2  154.41  134.53 
   4 -11  11   71.91   42.27 
  -1  24   2  164.40  142.97 
   4  21   0   17.44   43.60 
  -4  21   0   20.02   26.64 
  -4  21   0   26.09   28.74 
  -5 -16   8   74.89   55.93 
  -4 -21   0   50.58   74.04 
  -5  16   8   34.98   43.61 
  -4  21   2   20.54   17.36 
   4  21  -2  -11.55   39.55 
  -6 -16   2   38.66   37.76 
  -4  21   2   34.38   27.49 
  -7  -4   9  177.01  104.82 
  -4 -21   2   21.05   60.22 
  -6  16   1  627.20   77.98 
  -7   4   9  142.39  150.24 
  -6  16   2   49.74   42.88 
  -6 -16   1  380.52  271.63 
  -1 -18  11  176.18  131.70 
  -1  18  11  193.03  147.10 
  -2  -4  16  185.71  213.66 
  -2  -4  16  293.54  147.27 
  -2   4  16  295.20  170.50 
  -2   4  16  258.43  187.28 
   5 -13   8  117.01   34.98 
   5  13   8  151.44  108.56 
  -5  13  -8   91.05   58.55 
  -5   7  13 1006.38   98.54 
  -5   5 -11  254.92  163.90 
  -5  -7  13 1014.29   89.30 
   5  -5  11  570.52  104.29 
  -5  -7  13 1033.87  105.67 
   5   5  11  447.92  305.46 
  -4  -8  14  343.09  206.07 
  -3  15  12  141.80  103.10 
   2 -23   3   40.69   23.08 
  -4  -8  14  346.45  232.96 
  -3 -15  12  100.10   95.65 
  -4   8  14  302.07  292.07 
  -2  23  -3   34.42   43.17 
  -2  23  -3   11.15   23.27 
   2  23   3   28.61   33.92 
  -2 -23  -3   -2.05   39.67 
  -6   3  12   25.70   53.01 
   0  22  -7 1014.93  108.49 
  -6  -3  12   49.69   32.23 
   0  22   7 1061.05   96.10 
   0  22   7  772.16  161.31 
  -5  10  12  188.01  191.52 
   0 -22   7 1075.88   97.55 
  -5 -10  12  204.62  170.78 
  -5 -10  12  160.88  145.69 
   0  22  -7  990.35   90.39 
   2  23  -4   13.11   26.66 
  -2 -23   4    8.65   34.30 
  -2  23   4   15.44   36.81 
  -2  23   4   23.48   29.74 
  -5 -15   9   20.40   43.18 
  -5  15   9   41.18   41.38 
  -4  -2  15    8.29   23.28 
  -4   2  15   13.61   47.85 
  -4  11  13   53.83   64.70 
  -5 -19   1   42.51   50.43 
   7   6   5  334.12  182.61 
  -5  19   1   38.68   62.38 
  -4 -11  13   86.49   46.48 
   5  19  -1   38.01   28.65 
  -4 -11  13   23.96   33.97 
  -7   6  -5  173.13  183.25 
   1   8  15  965.42   83.50 
   7   8   4   84.16   84.30 
  -7   8  -4  115.52   78.51 
   1   8  15  901.42   84.37 
   1  -8  15  938.41  129.05 
  -7  11  -1   20.64   40.41 
   7  -2   6  240.64   89.83 
   7  11   1    7.54   22.11 
   7   2   6  230.86  147.26 
  -7   2  -6  183.11  119.92 
  -7  -7   8  270.85  187.58 
  -7   7   8  190.07  171.85 
   0  18  11   51.02   25.38 
   0 -18  11   69.45   98.23 
   0  18  11   73.74   57.25 
  -1  22   7   13.01   48.10 
  -1  22   7   11.77   16.44 
  -5  19   2  381.61  187.50 
  -1 -22   7   26.27   38.73 
  -5 -19   2  415.75  217.67 
  -5  19   2  207.80  213.08 
   1  22  -7   19.18   34.76 
   3   5  14  100.23  118.77 
   3  -5  14  119.65   63.75 
   0  24  -3   92.60   59.84 
   0  24   3   90.44   37.55 
   0  24  -3  122.78   94.78 
   0 -24  -3   57.10   64.97 
   0 -24   3   34.67   72.65 
  -1  24  -2  851.86  166.30 
  -1 -24  -2  875.98  117.61 
  -1  24  -2  927.19   84.88 
   1 -24   2 1055.05   96.78 
   1  24   2  821.54  222.92 
  -4   3 -13  578.48   67.16 
   4   3  13  593.36   91.69 
   4  -3  13  710.71   82.49 
  -5   9 -10  350.68  178.64 
  -6 -16   0  128.81  214.63 
   6  10   7  383.68  196.98 
  -6  10  -7  168.87  211.88 
   5  -9  10  215.57  211.04 
   6 -10   7  246.19  132.65 
  -6  16   0  323.43  135.04 
   5   9  10  309.40  154.28 
  -5 -17   7   50.51   55.90 
  -5  17   7   31.48   29.20 
  -5  17   7   47.96   31.56 
  -6 -16   3  231.09  133.92 
   5  18   3   57.76   37.72 
  -5  18  -3    6.24   48.80 
  -6  16   3  133.49  142.88 
  -5 -18  -3   28.02   34.46 
  -1 -10  15  532.38  126.67 
  -1  10  15  674.64   76.53 
  -5 -19   0  664.43  100.97 
   5  19   0  426.81  298.82 
   4 -15   9   27.78   17.41 
   4  15   9   43.14   71.73 
  -4  15  -9   36.95   39.52 
  -1  10  15  620.34   81.78 
  -1 -10  15  549.28   92.88 
  -5  19   0  608.90  255.23 
   4  15   9   20.77   36.19 
   6  -4   9   23.34   36.69 
  -6   4  -9   34.91   21.55 
   6   4   9   47.37   64.53 
  -3  19   9   62.65   63.20 
  -3 -19   9   63.62   62.42 
   3 -16  10  120.58   91.29 
  -3  16 -10   81.99   50.58 
   3  16  10  115.26   88.39 
   3  16  10   74.13   63.92 
  -7  10   6  830.71   75.24 
  -7 -10   6  679.49  106.11 
   3  21   5   37.41   43.44 
   1 -14  13   74.20   56.52 
  -3  21  -5   39.97   55.41 
  -3 -21  -5   91.33   64.52 
   1  14  13   37.28   63.31 
   1  14  13   33.22   50.70 
   3 -21   5   72.70   61.10 
   6  13   5   50.26   48.91 
   2  20   8   34.30   20.35 
  -6  13  -5   87.86   78.55 
  -2  20  -8   58.99   65.96 
   2  20   8   14.58   38.13 
   2 -20   8   22.85   44.81 
   4  21   1  561.03   90.26 
  -4  21  -1  576.35   77.59 
   6  14   4  196.90  196.46 
  -6  14  -4  281.95  235.95 
  -1 -15  13   27.89   61.32 
  -3  22  -3  449.39  219.28 
   0   5  16  896.42   94.46 
   3 -22   3  579.64  160.77 
  -1  15  13   27.83   34.46 
  -1  15  13   78.11   51.92 
   0   5  16  365.54  213.97 
   0  -5  16  285.60  242.83 
  -4 -21  -1  345.47  331.12 
   3  22   3  573.37  134.84 
  -3 -22  -3  448.43  221.21 
   6  14   4  221.13  229.21 
  -6  10  10   47.00   55.16 
  -4   3  15   63.21   50.90 
  -4  -3  15   74.96   78.20 
  -6 -10  10   51.94   47.59 
  -4 -15  11 1810.05  151.79 
  -4  21   3    1.08   21.70 
  -4  21   3   14.33   24.26 
  -4 -21   3   31.76   35.60 
  -4  15  11 1915.03  140.66 
  -2  20   9   83.53   60.83 
  -7   3  -6   17.99   37.86 
   7  -3   6   32.45   27.85 
  -3 -11  14  105.76  120.86 
  -3 -11  14  111.92   78.49 
   7   3   6   26.03   32.37 
  -2 -20   9  149.91  119.78 
  -3  11  14  125.67   75.16 
  -1  23  -5   57.56   23.46 
   1 -23   5   29.11   42.42 
  -1  23  -5   29.10   27.08 
   1  23   5   73.58   48.34 
  -1 -23  -5   55.20   50.95 
  -2  19  -9  131.84  102.35 
   2 -19   9   97.49  136.54 
   2  19   9  137.44  126.25 
   2  19   9  118.72   99.93 
   2   5  15  159.71  151.72 
   2  -5  15  129.76  100.74 
  -6 -14   7  114.55  151.50 
  -3  18  10   31.75   67.95 
  -6  14   7  132.22   88.87 
  -5  -1  14   85.63   78.38 
  -3 -18  10  102.72   86.18 
  -5   1  14  157.48   84.88 
  -6 -13   8  306.44  164.90 
  -6  13   8  349.94  171.01 
  -6  -4  12 1165.65  117.90 
  -6   4  12  911.96  128.32 
   1  20   9   19.68   32.52 
  -1  20  -9   62.86   33.38 
   1 -20   9   30.40   27.97 
   1  20   9   24.53   26.78 
  -7   9   7   55.76   47.90 
  -2  19  10   51.33   40.17 
  -2 -19  10   37.88   47.45 
   1   0  16   -1.57   42.64 
  -6   8  -8   30.58   28.49 
   6  -8   8   44.13   39.38 
   6   8   8   52.98   53.97 
  -7  -5   9 1563.13  178.52 
  -5  19   3  184.11  178.20 
  -7   5   9 1641.34  119.99 
  -5  19   3  167.51  127.04 
  -5 -19   3  206.94  152.51 
  -7 -12   2  115.16   91.59 
   1  16  12  204.31  181.06 
  -7  12   2  155.40  136.09 
   1  16  12  206.57  181.62 
   1 -16  12  237.74  127.17 
  -1   6  16   35.02   51.77 
  -1   6  16   57.76   40.24 
  -2  -5  16   40.34   26.68 
  -2   5  16   14.53   43.28 
  -5 -14  10  825.74  132.67 
  -2   5  16   14.68   19.83 
  -5  14  10  925.54  103.04 
  -1  -6  16   62.76   54.05 
  -1  -6  16   98.48   86.40 
  -2  -5  16   23.02   31.29 
   1  -1  16  102.51   61.75 
   1   1  16   60.26   48.43 
  -1 -24   3   49.47   59.48 
   1 -24  -3   26.94   39.43 
  -1  24   3   18.05   59.46 
   1  24  -3   29.83   49.68 
  -7 -12   1  591.84   75.94 
  -7  12   1  302.81  285.45 
  -3 -20   8   48.91   47.69 
  -3  20   8   14.14   39.01 
   1 -21   8  490.69  115.95 
  -1  13  14   21.15   24.60 
  -7  11   5   44.95   29.76 
  -1 -13  14  102.11   58.44 
   1  21   8  321.54  215.72 
   1  21   8  376.94  201.79 
  -1  13  14   66.64   38.52 
  -1  21  -8  459.21   53.47 
  -1  21  -8  489.61   68.85 
  -7  11   5   45.39   52.24 
  -7 -11   5   35.17   37.06 
  -5  -2  14   82.07   76.15 
  -5   2  14   73.00   68.41 
   4  -4  13    7.13   30.45 
  -4   4 -13   21.61   14.26 
   4   4  13   -7.49   32.42 
  -6  -8  11  113.94   65.84 
  -6   8  11   90.67   78.06 
   0  15  13  144.22   69.02 
   0 -15  13  143.21  106.24 
   2  21   7   12.41   40.37 
  -2  21  -7   61.03   52.98 
   2  21   7   16.39   28.87 
   2 -21   7   23.26   36.54 
   0  15  13  106.93   92.96 
   5  -6  11   20.64   37.31 
  -3   8  15  594.43   90.96 
   5   6  11   15.32   35.08 
  -3  -8  15  489.92  222.56 
  -3  -8  15  610.41   98.46 
  -5   6 -11   26.31   21.27 
   0  10  15  580.14   66.52 
  -2 -21   8  257.47  253.14 
   0 -10  15  472.75  236.88 
  -2  21   8  623.52   77.69 
   0  10  15  650.30   80.52 
  -4 -20  -4   79.11  110.72 
   4  20   4  136.04  106.34 
  -4  20  -4  130.58  106.52 
  -7 -12   3  139.22  125.51 
   6  12   6  138.70  112.77 
  -7  12   3  277.40  107.74 
  -6  12  -6  155.72  139.18 
   1   2  16   20.80   51.53 
   5  19   1   60.67   41.48 
   1  -2  16   16.90   47.42 
  -5  19  -1   76.41   47.47 
  -5 -19  -1   35.05   49.97 
   1  19  10  138.21  110.97 
   6  15   3   17.70   18.34 
   1 -19  10  143.37  157.67 
   6  16   1   25.74   45.57 
   6  15   3   10.45   32.04 
   1  19  10  159.01  149.03 
  -6  16  -1   -8.21   50.47 
  -6  15  -3    3.19   36.06 
  -6 -16  -1    6.81   38.40 
  -4  20   6  229.02  196.11 
  -4 -20   6  174.73  157.38 
  -4  20   6  210.73  134.15 
   5  16   6  249.11  183.74 
  -4  -4  15   20.87   23.13 
  -5  16  -6  218.25  113.56 
   5 -16   6  160.83  146.29 
  -6 -16   4   32.31   35.86 
  -6  16   4   31.02   25.16 
  -6  16   4   11.74   25.31 
  -4   4  15   27.56   42.61 
   5  16   6  126.11  146.09 
  -4  -4  15   25.77   43.48 
  -3   0  16   12.29   36.00 
   7  -4   6    8.11   18.23 
   6   5   9  640.53   80.90 
  -6   5  -9  546.11  134.49 
  -3   0  16   11.04   24.76 
  -7   4  -6   25.42   23.88 
   6  -5   9  560.21  112.47 
   3   6  14  -16.81   38.81 
  -6  15   6   40.69   54.04 
  -6  15   6   61.81   52.27 
  -6 -15   6   83.70   73.10 
   3  -6  14   24.30   39.37 
   3  10  13  658.47  354.11 
  -6 -12   9  117.05   75.99 
  -6  12   9  123.21  124.11 
   7  10   3  408.55   72.31 
  -7  10  -3  201.79  222.69 
   3 -10  13  793.28  232.57 
   7   7   5   27.46   47.93 
  -7   7  -5   -2.41   23.88 
  -3  -1  16   32.08   36.06 
  -3  -1  16    6.21   18.43 
   2  18  10   99.25  106.65 
   2  18  10   72.35   73.69 
  -7  12   0  -13.65   50.56 
  -2  18 -10   79.64   68.79 
   7  12   0    7.59   24.04 
   2 -18  10   89.71   67.86 
   4  -9  12   25.15   33.01 
  -1 -17  12 1965.74  145.65 
   2 -10  14  204.77  222.63 
   2  10  14  246.34  204.44 
  -1  17  12 1948.00  138.59 
   4   9  12   31.14   46.89 
   2  10  14  152.82  167.95 
  -4   9 -12   15.89   35.05 
  -5 -18   6  127.82   70.63 
  -5  18   6  128.25  100.29 
  -5   8  13   71.92  110.89 
  -8   3   1   85.35   49.92 
  -5  -8  13  115.46   69.07 
   1  12  14 1552.43  263.96 
   1 -12  14 1475.40  144.46 
   1  12  14 1739.33  129.81 
  -5  -3  14   21.96   48.92 
  -5  -8  13  125.61  116.39 
  -5  18   6   92.84   59.11 
  -5   3  14   35.66   48.93 
   0  13  14   46.27   76.44 
   0 -13  14   96.66   79.08 
   0  13  14  104.12   63.29 
  -3 -22   5   -1.68   58.49 
  -1  24  -3    9.35   23.37 
  -1  24  -3    8.51   27.07 
  -3  22   5    3.99   32.72 
  -3  22   5   13.18   14.62 
   1  24   3   15.06   28.20 
  -1 -24  -3    4.37   30.46 
  -2  18  11  338.08  267.83 
  -2 -18  11  618.86   93.76 
   5  17   5   -8.07   50.31 
   5  17   5   19.04   18.72 
  -7  11  -2   93.99   69.83 
  -5  17  -5   11.36   34.31 
   7  11   2   92.99   94.27 
  -3  17  11  204.29  153.66 
  -3 -17  11  237.52  132.72 
   0 -23   6   99.05   51.34 
   0  23   6   69.69  105.38 
   0 -23  -6   74.68   30.54 
  -2 -10  15  507.58   82.79 
   0  23  -6   35.10   47.28 
  -2  10  15  292.38  263.09 
  -2 -10  15  427.00  212.52 
   0  23  -6   53.68   29.62 
  -6   5  12  106.13  105.44 
  -6  -5  12  126.24  107.68 
  -5  15  -7  131.12   95.83 
   5  15   7   72.24   91.34 
  -8   2   0  112.91  150.73 
   5  15   7   51.89   54.72 
  -7   8   8  189.59  151.90 
   5 -15   7   52.63   72.27 
   0   6  16   36.56   42.16 
   1   3  16  163.62  133.23 
  -4  21  -2  348.70  257.64 
   4  21   2  399.44  124.58 
  -4 -21  -2  405.35  281.40 
   0  -6  16   29.14   42.86 
   1  -3  16  179.38  167.41 
   0   6  16    0.59   28.95 
  -4   9  14   87.33   89.17 
  -4  21   4  349.13  192.53 
  -4  -9  14   75.29   60.87 
  -4  -9  14  102.34   78.78 
  -3  -2  16   -0.71   26.49 
  -4  21   4  439.65   79.46 
  -3  -2  16   36.56   49.80 
  -3   2  16   -6.10   34.24 
  -4 -21   4  288.04  235.18 
  -1  22  -7    7.51   42.13 
   1  22   7   11.55   28.92 
   1  22   7   15.85   32.01 
  -1  22  -7    9.16   21.71 
   2  23   4   76.24   37.78 
   1   9  15   40.43   39.73 
   2   6  15   99.35  134.68 
   1  -9  15   -1.63   29.15 
   2 -23   4  119.08   67.60 
  -7   9  -4   14.56   25.20 
  -2 -23  -4   55.72   36.34 
  -2  23  -4   25.69   52.32 
  -5  19   4   15.13   19.30 
  -5  19   4    5.80   25.14 
  -5 -19   4    2.26   56.70 
  -2  23  -4   55.80   39.47 
   7   9   4   30.94   20.34 
   1   9  15    1.68   19.42 
   2  -6  15  154.88  128.41 
   5 -12   9   25.66   42.41 
   0  24  -4  197.55  172.44 
   5  12   9   10.65   44.87 
   0 -24   4  231.56  236.96 
   0  24   4  191.78  211.02 
   0  24  -4  225.29  181.19 
   0 -24  -4  152.31  154.57 
  -5  12  -9   15.76   24.04 
  -2  23   5  286.44  240.06 
   0  17  12  264.92  127.83 
  -2 -23   5  239.45  284.97 
   2  23  -5  355.43  214.91 
  -2  23   5  235.35  156.20 
   0 -17  12  256.50  226.16 
   0  17  12  290.57  175.16 
   2 -15  12   95.22   47.13 
   2  15  12   75.17   48.73 
   2  15  12   71.65   49.68 
  -7   1  10   33.92   34.52 
  -7  -1  10   52.54   68.51 
  -7  -6   9  159.23   79.07 
   4  -5  13  395.03  308.38 
  -4   5 -13  547.60   67.96 
  -7   6   9  130.47  114.38 
   1  23  -6  128.32  161.19 
  -1 -23   6  168.73  194.61 
   4   5  13  292.53  267.92 
  -1  23   6  198.18  127.46 
   1 -23  -6  106.07  162.12 
   1  23  -6  171.64  165.32 
  -2  -6  16  774.96   85.31 
  -3 -21   7   52.11   41.16 
  -2  -6  16  513.07  318.13 
  -3  21   7   25.44   37.20 
  -2   6  16  737.79  105.47 
  -3  21   7   23.37   30.24 
  -3  23   1    5.98   20.43 
   3  23  -1   -7.94   51.39 
  -3  23   1   -9.64   27.27 
  -7 -12   4  363.01  175.41 
  -7  12   4  156.07  201.52 
  -3 -23   1   -7.87   43.54 
  -2  15  13  387.01  245.76 
  -2 -15  13  279.37  171.29 
  -2 -24   0   31.22   52.66 
  -2  24   1   63.72   40.52 
   2  24  -1   65.19   63.76 
   2  24   0   26.82   33.86 
   2 -24   0   10.30   13.49 
  -2  24   0   15.19   36.05 
  -2  24   0   15.68   53.93 
  -2  24   1   58.44   32.04 
  -2 -24   1   78.89   38.15 
   3  23   0   42.44   70.57 
  -3  23   0    5.15   31.43 
  -3 -23   0   -7.94   43.63 
  -3  23   0   50.60   42.75 
   2  13  13  428.54  146.92 
   2 -13  13  431.35  251.90 
   2  13  13  416.63  283.19 
  -5 -11  12  310.20  217.52 
  -5  11  12  450.94   71.49 
  -1  -7  16   10.76   31.04 
  -8   3   0  961.26  186.15 
  -1  -7  16   42.80   27.91 
  -1   7  16   10.40   24.16 
  -1   7  16   27.52   50.25 
  -4  12 -11  769.13  244.07 
  -4   5  15   16.18   24.77 
   4 -12  11  778.54  265.33 
  -4  -5  15   72.14   50.05 
  -4  -5  15   11.65   23.49 
   4  12  11  990.96  145.38 
  -7   2  10   92.48   57.11 
  -5  -4  14  124.00   99.51 
  -5   4  14  160.00  110.30 
  -7  -2  10   98.82   65.74 
  -8   4   1   59.92   70.70 
  -2  22  -6   56.86   72.89 
  -2 -13  14  206.54  248.92 
  -3  -3  16   73.30  127.13 
   2 -22   6   21.24   39.72 
   4 -14  10   23.83   32.05 
  -3   3  16  168.07   90.48 
  -2  13  14  260.20  155.03 
   4  14  10   45.37   64.42 
   2  22   6   48.68   66.95 
  -2 -22  -6   43.88   24.11 
  -3  -3  16   73.08   65.60 
   4  14  10   20.64   20.26 
  -4  14 -10   47.75   43.41 
  -7   5  -6  160.21  109.17 
   7   5   6  148.17  152.90 
   5  10  10  376.65  289.21 
  -5  10 -10  392.15  196.45 
   5 -10  10  417.90   87.73 
   4 -18   7   16.00   25.63 
   4  18   7   28.94   36.07 
  -4  18  -7   51.51   44.91 
   3 -19   8  385.25  119.96 
   3  19   8  235.30  224.86 
   3  19   8  346.87  186.89 
  -3  19  -8  389.46  197.95 
  -2 -22   7  128.37  123.45 
  -2  22   7  177.22   92.84 
   3  23  -2 1392.51  144.40 
  -3  23   2 1502.76  114.72 
  -3  23   2 1362.43  114.70 
  -3 -23   2 1438.74  129.32 
  -5  13  11  319.69  229.15 
   3  13  12  101.36   68.53 
  -5 -13  11  296.20  161.81 
   3 -13  12   58.66   92.71 
   3  13  12   88.42   70.50 
  -3  13 -12  164.65  117.87 
   1  18  11  204.61   91.66 
   1 -18  11  181.02  205.81 
   1 -24  -4  726.87  152.44 
   1  18  11  199.34  198.20 
  -1  24   4  901.49  102.49 
  -1 -24   4  932.87  102.67 
   1  24  -4  820.99  315.76 
   1  -4  16  166.42  115.61 
   1   4  16  144.56  174.46 
  -3  14  13   13.18   38.71 
   5  -7  11  980.49  192.22 
  -5  19  -2  107.51   91.21 
  -3 -14  13    4.34   31.31 
  -4  18   9  147.51  101.09 
  -4 -12  13  949.48  167.56 
   5   7  11 1047.99  154.02 
   5  19   2  126.36  132.40 
  -4  12  13 1174.06  120.81 
  -5 -19  -2  130.49  102.15 
  -4 -18   9   97.51   57.99 
  -5   7 -11 1257.80  102.89 
   6   6   9   86.19   81.72 
   3  15  11   21.07   43.80 
  -4 -14  12  424.75  252.76 
  -3  15 -11   73.49   29.39 
   6  -6   9   55.88   79.46 
  -6   6  -9  101.18   60.66 
  -4  14  12  596.62  222.13 
   3  15  11   74.97   56.61 
   3 -15  11   72.26   44.23 
   6  11   7   58.51   62.52 
  -6  11  -7   35.44  107.34 
   6 -11   7   74.73   39.69 
   7  12   1  189.00  203.91 
  -7  12  -1  310.73  156.44 
  -8   1  -1  465.17   55.77 
   3  20   7   40.47   50.74 
   3 -20   7   61.79   68.89 
   6  -9   8  619.31  105.10 
   3  20   7   98.34  106.27 
  -3 -22  -4  103.79   98.91 
  -8   0   5   15.66   17.64 
   2  24   1   38.88   36.60 
  -2  24  -1   25.29   17.69 
  -6   9  -8  455.96  286.58 
   3  22   4   90.27   72.33 
  -3  20  -7   26.74   25.81 
   2 -24   1   29.78   35.65 
  -2  24  -1   21.51   30.70 
  -2 -24  -1    8.53   27.68 
   6   9   8  612.96  280.98 
  -3  22  -4   69.17   66.78 
   3 -22   4   90.28   56.42 
   2  24  -2  188.55  152.77 
  -2  24   2  208.81  103.07 
  -2  24   2  242.98  123.37 
  -2 -24   2  285.00  150.94 
  -1  11  15  120.42  129.20 
  -5  18  -4   22.62   57.79 
  -1  11  15   84.48   85.53 
   5  18   4   40.97   46.55 
  -1 -11  15  206.24  143.70 
   5  18   4    3.84   19.92 
  -6  16  -2   83.73   51.02 
   6  16   2   45.76   27.94 
   4  17   8   35.81   46.84 
   4  17   8   24.64   48.51 
  -4  17  -8   39.36   39.32 
  -8   1   5   21.89   24.41 
   4 -17   8    9.83   36.28 
  -8  -1   5   27.90   26.37 
   4  19   6   27.55   40.39 
   4  19   6   25.70   22.67 
  -4  19  -6   16.93   27.81 
  -3  23  -1    7.59   24.10 
   3  23   1   34.89   26.98 
  -3 -23  -1   45.28   52.88 
  -7  11   6    3.70   30.86 
   4 -19   6   28.75   23.35 
  -7 -11   6   17.77   24.94 
  -3  23  -1   26.75   24.32 
   3  -7  14  263.96  182.90 
  -6 -16   5  128.45   51.48 
   3   7  14  202.87  161.76 
  -7  10   7  420.69  241.67 
  -6  16   5   38.57   98.98 
  -6  16   5   73.80   36.58 
  -6  11  10   95.60  126.76 
   5 -14   8  643.87  130.30 
   5  14   8  575.55  243.25 
  -6 -11  10   59.90   68.31 
  -5  14  -8  817.39  146.41 
   3  18   9  151.03   79.34 
   3  18   9  120.19  130.14 
  -7  -3  10   91.37  104.04 
   3 -18   9   92.83  149.82 
  -3  18  -9  198.09  145.75 
  -7   3  10  114.18  114.69 
  -4 -17  10   21.38   53.09 
  -6  -6  12 2737.97  162.47 
  -4  19   8   74.65   63.92 
  -4  17  10   25.77   51.31 
  -4 -19   8  106.73   99.34 
  -6   6  12 2502.98  180.91 
  -6  -9  11   14.65   21.03 
  -6   9  11   10.52   25.72 
  -8   2  -1   22.43   20.35 
  -3  -9  15  278.90  267.22 
  -3   9  15  423.05  285.03 
  -3  -9  15  347.47  232.14 
  -8   4   0   50.54  106.29 
  -1  21   9   26.53   60.14 
  -1 -21   9    0.01   45.69 
  -8  -2   5   19.31   31.79 
   2  17  11 1002.92  119.62 
   2  17  11  785.48   80.69 
  -8   5   2 1393.48  108.52 
  -2  17 -11 1156.76  125.57 
   2 -17  11  818.98  139.63 
   0  21   9 2170.03  151.92 
   0  21   9 1889.91  128.41 
  -7   8  -5  450.34  146.66 
   0 -21   9 1931.27  142.52 
   7   8   5  468.48  151.79 
   0  21  -9 2071.48  136.76 
  -1  20  10   76.03   62.85 
  -3 -12  14   57.96   59.05 
  -3  12  14   41.69   42.33 
  -1 -20  10   69.24   59.32 
  -3  -4  16   30.56   22.12 
  -3   4  16   17.83   23.51 
  -3  -4  16   35.07   50.79 
   0  -7  16  234.05  113.78 
   0   7  16  153.23  139.05 
   0   7  16  141.84  154.56 
  -4   6 -13   22.60   36.72 
   4   6  13   15.37   33.90 
   4  -6  13   24.40   57.02 
  -2 -17  12   71.62   56.27 
  -2  17  12  145.16   61.54 
   0  20  10   -3.22   39.96 
   0  20  10   21.49   23.64 
   0 -20  10   48.07   25.46 
   2   7  15   79.47   51.46 
   2  -7  15   65.61  100.46 
  -3  23   3   71.29   39.62 
   3  23  -3   87.86   94.72 
  -3  23   3   82.84   78.08 
  -3 -23   3   56.06   60.03 
  -5   5  14   32.14   34.81 
  -5  -5  14   10.67   46.28 
  -8   5   1  133.13  172.97 
  -3 -16  12 1641.49  278.44 
  -3  16  12 1469.40  132.47 
   0 -25   0   -7.27   44.56 
   0  25   0   19.79   47.64 
  -5  16   9   97.38   86.91 
  -5 -16   9   25.82   31.27 
  -5  17   8   70.99   82.65 
  -5 -17   8   54.20   45.04 
  -5  -9  13  165.40   84.70 
  -6  17   1  398.41   70.56 
  -7   7   9  238.04  155.00 
  -5   9  13  107.09  127.75 
  -7  -7   9  316.49  283.91 
  -6 -17   1  278.44  163.94 
  -5  -9  13  145.38   71.62 
  -6  17   2  898.98  112.92 
   0 -11  15  447.52  319.23 
  -6 -17   2  854.34  109.34 
   1  24   4  138.09  136.86 
  -1 -24  -4  200.81  141.58 
   0  11  15  474.37  190.87 
  -1  23  -6  790.22  149.79 
   0  11  15  604.74  124.32 
   1 -23   6  841.62  174.28 
  -1 -23  -6  459.54  326.33 
  -7  12   5   79.08  131.06 
   5   0  12   37.83   49.90 
  -1  24  -4  103.96  151.35 
  -1  24  -4  150.31  106.06 
   1 -24   4  113.40  171.76 
   1  23   6  778.16  137.42 
  -1  23  -6  777.27  120.14 
  -7 -12   5   59.96   70.20 
  -6  14  -5   99.93   61.69 
  -2   7  16  933.23  107.32 
  -4  21  -3   25.32   44.83 
  -2  -7  16  884.12  112.59 
  -4 -21  -3   34.91   63.89 
   6  14   5   64.93   54.42 
  -2  -7  16  889.59   95.97 
   4  21   3   19.94   25.56 
  -8   3  -1   72.72   56.55 
  -4  -6  15   73.69   72.22 
  -5  19   5  169.61  125.77 
  -4   6  15  134.27  120.49 
  -5 -19   5  127.41  174.84 
   1  -5  16  795.57   96.26 
  -5  19   5  175.51  118.08 
   1   5  16  749.12   96.79 
  -4  -6  15  101.93  106.80 
  -7  13   2  187.59  167.40 
  -4  21   5  402.72   90.88 
   5   1  12   24.24   47.22 
  -4 -21   5  506.19  129.64 
  -4  21   5  526.57  173.40 
  -7 -13   2  141.07  203.48 
   5  -1  12   20.46   35.62 
   3  21   6   11.53   52.49 
   7   6   6   16.35   24.87 
  -3  21  -6   12.64   47.22 
  -7   6  -6   11.78   23.53 
   3 -21   6   48.94   25.87 
   3  21   6   50.93   26.68 
   4 -10  12  163.43  100.00 
   4  10  12  164.53  114.91 
   0  25  -1   65.22   47.64 
   0  25   1   67.10   79.61 
  -4  10 -12  131.06   74.63 
   0 -25  -1   77.72   63.16 
  -2  24  -2  211.09  205.67 
   0 -25   1   60.65  140.95 
   2 -24   2  146.70  200.43 
  -2  24  -2  192.09  124.58 
  -2 -24  -2  199.40  267.44 
   2  24   2  251.70  224.46 
  -7   9   8  429.07  253.55 
  -7  -4  10   41.11   31.39 
  -2 -24   3  611.79  336.92 
  -7   4  10   26.47   25.39 
   2  24  -3  634.76   88.35 
  -2  24   3  516.43   59.00 
  -2  24   3  488.83  288.26 
   0  22  -8   13.66   26.37 
  -7  13   1   -0.11   29.41 
  -7 -13   1   22.39   32.90 
   0  22   8   20.82   34.99 
   0  22  -8    1.31   29.23 
   0  22   8   30.90   15.24 
   0 -22   8   24.17   49.14 
   7   0   7   57.73   68.63 
   1 -15  13   19.30   35.61 
  -6 -14   8   18.04   32.28 
   1  15  13   69.89   53.66 
   1  15  13   35.28   64.11 
   6  15   4   20.10   36.76 
   6  15   4   26.93   36.93 
  -6  15  -4   71.49   34.30 
   7  11   3   14.41   33.73 
   3  11  13  166.91  104.68 
  -7  11  -3   11.93   47.09 
   3 -11  13  213.15  102.45 
  -1  22   8  471.71  248.45 
  -1 -22   8  518.62  249.06 
   7  -1   7  140.36  174.10 
   7   1   7  144.32   98.51 
  -4  16  -9 1971.22  140.81 
   4  16   9 1564.19  173.74 
   4  16   9 1821.08  146.27 
   4 -16   9 1842.39  151.66 
   2 -11  14   -5.66   42.79 
   2  11  14   41.64   29.57 
   2  11  14   18.11   31.74 
  -4  20  -5  985.99   96.38 
   4  20   5  715.95  131.39 
  -3  23  -2   19.84   31.17 
  -6  15   7   30.85   36.55 
  -4  10  14   79.19   72.89 
   3  23   2   31.62   33.30 
   5  -2  12  400.36  273.58 
  -3 -23  -2   38.21   38.57 
  -1 -14  14   60.23   61.14 
  -6 -15   7   28.03   51.48 
  -1  14  14   71.82   42.55 
  -4 -10  14   57.26   66.63 
   5   2  12  680.19   97.81 
  -3  23  -2   16.79   40.36 
  -1 -19  11  131.67   77.72 
  -4 -10  14   66.58   64.23 
  -1  19  11   62.51   56.71 
   6  17   0   71.30   70.74 
  -6  17   0   56.51   60.48 
  -6 -17   0   80.81   80.27 
  -3  22   6   50.68   34.79 
  -1  -8  16   51.66   88.29 
  -1  -8  16   31.29   72.21 
  -7 -13   3  612.44   78.53 
  -1   8  16   88.01   51.16 
  -3 -22   6   52.15   58.20 
  -7  13   3  415.45  249.33 
   6  13   6   -1.93   49.16 
  -3  22   6   53.80   38.69 
  -1   8  16   75.96   60.74 
  -6 -17   3 1522.69  327.83 
  -6  17   3 1737.25  143.95 
  -1  16  13   13.22   27.92 
  -4  16  11   28.59   65.04 
   7  10   4  199.05  214.01 
  -7  10  -4  178.12  202.87 
  -4 -16  11   41.24   55.88 
  -4  20   7 1643.24  132.97 
   1  10  15  820.69   81.16 
   1 -10  15  916.04  112.26 
  -2 -11  15  101.94   58.23 
  -2  11  15   72.47   88.72 
   1  10  15  962.51  122.99 
  -4  20   7 1653.87  129.06 
  -4 -20   7 1479.14  297.28 
  -2 -11  15   73.90  108.81 
  -8   5   0  539.26  239.41 
  -6   7  -9  517.32  226.77 
   6   7   9  716.03  118.78 
   6  -7   9  584.81  100.37 
  -5 -15  10   49.29   32.54 
   6   0  10   39.34   58.41 
  -5  15  10   35.75   88.60 
   3 -17  10  105.61   63.30 
  -3  17 -10   70.69   48.22 
   3  17  10   53.46   68.40 
   3  17  10   54.72   41.84 
  -3   5  16   63.75   83.82 
  -3  -5  16   77.75   55.75 
  -3  -5  16   36.08   46.62 
   7  -2   7   14.17   27.52 
   7   2   7    9.95   18.18 
   0  24  -5  131.38  106.83 
   0  24   5  108.59  125.30 
   0 -24   5  104.80  167.25 
   6   1  10   15.94   51.56 
   0  24  -5  101.11  115.22 
   0 -24  -5  105.92  126.37 
  -5  18   7  123.82  167.84 
  -6  13   9  279.84  135.79 
  -5  18   7   91.49  142.85 
  -5 -18   7  160.76  162.37 
  -6 -13   9  117.61  203.95 
   0  19  11   18.53   25.57 
   0 -19  11   32.68   45.65 
  -7  12  -2   21.48   39.58 
   0  19  11   25.63   29.39 
   5   8  11   -8.73   45.13 
   5  -8  11   17.02   35.29 
  -5   8 -11   14.87   24.36 
  -8   4  -1    2.56   21.85 
  -7  13   0   58.46   49.73 
   7  13   0   10.91   31.80 
  -4  22   1   97.62   87.66 
   4  22  -1   44.22   60.25 
  -4 -22   1  157.85  123.98 
  -4  22   1   96.97   63.70 
   1  13  14  792.88   97.47 
  -5  20   1   33.19   31.85 
   1  13  14  807.18  150.27 
   1 -13  14  799.47  130.05 
  -5 -20   1   18.98   29.06 
  -8   6   2  894.54  183.72 
   5  20  -1    2.17   23.45 
  -6  -7  12   30.83   37.66 
  -2 -23  -5  202.35  213.79 
   0  25  -2   38.76   32.14 
  -6   7  12   33.67   37.94 
   0 -25   2   23.60   55.44 
  -2  23  -5  240.43  217.24 
   0  25   2    7.39   38.10 
   0 -25  -2   30.88   37.54 
   2  23   5  260.29  133.45 
   2 -23   5  186.24  115.63 
  -8   0   6    1.00   24.04 
   5  19   3  151.97  148.01 
  -5 -19  -3  117.33  135.00 
  -5  19  -3  149.32  122.92 
  -6   0  13   36.72   42.21 
   1 -25   0  197.61  104.04 
   5  -3  12   57.55   50.88 
  -1 -25   0  146.60  154.45 
  -1  25   0   78.89  125.04 
   1  25   0  177.62   93.95 
  -1  25   0  153.85  115.33 
   5   3  12   44.31   44.51 
  -5   3 -12   98.37   48.15 
  -2 -23   6   96.12  117.17 
   2  23  -6  141.44  149.33 
  -2  23   6  105.55   75.69 
   1 -17  12  181.33  210.99 
  -5 -20   2  373.61  295.90 
   1  17  12  146.35  156.05 
  -5  20   2  308.88  255.39 
   1  17  12  139.30  184.91 
   3   8  14   30.67   25.50 
   3  -8  14   17.13   42.66 
   6  -2  10  148.95  136.99 
  -8  -1   6  655.84  163.52 
   0  16  13  751.10   83.45 
   0  16  13  910.36   90.90 
   6   2  10  182.40   93.18 
  -8   1   6  759.67   87.66 
   0 -16  13  696.83  143.21 
  -6   1  13   -7.79   37.51 
  -6  -1  13    3.54   28.57 
   4  22   0   38.91   26.43 
   1  25  -1 1328.27  131.61 
  -1  25   1 1530.52  127.31 
  -4 -22   0   20.07   49.48 
  -1 -25   1 1408.47  132.49 
   0 -14  14  124.04  107.03 
   1 -25  -1 1395.95  113.14 
   0  14  14   70.46   90.07 
  -4  22   0   17.09   37.22 
  -8   6   1  427.63   63.52 
  -5   6  14   28.55   36.25 
  -5  -6  14   66.10   40.38 
  -4  22   2   14.21   16.12 
  -4  22   2   16.17   20.22 
  -4 -22   2   13.29   30.21 
   4  22  -2   23.76   37.95 
   1  24  -5   19.43   16.93 
  -1 -24   5   44.65   60.12 
   1  24  -5   26.39   31.13 
   1 -24  -5   22.30   51.96 
  -1  24   5   44.26   30.95 
  -7  -5  10   52.69   71.82 
  -7   5  10   61.75   91.09 
   5  20   0   29.40   40.63 
   4   7  13 1473.82  130.25 
  -5 -20   0   47.49   38.20 
  -5  20   0   36.08   48.99 
   7  -3   7  658.43   74.54 
  -8   2  -2 1577.25  116.26 
   4  -7  13 1592.74  130.74 
   7   3   7  720.62  179.98 
  -4   7 -13 1524.98  115.30 
  -6  16  -3  125.07  111.75 
   3  23  -4  173.20  139.52 
  -5  13  -9  649.27  332.57 
   5  13   9  604.57  381.27 
  -3  23   4  106.02  123.27 
   6  16   3  116.47  110.75 
  -3 -23   4  206.91  171.78 
  -3  23   4   80.92  148.81 
   5 -13   9  709.59  180.76 
   6  16   3   76.05   62.10 
  -5  11 -10  213.60  133.77 
   5 -11  10  255.89  210.16 
   5  11  10  326.42  121.04 
  -3  20   9   34.46   61.46 
  -3 -20   9   78.12   50.42 
  -6  10  -8   12.79   22.30 
   6  10   8   40.74   53.52 
   6 -10   8   19.51   22.27 
   1  -6  16  197.68  156.40 
   1   6  16  166.62  163.35 
  -3 -19  10  246.75  157.27 
  -3  19  10  132.35  228.60 
  -1  25  -1  111.77  113.50 
  -1  25  -1   91.33   84.96 
   1 -25   1   99.06  117.23 
  -5  12  12    1.94   38.14 
  -5 -12  12   32.30   24.21 
   1  25   1  171.96  138.22 
  -1 -25  -1  113.79  108.86 
  -7  13   4   34.39   55.86 
  -7 -13   4  110.73   65.74 
  -8  -2   6   21.24   26.93 
  -6 -16   6   49.85   65.34 
  -6  16   6  133.69   62.58 
  -6  16   6   53.05   83.01 
  -8   2   6   27.43   35.69 
   0   8  16  106.72   56.98 
   0   8  16   93.42   73.85 
  -6  -2  13   22.25   61.74 
   0  -8  16   78.60   80.73 
  -6   2  13   23.78   37.44 
   6  17   1  119.43   76.75 
  -6 -17  -1   82.42  120.47 
  -6  17  -1   98.89  101.83 
   0  23   7  419.30  303.47 
   0 -23   7  925.85  105.05 
   0  23   7  810.08  246.87 
   0  23  -7  789.22  142.39 
   0  23  -7  906.42  134.85 
  -1   0  17   -2.11   35.90 
  -1   0  17   12.85   28.22 
   5  17   6  438.78  118.97 
  -6 -17   4  141.78   73.01 
  -5  17  -6  593.84   95.32 
  -6  17   4   47.10   61.32 
  -2  20  -9   36.88   26.80 
  -4  -7  15    0.32   35.58 
   5  17   6  267.23  309.99 
   3   0  15   19.41   47.03 
  -4  -7  15   50.91   75.36 
   2 -20   9    9.52   32.44 
   2  20   9   12.66   24.54 
  -4   7  15   20.75   53.19 
   2  20   9   25.56   32.32 
  -7   9  -5   30.32   24.90 
   2  -8  15  383.63  268.17 
   7   9   5   48.51   60.39 
   2   8  15  300.14  239.66 
   7   7   6  184.71  154.25 
  -7   7  -6  112.00  127.80 
  -6  10  11   32.72   50.46 
   6  -3  10   69.44   45.15 
   6   3  10   19.75   47.92 
   2  21   8   17.75   18.17 
  -1  -1  17 1182.39  105.73 
   2  21   8   15.33   38.86 
  -1   1  17 1188.81  115.78 
  -1   1  17 1182.52  125.81 
  -1  -1  17 1102.90   99.40 
  -2  21  -8   27.48   57.46 
   2 -21   8   -2.17   34.91 
  -2  20  10  146.88  134.03 
  -2 -20  10  162.88  146.37 
   4 -13  11  193.29  160.98 
  -4  13 -11  223.69  137.66 
   4  13  11  149.57  177.53 
  -5  20   3   37.90   32.82 
   3  -1  15  146.08  119.48 
   3   1  15   94.48  150.10 
  -5  20   3   48.44   54.84 
  -5 -20   3   30.02   47.97 
  -7   8   9   62.15   87.23 
   1  23  -7   57.89   68.51 
   1  23  -7   38.60   48.55 
  -2 -24  -3 1514.95  132.77 
  -2  24  -3 1598.35  129.57 
  -3  10  15  485.44   76.35 
  -2  24  -3 1390.38  103.11 
  -3 -10  15  400.66   65.78 
  -3 -10  15  410.66  120.54 
   2  24   3 1489.57  135.92 
   2 -24   3 1388.93  115.66 
   6  12   7  847.62  220.62 
  -2  21   9   19.19   37.06 
  -6  12  -7  930.90  100.33 
  -2 -21   9   61.12   68.12 
   5  16   7  696.12   89.95 
  -2  -8  16  924.60  111.73 
   2  24  -4  152.38   69.47 
   5  16   7  498.97  420.65 
  -2   8  16 1024.51  101.13 
  -2  -8  16 1076.94  105.13 
  -2  24   4   84.75   76.77 
   5 -16   7  625.80   84.11 
  -2  24   4  148.61   67.35 
  -5  16  -7  661.31  373.08 
  -7  11   7   72.60   86.81 
  -2 -24   4  141.97  155.23 
   1 -25  -2   30.04   25.95 
   1  25  -2   23.81   26.62 
  -1 -25   2   61.68   40.48 
  -1  25   2   11.04   41.11 
   2 -14  13  182.37  141.10 
   2  14  13  236.39  172.48 
   2  14  13  256.19  173.35 
  -3 -22  -5   13.49   55.81 
  -3  22  -5   47.50   40.75 
  -8   3  -2 1057.11   94.20 
   3  22   5   34.92   41.31 
   5   4  12   63.07   42.42 
  -1 -12  15   71.94  104.10 
  -5   4 -12   18.62   33.57 
  -1  12  15   97.40  127.20 
   5  -4  12   53.44   31.75 
   1  21   9    9.82   44.33 
  -4  22  -1   43.97   37.21 
   4  22   1   49.16   69.70 
  -4 -22  -1   -0.57   51.91 
   1 -21   9   45.29   23.74 
  -8   5  -1   16.59   36.77 
  -1  21  -9   19.12   26.09 
  -8   6   0  245.03  193.65 
   1  21   9   48.71   48.21 
  -4  22   3  209.48  100.03 
   4  22  -3  135.01  123.15 
  -4  13  13  213.33  208.77 
  -4 -22   3  134.67  139.44 
  -4 -13  13  179.70  136.80 
  -4  22   3  127.58  138.05 
  -3  -6  16   25.75   43.32 
  -7 -12   6    8.99   26.92 
  -3   6  16   29.32   73.79 
  -3  -6  16    6.59   21.20 
  -2 -14  14   16.13   36.15 
  -2  14  14    9.78   42.12 
   7  13   1   93.56   99.08 
  -7  13  -1  138.34  129.10 
   7  13   1   71.16   76.01 
  -1  -2  17   12.03   21.19 
  -1   2  17   23.68   33.21 
  -8   3   6 2513.85  132.51 
   2 -16  12   46.85   54.85 
   2  16  12   48.67   40.85 
   2  16  12   43.93   65.25 
  -8  -3   6 2408.43  201.32 
  -1   2  17   32.25   32.63 
   3   2  15  515.40  101.53 
  -3 -21   8  281.91  171.39 
  -3  21   8  392.02  217.23 
  -6  -3  13   24.24   56.19 
  -1 -18  12   24.78   44.98 
  -6 -12  10    3.27   28.33 
  -6   3  13   34.87   41.17 
   3  -2  15  275.64  282.90 
  -6  12  10    7.36   34.90 
   3  14  12   34.85   63.86 
   7   4   7  103.97   96.13 
   3  14  12   42.20   97.84 
  -5 -14  11  461.17   67.77 
  -5  14  11  448.22  290.07 
  -7   4  -7   88.06   99.67 
   3 -14  12   65.60   38.48 
   7  -4   7   37.99   76.36 
  -3  14 -12   63.68   65.02 
  -3 -23  -3   31.37   22.26 
   5  18   5   60.49   54.47 
  -5  18  -5   37.49   51.62 
   3  23   3   14.31   21.23 
   5  18   5   21.71   45.28 
  -3  23  -3   24.93   22.34 
  -5 -10  13   36.48   36.18 
  -5  20  -1  152.35   72.64 
  -3 -18  11   16.76   41.81 
  -3  18  11   39.02   40.93 
  -5  10  13   65.68   48.22 
   5  20   1  143.94  136.54 
  -5 -20  -1  169.15  146.29 
  -5 -10  13   47.08   40.62 
  -2 -16  13   16.91   20.35 
  -2  16  13    9.74   27.25 
   4  15  10   10.86   33.02 
   4 -15  10   -7.24   36.85 
  -4  15 -10   21.72   34.75 
  -1  20 -10  782.69  179.20 
   1  20  10  589.56  104.33 
   1 -20  10  695.27   86.16 
   1  20  10  452.05  260.34 
   2  19  10   15.99   23.54 
   2  19  10   31.66   50.17 
  -2  19 -10   44.55   71.02 
   2 -19  10   34.61   23.01 
   0  25  -3   55.35   41.94 
   0  25  -3   40.41   47.33 
   0  25   3   27.85   79.44 
   0 -25   3   23.72   58.63 
   0 -25  -3   35.82   63.87 
  -5 -19   6 1577.85  192.03 
  -5  19   6 1570.11  109.52 
  -5  19   6 1541.36  114.76 
  -1  25  -2   35.28   58.10 
  -1 -25  -2  115.70  130.69 
  -1  25  -2   74.03  113.83 
   1  25   2  108.32  106.22 
   1 -25   2   51.17   61.40 
   6   8   9   33.76   48.73 
  -4 -21  -4  198.89  116.59 
  -6   8  -9    9.09   25.59 
   1  22   8   40.40   86.29 
   1 -22   8   10.76   54.02 
   6  -8   9   14.97   21.18 
  -4  21  -4  113.97  115.08 
  -1  22  -8   34.99   38.62 
   1  22   8    8.74   38.12 
   4  21   4  150.44   88.95 
  -2 -19  11  161.31   80.28 
  -2  19  11  153.04  160.96 
  -7  10   8  841.60   90.25 
  -3  15  13   70.94   83.86 
  -8   7   2  119.64  133.88 
  -3 -15  13   13.64   41.77 
  -4 -15  12   85.41   84.60 
  -4  15  12   71.41  112.31 
   1  24   5   93.57  123.55 
  -1  24  -5  135.92  155.18 
   0  18  12   29.72   54.94 
   0 -18  12    9.62   25.04 
  -4 -21   6  119.65  128.07 
  -1  24  -5   84.69   92.07 
   1 -24   5  114.24  129.43 
   0  18  12    9.63   23.02 
  -4  21   6   93.78   59.66 
  -4  21   6   84.63   60.65 
  -1 -24  -5  109.27  118.32 
   2   0  16   98.01  129.01 
   6   4  10  236.36  225.62 
   2  22   7  170.23  165.64 
  -1   9  16    8.88   23.93 
  -2  22  -7  188.70  134.63 
   2 -22   7  147.02  143.76 
   2  22   7  135.85  183.04 
  -1  -9  16   10.74   19.24 
  -1   9  16   12.03   31.62 
  -6   4 -10  264.35  220.44 
   6  -4  10  448.57  135.06 
  -1  -9  16   -0.56   44.73 
  -7  -6  10   42.59   35.00 
  -7   6  10   28.33   28.52 
  -3  13  14 1457.14  125.17 
  -2  22   8   92.49  120.52 
  -2 -22   8  140.44  127.43 
  -3 -13  14 1560.18  119.44 
  -1   3  17  571.46   70.99 
  -1  -3  17  537.90  114.80 
  -1  -3  17  661.34   73.25 
  -1   3  17  697.76  180.52 
   2   1  16   19.84   26.42 
   0   0  17   16.75   29.38 
   4  11  12  228.99  210.85 
   2  -1  16    9.98   32.43 
   4 -11  12  355.84  188.26 
  -4  11 -12  261.77  281.52 
  -8   7   1  730.92  133.39 
   3  -3  15   39.40   57.08 
   0 -12  15  218.78  176.09 
  -5  -7  14   82.78   99.08 
   0  12  15  191.45  185.49 
  -8   4  -2 1578.96  104.86 
   0  12  15  198.30  170.67 
  -5   7  14  127.13   97.79 
  -2   0  17   17.82   22.12 
  -6  -8  12   86.18   85.67 
   3  16  11   18.32   27.44 
   3 -16  11   32.05   20.83 
  -3  16 -11   50.44   67.71 
  -6   8  12   28.86   55.46 
  -2   0  17   20.53   24.42 
   3  16  11   17.91   26.03 
  -8   7   3   -5.08   35.93 
   0   1  17   28.16   34.17 
   0  -1  17    3.49   25.34 
   5  15   8   44.82   44.61 
   5 -15   8   21.95   32.66 
  -5  15  -8   13.52   29.15 
   0   1  17   11.93   33.72 
   5   9  11  225.12  172.75 
  -5   9 -11  199.91  156.20 
   5  -9  11  131.97  206.28 
  -2   1  17   41.30   53.07 
  -2  -1  17   17.75   38.49 
  -2   1  17   11.64   41.11 
  -2  -1  17   30.95   57.17 
  -8   4   6  739.45  201.62 
   1  -7  16 1395.32  130.82 
  -6   4  13    3.63   36.90 
  -6  -4  13    6.59   35.83 
   1   7  16 1343.86  111.63 
  -5  20   4  159.76  160.21 
   5   5  12  108.68  111.39 
   5  -5  12   42.17   54.56 
  -7  13   5   75.81   58.85 
  -5   5 -12   66.37   35.49 
  -7 -13   5   60.14   63.19 
  -5  20   4  232.49  135.14 
  -5 -20   4  170.76  198.70 
  -4 -11  14   79.52   65.22 
  -4  11  14   41.25   62.70 
  -4 -11  14   59.48   50.74 
  -7   0  11   89.34   79.26 
  -3  12 -13   46.58   47.88 
   7  12   3   40.46   48.04 
   3 -12  13   38.57   54.25 
   2   2  16   40.40   38.39 
  -7  12  -3   23.89   36.12 
   3  12  13   32.05   30.70 
   2  -2  16   11.09   37.81 
  -1 -25   3   75.36  130.32 
   1  25  -3  143.76  146.20 
  -1  25   3  130.39   77.05 
   1 -25  -3   66.44  112.71 
  -7  11  -4   72.91   60.27 
   4  -8  13   18.07   41.01 
   7  11   4   16.59   52.02 
   1  11  15   35.83   75.17 
   1  11  15   38.34   83.97 
  -4   8 -13    3.66   32.59 
   4   8  13   14.63   31.46 
   1 -11  15   70.74  107.35 
  -7  -1  11   19.93   36.28 
  -7   1  11   33.87   41.35 
   3  -9  14  296.39  146.32 
   6  17   2   77.56   51.97 
   3   9  14  230.17  179.99 
  -6  17  -2   44.04   56.51 
  -6 -17  -2   51.51  132.32 
   2  12  14  202.33  216.44 
   0  -2  17   58.96   48.90 
   0   2  17   24.62   30.37 
   2  12  14  221.79  203.00 
   2 -12  14  420.74   72.81 
  -7   5  -7   36.43   70.77 
   7   5   7   66.70   73.30 
   4   0  14   18.71   53.16 
   7  -5   7   43.64   36.92 
  -2   2  17  147.28  144.36 
  -2  -2  17  170.97  120.20 
  -2   2  17  113.92  145.64 
  -2  -2  17  139.46  162.49 
   4 -19   7 1341.41  108.19 
   4  19   7 1520.99  133.72 
  -6  17   5   14.33   37.27 
  -6  17   5   13.41   15.81 
  -8   6  -1  121.37  171.56 
   4  19   7 1335.03  190.08 
  -6 -17   5   16.81   24.10 
  -4  19  -7 1542.51  127.37 
  -4  22  -2   48.02   48.04 
   4  22   2  101.90   89.06 
  -4 -22  -2   32.95   61.78 
  -7 -14   2  100.99  103.22 
  -7  14   2   92.66  126.86 
  -4  22   4   17.19   27.72 
  -4  22   4   22.59   40.99 
  -4 -22   4    9.67   36.84 
   4  -1  14  142.92  154.43 
  -3  23   5  248.92  160.68 
   4   1  14  157.38  192.96 
  -3 -23   5  234.37  194.92 
  -2 -12  15  326.89  289.55 
  -2  12  15  517.14   78.72 
  -3  23   5  140.17  143.02 
   1  19  11   14.62   38.19 
   1  19  11   20.59   30.14 
   1 -19  11   43.92   34.32 
   4  18   8   10.60   34.67 
   4 -18   8   20.34   27.25 
   4  18   8   39.01   77.06 
  -4  18  -8    5.63   30.93 
  -4  -8  15   17.40   54.46 
  -4   8  15   23.94   55.57 
  -4  -8  15   37.23   39.00 
  -7 -14   1   15.50   40.78 
  -4  19   9  875.47   94.48 
  -7  14   1   38.08   63.92 
  -4 -19   9  854.42   96.47 
  -8   0   7   10.21   18.67 
   7   8   6 1026.11  287.78 
  -7   2  11   30.57   37.88 
  -7  -2  11   48.94   44.82 
  -7   8  -6 1416.84  112.18 
   6  15   5   47.64   48.49 
  -1   4  17   96.09   86.22 
  -1   4  17   90.10  118.39 
  -1  -4  17   89.42   78.91 
  -6  15  -5   14.81   39.10 
  -1  -4  17   58.79   92.41 
  -8   7   0  136.96  164.20 
   3  20   8   48.69   64.13 
   0  -9  16   58.92   50.92 
   3 -20   8   35.98   24.32 
   0   9  16  109.29   77.77 
   0   9  16   25.17   49.30 
   3  20   8   35.28   41.99 
  -3  20  -8   18.31   67.69 
  -8   1   7   -0.53   33.65 
  -8  -1   7   35.50   28.43 
  -4   0  16  126.06   89.78 
   3  -4  15   91.01   96.08 
   3   4  15   43.47  102.86 
  -5  19  -4  731.02  118.74 
   5  19   4  873.62  121.10 
   5  19   4  741.97  114.79 
  -3  -7  16   56.93   91.65 
  -4 -18  10   90.39   59.79 
  -3  -7  16  141.67   90.77 
  -4  18  10   60.22   72.61 
  -3   7  16   81.66   54.35 
  -3  22   7  424.19  309.23 
   1 -23   7  224.04  137.27 
   1  23   7  107.28  103.32 
  -1  23  -7  132.74  163.06 
   1  23   7  165.96  125.90 
  -6   5 -10   72.79   62.59 
   6  -5  10   75.38   52.31 
  -3 -22   7  583.49  136.70 
  -1  23  -7  167.82  120.39 
   6   5  10  102.58   84.35 
   2   3  16   58.67   70.93 
   2  -3  16   84.87  102.98 
  -4   1  16 2698.78  164.10 
  -4  -1  16 2582.74  156.40 
   2  -9  15  136.32   75.43 
   2   9  15  158.57  120.93 
   5  20   2   98.75   90.27 
  -5 -20  -2   55.40  151.27 
   0 -24  -6   -2.42   27.69 
   4   2  14  963.01  169.74 
  -6  15   8   46.00   25.42 
  -5  20  -2   82.82  126.33 
   0  24   6   31.53   42.28 
   0 -24   6   26.08   37.56 
   0  24  -6   59.11   45.04 
  -6 -15   8    5.22   41.35 
   4  -2  14 1030.86  105.31 
   0  24  -6   37.86   38.10 
  -7 -14   3  372.49  288.52 
  -7  14   3  545.99  172.03 
  -6  14  -6  147.07  181.93 
   6  14   6  281.05  201.38 
   2  18  11  249.32  223.30 
  -2  18 -11  300.91  271.29 
   0  -3  17   35.00   42.48 
  -7  13  -2   15.02   38.86 
   7  13   2   15.38   32.45 
   2  18  11  402.33   67.35 
   0   3  17    8.89   38.55 
   2 -18  11  229.39  240.09 
   0   3  17   29.20   38.01 
  -3  19  -9  235.34   95.25 
  -7   9   9  110.97   94.23 
   3 -19   9  148.42  141.59 
   3  19   9  169.83  111.89 
  -8   5  -2  103.55  167.78 
   3  19   9  165.58   87.41 
  -2   3  17   98.48   70.33 
  -2  -3  17  178.15  144.73 
  -2   3  17  148.30  118.88 
  -3  17  12   41.09   67.86 
  -3 -17  12   52.77   62.31 
  -2  -3  17  107.99  138.25 
  -5  17   9   14.28   21.14 
  -2   9  16  249.25  265.70 
   1  25   3  120.12  115.90 
  -1  25  -3   77.51   83.81 
  -2  -9  16  189.66  131.58 
  -2  -9  16  213.02  187.40 
  -1 -25  -3  100.49  109.40 
   1 -25   3   49.88  112.74 
  -5 -17   9   17.19   23.62 
  -1  25  -3   79.36   81.66 
   6 -11   8   84.97   58.87 
  -6  11  -8   64.23   84.22 
   6  11   8  122.35  101.54 
   7  10   5   54.65   72.30 
  -7  10  -5   21.15   50.60 
  -8   2   7   94.81  108.99 
  -8  -2   7   98.96  165.06 
   4 -20   6   16.01   35.61 
   2  24   4  129.72   98.98 
  -2  18  12  101.74  111.27 
  -2 -18  12  131.33  153.36 
   4  20   6   -4.75   52.87 
  -4  20  -6    3.89   40.39 
  -2  24  -4   74.66   38.01 
   4  20   6   18.89   28.96 
  -2  24  -4   83.50   53.02 
   2 -24   4   49.22   98.35 
  -2 -24  -4   81.02   78.19 
  -1  15  14  202.18  130.96 
   1  16  13   27.53   39.32 
   1  16  13   28.22   44.80 
   1 -16  13   16.08   32.74 
  -1 -15  14  169.06  177.07 
   6  16   4  138.70  168.90 
  -2 -24   5  500.01  126.03 
  -6  16  -4  126.52  117.34 
  -5   0  15 1253.20  120.57 
  -2  24   5  423.35   67.65 
   6  16   4   68.74   89.15 
   2  24  -5  225.00  252.91 
   3 -21   7  113.27  198.75 
  -3  21  -7  213.41  186.17 
   3  21   7  156.78  167.12 
  -6  14   9   37.01   37.82 
  -6 -14   9   21.52   44.03 
   3  21   7  114.75  157.66 
  -4  -2  16   38.93   51.20 
  -6  -5  13  278.45  239.93 
  -6   5  13  208.02  225.34 
  -4   2  16   45.45   53.78 
  -1 -24   6  189.16   86.20 
  -1  24   6  207.29  112.64 
   1  24  -6   99.80   98.85 
   1  24  -6   97.03   80.45 
  -5  12 -10   17.79   32.03 
   5  12  10   -4.08   48.89 
  -7  14   0   41.78   60.34 
  -7  -3  11  391.66  215.84 
  -4 -20   8  127.26  131.90 
   5 -12  10   10.16   40.87 
   7  14   0   62.23   53.78 
  -7   3  11  479.66   74.55 
  -4  20   8  137.60  116.71 
  -3 -24   1   42.64   49.51 
  -5   1  15   31.82   38.58 
  -3  24   1   31.00   46.23 
   3  24  -1   39.18   33.02 
  -5  -1  15   34.43   81.32 
  -3  24   1   60.97   54.04 
  -5  18   8  221.15  123.47 
  -5 -18   8  166.67  141.36 
   1  14  14  583.97   78.00 
  -6  18   1 1027.22  135.12 
  -7   7  10   73.49   59.96 
  -6 -18   1  748.70  296.50 
   1 -14  14  563.89  304.19 
   1  14  14  553.79  143.97 
  -7  -7  10   69.54   49.44 
  -2 -23  -6   29.72   47.35 
  -6 -16   7 1465.85  192.57 
   2  23   6   30.14   18.52 
  -6  18   2   25.24   63.29 
  -6  16   7 1421.80  114.62 
  -6 -18   2   25.91   44.15 
   2 -23   6   26.75   32.61 
  -2  23  -6   26.54   30.04 
  -6  11  11   -4.24   41.39 
  -6 -11  11   20.67   39.46 
   0  25  -4   28.36   42.49 
   0  25   4   -6.83   38.94 
   0 -25  -4   -8.53   32.10 
   0  25  -4   21.89   26.10 
   0 -25   4   11.42   24.82 
  -3 -24   0 1409.12  217.38 
  -3  24   0 1201.02  108.48 
  -3  24   0 1175.86  129.75 
   3  24   0 1310.12  118.96 
  -8   8   2  154.38  172.39 
  -2  23   7   75.24   59.75 
  -2 -23   7   90.00   63.44 
   5  -6  12   57.56   37.65 
  -5   6 -12   24.27   29.26 
  -3  11  15  213.84  158.87 
  -4   3 -14    7.85   26.29 
  -8   3  -3   67.53  108.13 
   5   6  12   21.71   32.28 
   4  -3  14   46.26   80.23 
  -3 -11  15   96.46  162.54 
   4   3  14   82.19   73.41 
   4  17   9   46.42   65.51 
  -4  17  -9   41.79   44.07 
   4  17   9   18.98   21.83 
  -5  16  10  871.62   99.07 
  -5 -16  10  561.22   75.27 
   6   9   9 1321.68  137.25 
  -2  25   0 1905.36  116.75 
  -2  25   1  146.64  167.97 
   6  -9   9 1443.71  100.92 
  -5 -13  12  983.09  122.44 
   2  25   0 1933.40  133.27 
  -2  25   0 1858.08  246.53 
  -6   9  -9 1442.89  141.47 
  -2  25   1   72.80  148.01 
  -2 -25   1  171.91  180.39 
  -5  13  12 1125.68  113.47 
  -2 -25   0 1337.49  113.58 
   2  25  -1  143.19  176.67 
  -5   2  15 1108.77  108.73 
  -5  -2  15 1234.91  136.06 
   2  -4  16   22.59   34.18 
  -3 -23  -4  278.60  222.22 
   3  23   4  592.29   75.85 
  -1 -17  13   29.93   36.19 
  -3  23  -4  374.90  285.05 
   2   4  16    6.24   21.68 
  -1  17  13   42.49   49.26 
   3 -23   4  223.14  227.94 
  -8  -3   7   43.29   46.26 
  -8   3   7   28.90   46.43 
  -8   8   1   36.11   54.82 
  -4 -17  11 1012.43   98.34 
  -4  17  11 1133.96  107.47 
  -5  -8  14  106.79   99.62 
  -3 -24   2  588.38   88.99 
  -3  24   2  231.84  268.57 
  -5   8  14   60.82  105.65 
  -3  24   2  446.68  156.95 
   3  24  -2  323.74  322.74 
  -7   6  -7   14.91   31.75 
   5  14   9  115.63   86.98 
   5 -14   9   41.60   51.81 
  -1 -21  10  556.72  177.60 
  -1  21  10  636.72  124.30 
   7   6   7    9.86   18.64 
  -5  14  -9  131.77  108.45 
  -8   8   3  538.12  102.18 
  -1  -5  17  159.47  119.15 
  -1  -5  17  160.43  172.17 
  -1   5  17  399.34   66.14 
  -7  12   7   19.78   31.37 
  -1   5  17  340.18   52.32 
  -7 -12   7   -8.80   31.67 
   0  -4  17  162.96   83.34 
   3  -5  15   38.96   40.03 
   0   4  17   96.03   90.90 
   3   5  15   13.65   19.40 
   0   4  17   54.44   61.69 
  -4   3  16 2225.08  253.53 
  -4  -3  16 2059.45  154.85 
   0 -15  14  145.02  105.35 
   0  15  14  162.37  115.39 
   0  15  14  115.61   85.22 
   6  18   0   28.02   51.15 
  -2  -4  17   12.20   38.32 
  -6 -18   0   14.49   47.85 
  -6  18   0   39.64   51.06 
  -2  -4  17    7.14   26.14 
  -2   4  17   30.34   27.95 
  -1 -22   9   51.52   98.91 
   0 -21  10   13.69   65.06 
   1   8  16  141.41  160.98 
  -6 -18   3   68.80  102.93 
   1  -8  16  223.46  131.40 
  -6  18   3  126.35  108.52 
  -7  14   4  210.96  190.83 
  -1  22   9   86.02   69.68 
   1   8  16  165.65  132.74 
  -7 -14   4  208.92  119.66 
   0  21  10   50.12   51.75 
  -5  11  13   61.73  101.83 
  -5 -11  13  108.17   55.13 
  -5 -20   5   81.06   84.02 
  -5 -11  13  103.31  139.64 
  -5  20   5   91.23   69.28 
  -5  20   5   83.40   59.22 
   0  22   9   51.48  109.06 
   0  22  -9   73.40   73.53 
   0  22   9   59.11   33.17 
   0  22  -9   49.38   37.92 
   0 -22   9   66.67   53.12 
  -1 -25   4   31.16   42.23 
   1  25  -4   48.32   56.80 
  -1  25   4   37.25   28.58 
   1 -25  -4    7.59   29.66 
  -6   9  12    8.86   39.11 
  -6  13  -7   43.58   76.32 
  -6  -9  12   11.29   33.99 
   6  13   7   81.17   40.09 
  -8   7  -1   68.19   86.07 
  -1 -10  16   12.79   33.46 
  -1 -10  16   18.06   31.84 
  -1  10  16   18.39   25.48 
  -1  10  16    5.42   24.35 
   3  18  10  126.84  155.59 
  -3  18 -10  165.97  140.68 
   3 -18  10  124.32  152.67 
   3  18  10  178.46  164.93 
  -3  24  -1  634.90   71.59 
   3  24   1  498.52  307.47 
  -3 -24  -1  316.67  289.74 
  -3  24  -1  624.86  148.90 
  -1 -13  15  136.34  112.96 
  -1  13  15   91.28   92.51 
  -7  -4  11  450.51  239.63 
  -7   4  11  551.78   79.16 
   6   6  10   30.94   69.23 
  -4  14 -11  156.04  128.34 
   6  -6  10   54.09   63.06 
   4 -14  11  107.44  150.42 
  -7  11   8   19.20   43.79 
   4  14  11  156.42  200.96 
  -6   6 -10   31.08   43.24 
   2 -25   1   27.72   60.07 
  -2 -25   2   53.14   45.28 
  -2  25   2   21.42   43.12 
   2  25   1   49.67   63.69 
  -2  25  -1   43.94   37.66 
  -2 -25  -1   61.18   63.26 
   2  25  -2   40.47   19.22 
  -2  25  -1   58.41   61.17 
  -2  25   2   53.56   39.96 
  -7  13   6    9.05   15.69 
   0  17  13   23.00   35.30 
   0 -17  13   32.87   27.41 
   0  17  13   41.60   44.83 
  -5  -3  15  759.23   97.71 
  -5   3  15  517.75  386.47 
  -5  10 -11   -1.06   34.99 
  -6 -13  10   80.02   88.28 
  -6  13  10  104.43  105.78 
   5  10  11   13.93   42.66 
   5 -10  11   26.78   33.85 
   4  -4  14 1384.96  112.61 
  -4   4 -14 1314.76  114.23 
  -4   9 -13 1404.55  163.97 
   4   9  13 1495.75  130.19 
  -8   4  -3   52.61   67.88 
   4   4  14 1375.53  126.01 
   4  -9  13 1221.60  173.69 
  -8   6  -2 2035.96  148.92 
  -4  22  -3   77.66   69.66 
  -1 -20  11   49.79  100.45 
  -4 -22  -3   54.89   67.06 
  -1  20  11   75.20   88.88 
   4  22   3   28.61   27.31 
   7   0   8    6.55   25.62 
  -5  19   7  173.56   97.26 
  -5 -19   7  163.91  141.40 
  -5  19   7   82.20  194.45 
  -4  14  13 2506.55  163.32 
  -4 -14  13 2580.51  159.95 
   1  18  12   67.12   32.51 
   1 -18  12   43.00   48.99 
  -3  22  -6  129.40   62.76 
   3  22   6   96.26   89.43 
  -4  22   5   16.96   32.58 
   3  22   6  104.78  118.72 
   1  18  12   35.66   49.77 
  -4  22   5   -0.57   33.86 
  -4 -22   5   30.36   38.68 
   3 -22   6   70.38   78.51 
  -7  14  -1   35.32   40.04 
   7  14   1   18.84   28.25 
   7  14   1   21.69   17.00 
   6  17   3  153.10  117.92 
   6  17   3  125.56  132.91 
  -6  17  -3  203.38  148.81 
  -8   8   0  600.41   74.03 
   7   1   8   35.05   49.51 
   7  -1   8   37.85   54.20 
  -6   6  13    6.08   38.68 
  -6  -6  13   -5.78   47.89 
   2 -15  13   46.53   40.58 
   2  15  13   44.92   66.37 
   4  21   5  147.44  109.45 
   4  21   5  127.00  141.95 
  -4  21  -5  122.43  100.03 
   2  15  13   36.24   50.40 
  -8   4   7   -3.80   30.07 
  -8  -4   7   23.46   27.41 
  -3   8  16   15.39   39.04 
  -3  -8  16   16.20   32.56 
  -3  -8  16   50.05   37.06 
   3  10  14  198.28  174.00 
   3 -10  14  383.13  191.61 
   4 -12  12   56.64   29.13 
  -4  12 -12   62.56   37.00 
  -6  17   6    9.46   28.25 
  -6 -17   6    2.87   36.24 
   4  12  12   49.56   71.45 
  -6  17   6   19.66   19.96 
  -3 -24   3   62.58   40.47 
   0  20  11   38.55   71.60 
  -4   9  15  231.89  218.38 
  -4  -4  16   77.14   77.24 
  -4  -9  15  178.49  160.75 
  -3  24   3   39.14   43.53 
   3  24  -3   31.48   59.23 
   0  20  11   75.15   97.97 
   0 -20  11   99.29   97.65 
  -4  -9  15  239.88  162.04 
  -3  24   3   30.35   40.92 
  -4   4  16   46.24   49.88 
  -4 -21   7  150.17  157.20 
  -4  21   7  119.07  150.03 
  -4  21   7  166.95  138.46 
  -7   9  -6  154.28  166.96 
  -2 -15  14  112.52  121.65 
   7   9   6  170.67  135.81 
  -2  15  14   72.30   75.26 
   2   5  16   45.10   61.09 
   2  -5  16   29.71   35.13 
   0  23   8  153.69  132.26 
   0  23  -8  133.16  155.35 
   0 -23   8  174.10  141.89 
   0  23   8  125.20   93.74 
   0  23  -8  171.04  109.35 
  -1  24  -6    8.10   41.33 
   1  24   6   35.75   50.47 
  -1  24  -6   25.26   25.72 
  -1 -24  -6    3.75   31.41 
  -3  15 -12   -1.51   27.36 
   3  15  12   33.55   44.88 
  -5 -15  11   58.04   65.57 
  -5  15  11   59.38   43.46 
   3 -15  12   22.14   37.20 
   1 -24   6   21.95   38.36 
   3  15  12   26.12   36.72 
  -1 -23   8   56.12   32.69 
   7   2   8    7.05   24.55 
   1  23  -8   17.22   29.15 
   7  -2   8   30.34   35.80 
  -1  23   8   12.67   23.26 
   1  23  -8   15.01   32.26 
  -5 -20  -3    8.15   33.88 
   0   5  17   22.75   32.97 
   0  -5  17    3.63   25.31 
   5  20   3   43.41   47.91 
  -5  20  -3   36.81   55.28 
   0 -13  15  564.45  108.49 
  -4 -12  14   60.43   37.60 
  -4  12  14   72.49   62.13 
   0  13  15  234.53  252.21 
   0  13  15  410.38  103.44 
  -6  18  -1  107.12  122.23 
  -2  -5  17   38.58   36.85 
  -2   5  17   22.34   37.05 
  -2  -5  17   16.67   25.66 
  -6 -18  -1   45.61  102.23 
   6  18   1   73.80   93.20 
   5  17   7   57.27   54.50 
  -5  17  -7   93.63  121.53 
   5  17   7   75.91  122.60 
   0  10  16   63.20   63.05 
   0  10  16   48.86   63.69 
   0 -10  16  100.59   42.94 
  -6 -18   4   89.62   96.02 
  -5  18  -6  217.47  141.18 
   5  18   6  171.72  140.08 
   5  18   6  164.21  188.60 
   5  21  -1   88.78  121.73 
  -5 -21   1  127.13   55.62 
  -6  18   4  108.06  128.82 
  -5  21   1   75.46   38.16 
   1  12  15  544.04   99.37 
   5   7  12  682.50  114.68 
   1 -25   4   -3.09   32.54 
   5  -7  12  570.65  191.49 
   1  12  15  648.51   88.23 
  -7  12  -4   72.60   45.18 
   7  12   4   52.45   79.51 
   1  25   4   18.44   26.74 
  -1 -25  -4   35.54   35.90 
   1 -12  15  760.70  139.52 
  -5   7 -12  690.44   98.02 
  -1  25  -4    7.47   34.75 
  -1  25  -4    2.51   25.71 
  -3 -14  14   29.09   62.85 
  -3  14  14   28.27   40.47 
  -1  -6  17   22.49   39.10 
  -5  -4  15  532.86  267.83 
  -1   6  17    4.16   21.95 
  -1  -6  17   19.80   39.79 
  -1   6  17   14.55   32.72 
  -5   4  15  685.84  111.26 
  -3  23   6  502.45   73.05 
  -3  23   6  237.65  225.35 
   3  -6  15   40.72   48.46 
  -3 -23   6  491.45   83.81 
   3   6  15   44.27   75.04 
   2  10  15  856.45  113.64 
  -7  -8  10  403.69  293.70 
   2 -10  15  959.49  125.23 
  -7   8  10  617.02   81.03 
  -5  21   2 1012.99   97.05 
   4 -16  10   31.50   21.70 
   4  16  10   25.07   42.49 
  -4  16 -10   43.53   41.86 
  -5 -21   2  837.00  231.80 
   5  21  -2  700.76  279.09 
   4  16  10    7.70   18.01 
  -7   5  11  114.32  130.01 
   0 -26   0   74.95   69.84 
  -7  -5  11  136.15  151.42 
   0  26   0  110.66  113.36 
  -2 -25  -2   51.36   70.59 
   2 -17  12  -19.64   41.72 
   2  17  12   -6.49   30.16 
   3  13  13   73.26   62.63 
  -2  25  -2   65.49   50.27 
  -2  17 -12  -12.11   41.77 
   3 -13  13   21.71   37.75 
   2  17  12   -2.61   36.54 
   2  25   2   61.30   69.72 
  -7  13  -3   49.66   77.61 
   2 -25   2   45.40   73.18 
  -3  13 -13   35.22   40.99 
  -2  25  -2   35.44   56.34 
   7  13   3   24.34   41.16 
   1   0  17   69.08   41.80 
   2  25  -3   37.76   47.04 
  -2  25   3   29.99   40.50 
  -2 -25   3   27.48   48.86 
  -7  10   9   -0.75   36.41 
  -3 -20  10  667.34   86.27 
  -3  20  10 1200.38  103.70 
  -7   7  -7   83.44   93.70 
  -3  24  -2   37.89   33.90 
  -3 -24  -2   67.07   66.71 
   7   7   7  108.43  134.85 
   3  24   2   84.48  102.85 
  -2 -10  16  853.15  127.23 
  -2  10  16  661.88  287.98 
  -2 -10  16  700.97  130.26 
   2 -13  14  117.48  121.32 
   2  13  14  111.06  147.20 
   2  13  14   81.11   69.02 
  -3  16  13  752.05  106.21 
  -3   0  17  886.43  125.51 
  -2  17  13  476.41   82.30 
   1  -1  17  136.62   96.13 
   1   1  17  106.98   83.27 
  -2 -17  13  283.68  260.97 
  -3 -16  13  727.55  127.66 
   5  21   0   35.50   22.24 
   4  -5  14   23.97   37.36 
  -7 -14   5   51.42   48.61 
  -4   5 -14  -10.48   29.79 
  -7  14   5   33.93   92.55 
  -5  21   0   26.90   48.40 
  -5 -21   0   35.35   56.33 
  -8   5  -3  102.26  175.59 
   4   5  14   21.88   31.62 
  -4 -16  12 1235.98  145.42 
  -4  16  12 1239.52  149.72 
   7   3   8    9.51   28.14 
   7  -3   8   50.34   37.18 
  -4  23   1   78.82   49.26 
   0 -26   1  193.61  121.95 
  -4  23   1  135.75   60.50 
   0  26   1  153.40  127.97 
  -4 -23   1  133.08  106.72 
  -3 -21   9   35.16   47.60 
  -3  21   9    1.72   31.67 
   0  26  -1  186.99  116.06 
   4  23  -1   91.57  153.61 
   0 -26  -1  158.21  132.41 
  -3  -1  17  118.01  115.80 
  -3   1  17  215.93  102.07 
  -8   9   2  824.85  113.40 
  -2  13  15   25.13   38.20 
  -2 -13  15   21.26   31.64 
  -8   0   8  663.00  102.70 
  -7  11  -5    7.38   28.31 
  -8   5   7   72.66   67.51 
   7  11   5   -7.16   33.48 
  -6   7 -10   13.68   23.63 
   6   7  10    6.81   24.83 
   6  -7  10   12.27   20.41 
   5  16   8 1626.69  184.56 
   5 -16   8 1144.86  122.55 
   2  21   9   31.37   37.34 
  -1  19  12 1412.76  156.96 
  -5  16  -8 1663.18  187.35 
  -2  21  -9   20.01   64.42 
  -1 -19  12 1395.74  170.85 
   2  21   9   67.92   73.99 
   2 -21   9   23.69   68.91 
  -4   5  16 3073.62  292.47 
  -4 -23   0    9.34   73.64 
  -4  23   0   45.34   39.24 
  -5   9  14   50.04   33.72 
  -8  -1   8   -5.51   36.10 
  -5  -9  14    8.74   52.84 
  -8   1   8   39.73   36.03 
   1  -2  17  113.66  170.85 
  -4  -5  16 3296.33  309.95 
  -8   9   1  799.67  147.07 
   4  23   0   -3.62   42.58 
   1   2  17  189.30  156.06 
  -4  23   2   -9.23   26.62 
  -4 -23   2   22.47   31.71 
   4  23  -2   26.01   31.69 
  -4  23   2   24.07   52.59 
  -2 -24  -5   49.47   39.82 
   2  24   5   70.80   49.66 
  -2  24  -5   44.04   37.71 
   2 -24   5   43.90   53.70 
  -8   9   3  568.81  119.27 
   0  25   5   15.62   39.27 
   0  25  -5   15.13   24.17 
   0  25  -5   74.30   58.23 
  -8   8  -1   13.53   37.96 
   0 -25   5   52.80   51.35 
   8   8   1   23.14   22.74 
   6  12   8  731.11  108.02 
   0 -25  -5   20.66   32.94 
  -6  12  -8  611.92  102.70 
  -5  19  -5  185.01  177.30 
   5  19   5  118.16  164.66 
  -3  19  11  140.79  163.95 
  -2  21  10  224.41  107.48 
  -2 -21  10  175.09  191.53 
   5  19   5  155.04  189.66 
  -3 -19  11  182.35  168.28 
  -3   2  17 2215.30  225.09 
  -2  24   6  500.60  184.07 
  -2 -24   6  389.27  334.81 
   2  24  -6  693.29  114.96 
  -5 -21   3   34.11   39.41 
  -5  21   3   -0.05   26.48 
  -3  -2  17 2123.35  220.86 
   8   7   2 1239.23  139.14 
  -8   7  -2 1364.80  202.56 
   6  10   9    8.63   38.61 
  -3  17 -11   18.51   43.49 
   3 -17  11    3.81   38.59 
   6 -10   9   26.92   19.36 
   3  17  11   25.11   27.13 
  -6  10  -9    5.25   34.37 
   3  17  11   -2.64   19.33 
   1   9  16 1077.65  131.86 
   1   9  16  891.58  109.23 
   1  -9  16  928.57  212.63 
  -7 -15   2   39.07   30.55 
  -7  15   2   96.27   71.84 
   2 -22   8    4.48   50.28 
  -2  22  -8   29.89   41.87 
   2  22   8   33.74   41.46 
   2  22   8  103.10   58.91 
  -8   2   8 2307.34  223.85 
   2  -6  16   89.42   52.43 
   2   6  16   46.69  109.73 
  -8  -2   8 2216.14  221.28 
  -7 -15   1   13.00   33.84 
  -6  -7  13  614.54  284.92 
  -7  15   1   12.24   19.18 
  -6   7  13  708.45  107.46 
  -6 -12  11  131.25  139.48 
   3  24  -4  126.80  171.32 
  -2  22   9  114.70   89.79 
  -2 -22   9   99.18  108.67 
  -3  24   4  102.81  100.96 
  -3 -24   4   88.81  123.96 
  -6  12  11   76.86  157.47 
  -3  24   4  110.16  108.69 
   2 -20  10   24.97   21.16 
   0  19  12   72.16   30.02 
  -5  -5  15  194.00  155.01 
  -2  20 -10   19.67   23.29 
   0 -19  12   44.69   47.00 
   0  19  12   19.38   35.10 
   2  20  10   14.64   36.60 
  -5   5  15  137.93  157.99 
   2  20  10   16.06   31.98 
   7  14   2  124.55   74.27 
   0   6  17   10.03   25.53 
   0  -6  17    9.69   26.37 
   0   6  17    6.78   26.73 
  -7  14  -2  147.80   75.49 
  -5  20   6  122.90  101.03 
  -5 -20   6   67.08  102.35 
  -3 -12  15   71.52   70.69 
  -3  12  15   60.67   83.42 
  -5  20   6   59.63  116.18 
   6   0  11   29.71   44.33 
  -2   6  17   17.71   37.26 
  -2  -6  17   -1.69   26.39 
  -2  -6  17   -9.66   35.80 
  -6  10  12   20.52   32.98 
   5 -13  10  546.89   98.95 
   1 -22   9  214.80  145.62 
  -5  13 -10  451.42  306.10 
   1  22   9  215.30  151.07 
   1  22   9  168.25  113.57 
   5  13  10  362.84  269.28 
  -1 -25   5   89.06  106.32 
   7  -4   8   22.54   34.82 
  -1  25   5  140.39  108.72 
   0 -26  -2   84.79  150.10 
  -6 -10  12   29.88   29.12 
   0  26   2  272.99  130.24 
  -1  22  -9   99.23  169.93 
   0  26  -2  177.18  112.75 
   0 -26   2  150.88  210.35 
   1  25  -5   66.65   94.55 
  -2 -20  11 1262.33  148.65 
  -2  20  11  842.36  385.28 
  -5 -21  -1   24.11   32.61 
   1 -26   0  103.71  125.98 
  -5  21  -1   20.45   59.93 
   1  26   0  121.18  134.02 
   1   3  17   77.59   94.44 
   5  21   1   59.10   61.68 
   1  -3  17  116.23   91.57 
  -1  26   0  172.59  177.68 
  -1 -26   0  114.87  150.11 
  -6  16  -5  654.79  161.38 
   6  16   5  303.30  304.01 
   1 -21  10   59.52   39.96 
   0  24   7   14.76   24.16 
   6  -1  11   22.22   45.40 
   0  24  -7   22.95   46.31 
   6   1  11   23.80   31.18 
  -1  21 -10   51.16   46.32 
   1  21  10   56.06   80.75 
   0  24   7   30.67   30.66 
   0 -24   7    6.95   24.07 
  -7  15   3  462.15   86.97 
  -7 -15   3  183.17  286.25 
   6  15   6   52.63   55.83 
  -6  15  -6   28.49   48.52 
  -1 -26   1  294.13  300.35 
  -3   3  17   39.18   42.86 
  -3  -3  17    1.85   19.79 
  -1  26   1  301.90  158.99 
   1  26  -1  213.41  263.88 
  -3  -3  17    9.51   37.21 
  -3 -22   8   89.53   84.55 
  -3  22   8  101.88   82.30 
   1 -26  -1  160.15  225.44 
  -3  23  -5   12.61   22.61 
   3  23   5   32.56   48.78 
  -3 -23  -5   30.29   64.46 
   3 -23   5    1.05   17.29 
  -7  -6  11   59.14   67.19 
  -7   6  11   45.81   62.98 
  -1 -11  16 1158.41  134.12 
  -4 -23  -1 1153.66  151.14 
  -1  11  16 1530.35  169.83 
  -6 -18  -2  129.65  152.05 
   4  23   1 1027.46  130.81 
  -6  18  -2  111.96  203.64 
   6  18   2  134.87   87.36 
  -8   9   0   17.73   25.12 
  -4  23  -1  855.36  334.92 
   5   0  13 2071.07  218.17 
  -4 -23   3  149.11  103.41 
   4  23  -3  148.44  157.92 
  -4  23   3  123.33  107.39 
  -4  23   3   85.69  109.12 
   1  24  -7   28.96   21.58 
   1  24  -7    4.01   19.78 
  -4  10 -13   10.19   29.90 
  -1  24   7   10.97   27.66 
   4  10  13   27.71   30.98 
  -6 -16   8   16.40   37.71 
  -1 -24   7    9.22   18.24 
   4 -10  13   46.78   27.20 
  -3  -9  16    6.65   39.24 
  -3   9  16   20.63   30.59 
  -6  16   8    8.37   20.05 
  -6 -18   5  738.53  111.32 
  -1  -7  17  702.33  233.40 
  -1   7  17  877.66  115.74 
  -6  18   5  730.75   96.29 
  -6  18   5  775.98  110.07 
  -1  -7  17  593.23  255.39 
  -1   7  17  877.91  115.80 
   5   1  13  201.27  175.13 
  -6 -15   9  162.40  142.54 
   5  -1  13  584.95  181.20 
  -6  15   9  178.78  173.24 
  -6   0  14   30.94   25.09 
  -8  -3   8   77.19   74.86 
   3   7  15  132.18   90.23 
  -8   3   8   70.61   96.13 
   3  -7  15   94.52  109.31 
  -8   6  -3  135.68  177.99 
   4  -6  14  375.17  279.20 
  -4   6 -14  269.77  190.26 
   8   6   3  164.90  133.28 
   4   6  14  379.90  295.77 
   1 -26   1    8.49   37.43 
  -1  26  -1   19.21   31.05 
   1  26   1    7.17   16.23 
   4  22   4   41.51   30.59 
  -4 -22  -4   64.62   38.60 
   6   2  11   44.80   52.82 
  -1 -26  -1   35.43   37.86 
   6  -2  11   67.87   88.20 
  -4  22  -4    6.25   36.08 
  -7  13   7   18.45   16.09 
  -7  15   0   44.07   50.07 
  -6   1  14   87.00  113.77 
  -6  -1  14  108.32   69.61 
  -5  11 -11   40.48   27.23 
   1 -15  14  539.79   89.33 
   5 -11  11  110.54   90.30 
   5  11  11   39.79   92.84 
   1  15  14  508.38  162.34 
   1  15  14  427.80  254.64 
  -1 -16  14  744.76  106.94 
  -5   8 -12   44.98   39.24 
  -1  16  14  605.88  114.22 
  -2  25  -3    6.61   16.83 
  -2  25  -3    4.51   23.02 
   2 -25   3   29.81   34.08 
   5   8  12   47.33   47.31 
   2  25   3   29.90   53.27 
  -2 -25  -3   31.51   22.80 
   5  -8  12   62.49   67.59 
  -2  25   4    4.81   24.10 
  -4  22   6    6.59   14.71 
  -5  14  12   90.96  105.57 
  -4 -22   6   12.02   19.08 
  -5 -14  12  117.01   67.60 
   2  25  -4   62.74   39.55 
  -4  22   6    6.95   23.33 
  -7  12   8  225.17  274.04 
  -4 -10  15  110.69  166.17 
  -4 -10  15   67.08  111.97 
  -4  10  15  152.22  216.53 
  -8   6   7    2.18   25.84 
   1  23   8  138.27  143.96 
   1 -23   8  194.80  223.03 
   1  23   8  152.94  179.80 
  -1  23  -8  213.04  185.91 
   7  10   6  257.43  246.29 
  -7  10  -6  185.03  246.80 
   4 -19   8   30.35   43.30 
   5   2  13 1827.75  195.58 
   4  19   8   29.18   29.83 
  -3 -24  -3  141.62  208.93 
   3  24   3  111.58  149.63 
   4  19   8   34.33   37.59 
   5  -2  13 1689.50  241.61 
  -3  24  -3  170.22  179.54 
  -4   6  16   34.91   45.60 
  -4  -6  16   16.24   29.18 
  -5  21   4   11.50   27.12 
   7   8   7  176.88  128.12 
  -5  21   4   13.55   24.21 
  -7   8  -7  104.48  125.30 
  -5 -21   4    2.66   44.51 
   1  17  13   30.31   23.18 
   3 -11  14  479.73  266.60 
   3  11  14  870.29  128.24 
   1 -17  13   42.79   39.66 
   1  17  13   17.14   29.46 
  -4  20  -7   27.23   44.93 
   2  23   7   87.20   81.92 
  -6  17  -4   -3.38   37.79 
  -2  23  -7   80.63  102.88 
   2 -23   7   47.38   68.41 
   4 -20   7   26.74   33.89 
   2  23   7   78.50   59.32 
   6  17   4    6.73   53.75 
   4  20   7   33.55   54.70 
   4  20   7   12.62   24.62 
  -6  -2  14  149.30  164.66 
  -6   2  14  109.28  154.26 
  -1  26   2   14.74   32.41 
  -1 -26   2   28.59   32.43 
   1  26  -2   51.90   57.14 
   1   4  17  102.22   60.42 
   1 -26  -2   19.97   25.48 
   1  -4  17   79.58   94.01 
  -7   9  10  113.56  131.49 
  -2 -23   8  749.99  117.29 
  -3  18  12  197.50  137.54 
  -3 -18  12  150.08  140.82 
  -5  15  -9  233.18  269.56 
   5 -15   9   93.16  139.08 
  -2  23   8  625.50  108.42 
   5  15   9  245.63  227.55 
  -5 -18   9   51.95   34.09 
   6  14   7  244.38  241.94 
  -6  14  -7  158.63  257.39 
  -4 -19  10   23.57   37.24 
  -8   4  -4    1.38   33.04 
   1 -20  11   -0.70   40.65 
  -4  19  10   24.91   23.53 
   1  20  11    9.28   43.87 
   1  20  11   -7.49   35.72 
  -5  18   9   32.39   35.06 
  -1  20 -11   27.55   33.35 
  -4  20   9   20.44   18.56 
  -6 -17   7   62.77   50.24 
  -3  -4  17 2371.09  285.85 
  -3  -4  17 2936.40  279.71 
  -4 -20   9   30.26   32.09 
  -3   4  17 2854.51  275.91 
  -6  17   7   39.56   59.64 
  -1 -14  15   90.64   82.51 
  -1  14  15  123.76   63.68 
   6   3  11   13.40   44.26 
   6  -3  11   70.40   85.20 
   7  -5   8    2.41   22.27 
  -7 -15   4   71.07   76.26 
  -7   5  -8    4.10   34.84 
  -7  15   4   39.03   73.23 
   7   5   8   28.64   16.53 
   2  19  11   20.56   20.57 
   5  20   4   11.83   40.11 
   5  20   4  -15.30   31.37 
   2  19  11    6.58   20.75 
   2 -19  11   10.12   21.74 
  -2  19 -11   18.45   29.33 
  -5  20  -4   49.74   51.23 
  -7   0  12   15.46   23.77 
  -6   8 -10   85.94   65.20 
  -5 -17  10  195.81  187.00 
   6  -8  10  105.48   55.89 
  -5  17  10  301.14  297.59 
   6   8  10  122.04   85.60 
  -5  -6  15 1439.79  174.16 
  -6  14  10   20.27   25.46 
   0 -11  16  234.12  182.86 
   0  11  16  193.56  147.13 
  -8   4   8 2915.84  274.27 
  -6 -14  10    5.81   30.39 
   0  11  16  149.33  186.62 
  -8  -4   8 2897.29  276.44 
  -2 -19  12  214.97  241.44 
   0  16  14   -8.68   36.90 
   0 -16  14   37.11   36.48 
   0  16  14   33.42   42.79 
  -2  19  12  216.92  217.05 
  -7  -1  12   21.03   26.90 
  -7   1  12   47.87   43.89 
   1  25   5    6.89   56.45 
  -1  25  -5    9.54   26.88 
  -1  25  -5    4.57   24.85 
   1 -25   5   19.28   39.41 
  -1 -25  -5   14.38   30.71 
   0 -26   3   20.18   29.60 
   4 -13  12  234.31  154.37 
   4 -15  11   74.19   97.39 
  -4  13 -12  228.37  214.14 
   5  -3  13   14.09   40.53 
  -3  21  -8   58.21   54.92 
   4  15  11   58.50  138.55 
   2   7  16   10.42   22.40 
   0  26   3   75.36   76.76 
   3  21   8   77.54   77.20 
   3  21   8   64.25  100.69 
   3 -21   8   46.54   81.43 
   0  26  -3   29.95   31.82 
   5   3  13   -2.79   30.06 
  -4  15 -11   91.23  138.88 
   0 -26  -3   33.79   55.16 
   2  11  15 1683.76  180.76 
   3 -20   9   17.48   41.77 
   3  20   9   22.15   19.52 
   4  18   9  240.46  232.53 
  -1 -26  -2    7.90   20.32 
  -8   8  -2  204.55  197.59 
  -3  20  -9   31.28   36.67 
   1  26   2   31.11   52.74 
   4  18   9  227.05  251.98 
  -1  26  -2    3.89   37.78 
   3  20   9   14.47   35.97 
   8   8   2  137.29  108.06 
  -1  26  -2   23.04   21.15 
   1 -26   2   43.11   55.22 
   4 -18   9  191.70  201.34 
  -6   3  14  208.13  198.32 
   0  -7  17   28.37   28.65 
  -5  19   8   45.30   61.19 
   0   7  17   10.00   34.67 
   0   7  17   10.90   34.21 
  -5 -19   8   19.59   41.34 
  -6  19   1   34.22   50.43 
   6  19  -1   43.92   47.45 
  -8  10   2  242.18  153.26 
  -7  11   9   34.09   41.57 
  -6 -19   1   31.77   68.93 
  -6  19   2   52.95   43.23 
  -2  -7  17   33.02   31.25 
   5  21   2   48.40   49.03 
  -6 -19   2   58.58   34.26 
  -2  -7  17   38.24   22.09 
  -5  21  -2   51.08   78.45 
  -2   7  17    9.94   32.26 
  -2  11  16  277.33  247.01 
  -2 -11  16  221.64  182.32 
   4  23   2   39.28   50.81 
  -8   9  -1   28.43   30.26 
   8   9   1   11.31   16.78 
  -4  23  -2   35.88   19.48 
  -1  18  13   10.62   20.72 
  -6   8  13  292.41  281.39 
  -4  18  11   28.74   27.68 
  -4 -18  11   33.61   55.95 
  -4 -13  14   15.30   25.35 
  -4 -15  13  167.59   69.67 
  -7  15  -1   68.64   96.24 
  -4  23   4    9.04   26.67 
   7  15   1   36.47   47.77 
  -7  -2  12   29.46   27.17 
   7  15   1   36.66   34.73 
  -4  23   4   18.73   34.58 
  -5 -10  14  413.33  189.08 
  -5 -10  14  521.10  188.73 
  -8  10   1  188.76  204.74 
   1  13  15  258.40  185.66 
   4  21   6   51.76   33.76 
  -4  21  -6   58.80   51.08 
   7  13   4   25.55   74.33 
  -7  13  -4   30.62   37.75 
   1  13  15  170.28  199.94 
  -7   7  11  229.86  273.73 
  -8  10   3  401.09  204.71 
  -7  -7  11  224.64  226.61 
   6  -4  11    7.19   24.33 
   0  14  15 1692.92  172.90 
  -3  24   5  532.48  170.93 
   0  14  15 1747.15  193.28 
  -3  24   5  576.77  340.75 
   6   4  11  -11.05   38.06 
  -3  23   7  213.94  114.15 
  -4  21   8   31.43   36.95 
  -4 -21   8   48.19   55.48 
   1  10  16   50.84   46.87 
   1  10  16   48.84   67.48 
   1  -5  17   24.51   15.71 
   2  16  13  447.50   84.15 
   2  16  13  269.31  215.84 
   1   5  17   15.49   34.26 
   2 -16  13  213.20  213.07 
  -8   7  -3   59.94   96.67 
   8   7   3   58.49  140.87 
  -4   7 -14  179.47  227.87 
   4  -7  14  387.28   74.62 
  -6 -19   0  321.12  270.12 
   6  19   0  229.28  273.99 
   3  22   7   65.95   52.44 
  -8   5  -4  138.15  170.57 
  -3  22  -7   82.52   47.72 
   3 -22   7   65.25   42.14 
   3  22   7   67.72   65.70 
   8   5   4  107.62  208.01 
  -1  26   3   22.42   31.01 
   1  26  -3   36.39   31.08 
  -6 -19   3  758.94  107.84 
  -6  19   3  705.37  105.40 
  -1 -26   3   43.89   37.06 
   7  12   5   31.99   44.98 
  -3  -5  17   67.32  156.01 
  -3  -5  17  108.29   86.06 
  -3   5  17  120.95   98.00 
  -7  12  -5   45.16   62.73 
  -2 -16  14  195.33  121.35 
  -2  16  14  163.92  169.92 
   1 -24   7  100.34   82.43 
  -1  24  -7   60.00   74.88 
   6 -11   9  730.51   92.70 
   6  11   9  874.00  167.78 
   1  24   7   59.81   88.88 
  -6  11  -9  844.57  197.95 
   0  18  13  729.83  132.47 
   0  18  13  849.09  113.59 
   5  -4  13 2382.37  239.15 
   3 -14  13   12.65   31.51 
   3  14  13   -0.91   36.56 
  -1   8  17   -0.70   30.38 
  -1  -8  17   33.44   31.87 
  -7  14  -3    8.60   17.97 
   7  14   3   29.61   31.46 
  -1   8  17   20.44   37.53 
   3 -19  10   84.91  128.40 
   3  19  10  134.63  146.85 
   3  19  10   96.29   93.89 
   3   8  15   74.52   76.97 
  -5 -16  11    2.34   31.52 
  -5  16  11   46.34   45.74 
   3 -16  12  375.19  254.52 
   3  16  12  532.93   75.63 
   3  16  12  321.29  325.55 
  -3 -15  14  947.55  120.39 
  -7   3  12   84.12  115.49 
  -7  -3  12  102.34  106.54 
  -8  -5   8   55.87   34.04 
  -8   5   8   22.67   31.80 
   2  14  14   28.97   53.14 
   2  14  14   32.23   25.87 
  -4  -7  16 1357.44  224.24 
  -4  -7  16 1426.95  168.01 
   6  18   3   45.05  109.17 
   6  18   3   47.72   74.74 
  -7   6  -8    8.86   39.21 
   7   6   8   21.74   17.26 
  -2  14  15  132.78   73.26 
  -2 -14  15   48.58   54.00 
   0 -25   6    1.68   42.87 
   0  25  -6    5.30   39.43 
   0 -25  -6    7.31   23.69 
  -6  11  12   16.45   34.89 
   0  25  -6   21.08   23.33 
  -8  10   0  100.21  143.82 
   8  10   0   75.61   47.78 
  -6  13  -8   93.66  125.63 
   6  13   8  152.30  111.06 
  -6 -18   6   24.36   32.81 
  -6  18   6   13.62   36.40 
  -6  18   6   18.37   43.73 
  -5 -21   5   42.80   36.07 
  -5  21   5   43.14   88.62 
  -5  21   5   39.56   44.05 
   5  -9  12  126.43  142.27 
   1  19  12   68.26   70.73 
  -5   9 -12  183.90  111.52 
   1  19  12   56.19   75.27 
  -3  10  16   10.23   38.15 
  -3 -10  16    5.88   25.12 
  -8  10   4  126.65  100.83 
  -3 -10  16   26.94   40.24 
  -2  25  -4   43.66   40.11 
   2 -25   4   50.37   45.19 
  -2 -25  -4   63.25   77.73 
  -2  24  -6    6.27   31.69 
   2 -24   6   15.77   34.33 
   2  25  -5   11.81   39.74 
  -2  25   5   11.73   14.43 
  -5  20   7   15.87   34.40 
  -5  20   7   24.98   26.95 
   0  22  10   53.69   82.33 
   0  22 -10   95.60   86.74 
   2  24  -7    4.66   25.96 
   4 -11  13  599.79   90.61 
   7   9   7   61.60   48.77 
  -7   9  -7   22.77   34.46 
  -8   0   9   30.42   49.22 
   1  25  -6  243.56  185.19 
  -4  11 -13  281.65  281.97 
   4 -17  10   67.29   46.45 
   4  17  10   30.23   52.56 
  -6 -13  11    5.32   20.07 
  -6  13  11   19.85   37.75 
  -1  26  -3   51.58   77.94 
  -1  26  -3   72.58   59.15 
  -1 -26  -3   69.90   80.22 
   1 -26   3   54.37  143.11 
  -3  25   1  160.98  236.64 
   5  18   7   21.88   41.99 
  -3  25   1  322.37  184.50 
  -3 -13  15   20.32   23.82 
  -8  -1   9   -0.13   36.55 
   6  -5  11   39.94   68.69 
   6   5  11   67.10   79.67 
  -8   1   9   18.61   48.68 
  -1 -12  16   37.13   33.52 
  -1  12  16   48.51   32.29 
  -3  25   0   16.82   29.39 
  -3 -24  -4   -8.27   46.21 
   3  24   4   26.06   33.56 
   0  23   9  216.37  198.05 
   0  23  -9  690.56   99.86 
  -3 -17  13   34.87   36.35 
   0  23  -9  284.00  229.18 
  -7  -4  12   93.78   60.65 
  -4 -17  12  100.49   75.30 
  -7   4  12  106.88   84.96 
   6  19   1  296.97  269.91 
  -4 -11  15  118.76  142.76 
   2  18  12    1.85   36.49 
   2 -18  12   -7.54   38.02 
  -4 -11  15  110.17   76.67 
   2  18  12   -0.74   25.77 
   2   8  16   33.39   63.63 
  -6 -19   4   47.69   59.97 
  -7  10  10    9.09   26.59 
  -6  19   4   22.40   15.78 
   5  19   6   62.81   46.28 
   5 -14  10  124.56  151.10 
   7  11   6  103.92  103.49 
  -7  11  -6  116.29  116.41 
  -5  14 -10  141.58  133.55 
   0 -26  -4   26.14   52.71 
   0 -26   4   12.88   50.70 
   0  26  -4   33.89   50.68 
   6   9  10   32.68   53.69 
   6  -9  10    2.17   24.41 
   5  -5  13   29.46   50.58 
  -5   5 -13   16.28   29.33 
  -6   9 -10   48.54   25.72 
   0   8  17   15.48   27.71 
   0   8  17    4.16   27.41 
   1   6  17   27.66   27.30 
   0  21  11   -1.23   29.65 
   5 -12  11   87.10  108.79 
  -3  25   2   39.97   65.95 
  -3  25   2   58.92   66.86 
  -5  12 -11  102.73   81.51 
  -2  -8  17   25.96   38.94 
  -8  -2   9  104.92  119.33 
  -2  -8  17   14.13   32.47 
  -8   2   9   43.40   81.12 
  -2   8  17    2.58   24.12 
   8   6   4  153.42  192.27 
  -8   6  -4  209.05  179.13 
   4  22   5   26.08   46.51 
  -3  -6  17  530.58  170.95 
  -3   6  17  476.19  234.21 
  -5 -13  13   36.18   84.86 
  -3  -6  17  634.55   95.67 
   7  15   2   50.78   46.05 
   8   9   2  132.34  116.89 
  -7 -16   2  155.37  183.49 
  -8   9  -2  191.42  174.78 
  -2  26   1    7.60   26.25 
  -4  23  -3   49.06   61.08 
  -2 -26   0   -0.04   38.78 
  -2  26   0   12.89   24.00 
  -2 -26   1    4.30   31.80 
   4  23   3   47.84   85.49 
  -2  26   1    6.41   23.29 
  -2  26   0   -3.93   34.66 
   5  21   3   28.05   26.33 
  -4  23   5   80.55  127.27 
  -7 -16   1   13.73   60.78 
  -4  23   5  152.08  107.94 
  -4  22   7  673.97   98.75 
   3 -23   6   56.70   43.66 
   3  23   6   31.60   35.46 
  -3  23  -6   44.39   54.80 
  -4  22   7  594.83   88.22 
   7   0   9   21.07   42.64 
  -7   8  11  122.99  188.32 
  -8   6   8 1040.20  127.59 
  -3  25  -1  150.85  167.85 
   7  -1   9   26.32   35.25 
  -3  25  -1  204.94  127.68 
   7   1   9   23.16   20.08 
  -7  14   7  212.95  226.62 
  -7 -14   7  203.81  224.15 
  -8   8  -3  697.13  231.38 
  -1   0  18   26.94   34.13 
   8   8   3  682.93  115.75 
  -1   0  18   14.41   39.40 
  -4   8 -14   71.74   68.54 
   3  18  11   24.76   48.26 
   3 -18  11   57.96   81.99 
   1  26  -4   11.57   24.05 
   8  10   1   73.35   51.93 
  -7 -16   3   13.32   37.81 
  -8  10  -1   68.82  116.31 
  -5  22   1   25.55   42.03 
  -1   1  18   20.98   24.93 
  -1  -1  18   16.53   40.37 
  -1   1  18   15.29   44.99 
  -1  -1  18   16.85   30.47 
  -8   3   9   29.98   26.53 
  -8  -3   9   24.19   24.18 
   7   7   8   59.93   61.52 
  -7   7  -8   63.11   54.58 
  -2  26  -1   35.96   17.72 
   0  12  16   11.96   39.10 
  -2  26  -1   15.54   37.43 
  -2 -26  -1   13.67   42.22 
   0  12  16   28.76   43.72 
  -2  26   2  787.91  278.07 
  -5  22   2   56.94   63.38 
   7  -2   9   82.17  119.77 
  -5 -15  12 2541.88  247.62 
   7   2   9   64.92   77.85 
  -6  16   9   48.30   67.48 
  -6 -16   9   39.08   49.23 
   0  24   8   13.61   24.53 
   2  12  15  198.53  154.72 
   0  24  -8    0.47   22.85 
   0  24  -8   18.30   23.28 
  -4  -8  16   12.22   20.79 
  -4  -8  16   22.20   29.17 
  -7   5  12    6.04   29.45 
  -7 -16   0  109.14  197.99 
   7  16   0  101.79  196.20 
  -1   9  17  717.40  102.08 
  -1  -9  17  602.82  119.10 
   5  20   5   68.44   67.01 
   1  24  -8   65.32   59.77 
   1  24  -8   19.31   65.93 
  -3  25   3    2.28   20.91 
  -1  -2  18   64.94   59.50 
  -1   2  18   25.62   48.49 
   8  11  -1  882.02  181.61 
  -1   2  18   34.44   56.59 
   1  16  14  234.87  145.78 
  -5 -11  14   66.44   49.51 
   1  16  14  151.12  125.50 
  -3  25   3    6.03   25.96 
  -1  -2  18   61.81   65.72 
  -7  12   9   21.81   34.37 
   5  22   0   67.67   30.51 
  -6  17   8   27.97   50.82 
  -6 -17   8   13.78   29.23 
   6  -6  11   20.55   28.14 
  -6   6 -11   21.38   37.69 
  -2 -12  16   45.08   59.92 
   1 -25   6  140.11  210.81 
  -1  25  -6  164.35  151.47 
  -1 -25  -6  122.59  206.36 
  -1  25  -6  228.74  169.49 
   8   4   5   27.99   42.05 
   1  11  16  265.75  220.96 
   1  11  16  482.58   85.93 
  -3  24   6  151.05  147.88 
  -1  15  15   23.82   23.46 
   2 -22   9   36.01   55.82 
   2  22   9   80.91   70.60 
  -5   6 -13 1665.63  196.34 
   2  22   9   53.72   64.91 
   4 -14  12   72.70   34.90 
   5 -16   9   33.25   25.39 
  -7 -15   6  121.27  225.32 
   6  19   2  307.02  305.44 
   7   3   9    1.72   16.29 
  -6  15  10  219.11  156.15 
  -5  22   3   36.60   29.11 
  -6 -15  10  129.06  143.96 
  -8  -4   9  163.36  109.93 
  -8   4   9   56.32  133.23 
   2  21  10   33.31  101.95 
  -6 -19   5   12.18   35.95 
   2  21  10  120.35   98.59 
   2 -21  10   36.68   89.58 
  -2   0  18   11.57   35.00 
  -7 -16   4   91.29  105.45 
  -2   0  18   28.27   41.92 
  -4  24   1  893.37  110.60 
  -1  -3  18   41.64   30.85 
  -5  21   6  683.64   96.79 
  -1   3  18   16.08   34.01 
   1   7  17   39.14   70.19 
  -5  21   6  604.78  196.35 
  -1   3  18   19.46   25.33 
   1 -26   4   26.35   27.36 
   5 -10  12   25.54   32.81 
  -5  10 -12   17.03   28.77 
  -3  25  -2    3.64   23.53 
  -4 -14  14   16.72   25.89 
  -1 -26  -4   18.61   28.76 
  -1  26  -4   23.47   25.96 
  -1  26  -4   21.33   32.28 
  -6  12  -9   84.24   61.63 
   6 -12   9   39.54   72.88 
  -8   7  -4   24.32   32.04 
  -2   1  18  630.11  194.39 
  -2  -1  18  583.86  197.89 
  -2  -1  18  664.22   89.30 
   8   7   4   44.84   39.57 
  -2   1  18  527.13  209.69 
   7  14   4   61.70   48.96 
  -3  -7  17  204.00  165.76 
   1  14  15   24.32   29.01 
  -3  -7  17  150.15  162.63 
   1  14  15   11.34   32.84 
   1  18  13   30.38   37.50 
   0   0  18  817.26  116.96 
   1  18  13   12.67   36.72 
   8  11   0    0.59   14.55 
   6  18   4   10.89   32.85 
  -8  11   0   -5.59   41.10 
  -2  26  -2  156.01  179.25 
   4 -16  11   56.23   99.57 
  -2  26  -2  124.19  140.93 
   7  13   5   70.32  128.92 
  -2  26   3   18.42   30.94 
  -4  24   0   14.94   26.83 
   0   1  18   18.16   12.19 
  -4  24   2   10.85   34.49 
  -3 -11  16   20.73   31.27 
  -7  10  -7   32.34   36.85 
  -3 -11  16    4.99   20.27 
  -4  24   2   -2.95   15.63 
   7  10   7    7.00   37.08 
   2  23   8  154.92   59.41 
   2 -23   8   39.53   90.95 
  -8   7   8   62.95   69.30 
   2   9  16   15.54   31.64 
   0  17  14  232.65  113.59 
   1  22  10 1135.88  270.31 
  -6 -18   7   81.06   83.39 
  -6  18   7   96.59   66.47 
   0 -27   0    2.34   23.10 
  -2   2  18  119.59   99.87 
  -2  -2  18   66.29   57.87 
  -2  -2  18  125.16   92.45 
  -4 -16  13 1715.75  184.58 
  -5  19   9  121.19   95.94 
  -5 -18  10  557.16   97.31 
  -5 -19   9  155.77  204.63 
;
_shelx_hkl_checksum              24540
#END Tags that were not found in dictionaries
loop_
_space_group_symop_operation_xyz
'x, y, z'
'-x+1/2, y+1/2, -z+1/2'
'-x, -y, -z'
'x-1/2, -y-1/2, z-1/2'
loop_
_atom_site_label
_atom_site_type_symbol
_atom_site_fract_x
_atom_site_fract_y
_atom_site_fract_z
_atom_site_U_iso_or_equiv
_atom_site_adp_type
_atom_site_occupancy
_atom_site_site_symmetry_order
_atom_site_calc_flag
_atom_site_refinement_flags_posn
_atom_site_refinement_flags_adp
_atom_site_refinement_flags_occupancy
_atom_site_disorder_assembly
_atom_site_disorder_group
S1 S 0.41115(6) 0.76354(2) 0.33723(3) 0.02004(11) Uani 1 1 d . . . . .
F1 F 0.30269(17) 0.86196(6) 0.57822(10) 0.0398(4) Uani 0.880(3) 1 d D . P A 1
C2 C 0.0991(5) 0.75761(13) 0.55837(19) 0.0279(4) Uani 0.880(3) 1 d D . P A 1
H2A H -0.0078 0.7941 0.5358 0.033 Uiso 0.880(3) 1 calc R U P A 1
H2B H 0.0428 0.7291 0.6129 0.033 Uiso 0.880(3) 1 calc R U P A 1
C3 C 0.3091(4) 0.79094(11) 0.60170(18) 0.0230(5) Uani 0.880(3) 1 d D . P A 1
H3 H 0.3391 0.7832 0.6787 0.028 Uiso 0.880(3) 1 calc R U P A 1
O1 O 0.63983(16) 0.76147(6) 0.33645(8) 0.0266(3) Uani 1 1 d . . . . .
O2 O 0.27360(17) 0.72977(5) 0.25594(8) 0.0248(2) Uani 1 1 d . . . . .
N1 N 0.36325(18) 0.72835(6) 0.44708(9) 0.0188(3) Uani 1 1 d . . . . .
C1 C 0.1373(2) 0.71132(7) 0.46482(11) 0.0191(3) Uani 1 1 d D . . . .
H1A H 0.0427 0.7263 0.4050 0.023 Uiso 0.880(3) 1 d R U P A 1
H1B H 0.0459 0.7248 0.4031 0.023 Uiso 0.120(3) 1 d R U P A 2
C4 C 0.4784(2) 0.75662(8) 0.54480(11) 0.0234(3) Uani 1 1 d D . . . .
H4A H 0.5479 0.7198 0.5864 0.028 Uiso 0.880(3) 1 d R U P A 1
H4B H 0.5847 0.7899 0.5297 0.028 Uiso 0.880(3) 1 d R U P A 1
C5 C 0.1047(2) 0.63220(8) 0.48075(12) 0.0233(3) Uani 1 1 d . . . . .
C6 C 0.1476(3) 0.59333(9) 0.38168(14) 0.0379(4) Uani 1 1 d . . . . .
H6A H 0.0488 0.6101 0.3224 0.045 Uiso 1 1 calc R U . . .
H6B H 0.1257 0.5433 0.3910 0.045 Uiso 1 1 calc R U . . .
H6C H 0.2957 0.6017 0.3682 0.045 Uiso 1 1 calc R U . . .
C7 C -0.1292(2) 0.61990(9) 0.49890(14) 0.0320(4) Uani 1 1 d . . . . .
H7A H -0.1581 0.5697 0.4992 0.038 Uiso 1 1 calc R U . . .
H7B H -0.2246 0.6421 0.4429 0.038 Uiso 1 1 calc R U . . .
H7C H -0.1543 0.6400 0.5662 0.038 Uiso 1 1 calc R U . . .
C8 C 0.2536(3) 0.60352(9) 0.57353(14) 0.0355(4) Uani 1 1 d . . . . .
H8A H 0.2183 0.5546 0.5848 0.043 Uiso 1 1 calc R U . . .
H8B H 0.2349 0.6306 0.6362 0.043 Uiso 1 1 calc R U . . .
H8C H 0.4028 0.6071 0.5589 0.043 Uiso 1 1 calc R U . . .
C9 C 0.3375(2) 0.85227(8) 0.33790(11) 0.0212(3) Uani 1 1 d . . . . .
C10 C 0.1228(2) 0.87110(8) 0.31558(12) 0.0250(3) Uani 1 1 d . . . . .
H10 H 0.0166 0.8368 0.2959 0.030 Uiso 1 1 calc R U . . .
C11 C 0.0663(2) 0.94046(8) 0.32249(13) 0.0275(4) Uani 1 1 d . . . . .
H11 H -0.0799 0.9535 0.3067 0.033 Uiso 1 1 calc R U . . .
C12 C 0.2193(3) 0.99192(8) 0.35214(13) 0.0281(4) Uani 1 1 d . . . . .
C13 C 0.4336(3) 0.97188(9) 0.37150(13) 0.0306(4) Uani 1 1 d . . . . .
H13 H 0.5407 1.0062 0.3894 0.037 Uiso 1 1 calc R U . . .
C14 C 0.4927(2) 0.90266(8) 0.36499(12) 0.0263(3) Uani 1 1 d . . . . .
H14 H 0.6392 0.8897 0.3791 0.032 Uiso 1 1 calc R U . . .
C15 C 0.1518(3) 1.06610(9) 0.36549(15) 0.0390(4) Uani 1 1 d . . . . .
H15A H 0.2732 1.0972 0.3587 0.047 Uiso 1 1 calc R U . . .
H15B H 0.1048 1.0720 0.4347 0.047 Uiso 1 1 calc R U . . .
H15C H 0.0333 1.0776 0.3117 0.047 Uiso 1 1 calc R U . . .
loop_
_atom_site_aniso_label
_atom_site_aniso_U_11
_atom_site_aniso_U_22
_atom_site_aniso_U_33
_atom_site_aniso_U_23
_atom_site_aniso_U_13
_atom_site_aniso_U_12
S1 0.0187(2) 0.02601(19) 0.01592(18) -0.00002(14) 0.00424(14) 0.00059(14)
F1 0.0373(7) 0.0256(6) 0.0594(9) -0.0038(5) 0.0178(6) -0.0026(5)
C2 0.0221(10) 0.0325(8) 0.0309(9) -0.0075(7) 0.0106(7) -0.0029(7)
C3 0.0262(8) 0.0235(14) 0.0198(9) -0.0013(7) 0.0047(7) -0.0004(8)
O1 0.0194(5) 0.0370(6) 0.0245(6) 0.0029(5) 0.0070(4) 0.0029(5)
O2 0.0283(6) 0.0299(6) 0.0155(5) -0.0030(4) 0.0004(4) -0.0007(5)
N1 0.0153(6) 0.0266(6) 0.0144(6) -0.0004(5) 0.0013(5) -0.0005(5)
C1 0.0159(7) 0.0230(7) 0.0182(7) -0.0002(6) 0.0017(5) 0.0007(6)
C4 0.0186(7) 0.0345(8) 0.0164(7) -0.0022(6) -0.0005(6) -0.0018(6)
C5 0.0236(8) 0.0225(7) 0.0240(8) 0.0031(6) 0.0037(6) -0.0004(6)
C6 0.0521(11) 0.0250(8) 0.0376(10) -0.0048(8) 0.0099(9) -0.0037(8)
C7 0.0281(9) 0.0276(8) 0.0402(10) 0.0046(8) 0.0037(7) -0.0050(7)
C8 0.0311(9) 0.0349(9) 0.0396(10) 0.0153(8) 0.0001(8) -0.0004(7)
C9 0.0211(7) 0.0257(7) 0.0171(7) 0.0020(6) 0.0039(6) -0.0010(6)
C10 0.0218(8) 0.0262(8) 0.0270(8) 0.0010(7) 0.0026(6) -0.0028(6)
C11 0.0225(8) 0.0289(8) 0.0318(9) 0.0036(7) 0.0062(7) 0.0020(6)
C12 0.0344(9) 0.0248(8) 0.0267(8) 0.0034(7) 0.0108(7) -0.0017(7)
C13 0.0295(9) 0.0294(8) 0.0338(9) -0.0003(7) 0.0071(7) -0.0102(7)
C14 0.0208(8) 0.0305(8) 0.0281(8) 0.0026(7) 0.0054(6) -0.0047(6)
C15 0.0470(11) 0.0286(9) 0.0436(11) -0.0005(8) 0.0147(9) -0.0011(8)
loop_
_atom_type_symbol
_atom_type_description
_atom_type_scat_dispersion_real
_atom_type_scat_dispersion_imag
_atom_type_scat_source
C C 0.0033 0.0016 'International Tables Vol C Tables 4.2.6.8 and 6.1.1.4'
H H 0.0000 0.0000 'International Tables Vol C Tables 4.2.6.8 and 6.1.1.4'
N N 0.0061 0.0033 'International Tables Vol C Tables 4.2.6.8 and 6.1.1.4'
O O 0.0106 0.0060 'International Tables Vol C Tables 4.2.6.8 and 6.1.1.4'
F F 0.0171 0.0103 'International Tables Vol C Tables 4.2.6.8 and 6.1.1.4'
S S 0.1246 0.1234 'International Tables Vol C Tables 4.2.6.8 and 6.1.1.4'
loop_
_geom_angle_atom_site_label_1
_geom_angle_atom_site_label_2
_geom_angle_atom_site_label_3
_geom_angle
O2 S1 O1 119.88(7)
O2 S1 N1 106.96(6)
O1 S1 N1 106.41(6)
O2 S1 C9 107.73(7)
O1 S1 C9 106.82(7)
N1 S1 C9 108.65(7)
C3 C2 C1 108.9(2)
C3 C2 H2A 109.9
C1 C2 H2A 109.9
C3 C2 H2B 109.9
C1 C2 H2B 109.9
H2A C2 H2B 108.3
F1 C3 C2 109.36(18)
F1 C3 C4 108.87(15)
C2 C3 C4 105.6(2)
F1 C3 H3 110.9
C2 C3 H3 110.9
C4 C3 H3 110.9
C4 N1 C1 108.97(11)
C4 N1 S1 117.83(10)
C1 N1 S1 119.92(9)
N1 C1 C2 103.44(15)
N1 C1 C5 112.08(11)
C2 C1 C5 115.21(16)
C2' C1 C5 114.9(7)
N1 C1 H1A 108.6
C2 C1 H1A 108.6
C5 C1 H1A 108.7
N1 C1 H1B 107.3
C2' C1 H1B 107.8
C5 C1 H1B 107.4
N1 C4 C3 105.81(14)
N1 C4 H4A 110.5
C3 C4 H4A 110.3
N1 C4 H4B 110.6
C3 C4 H4B 110.8
H4A C4 H4B 108.8
C8 C5 C6 109.04(14)
C8 C5 C7 109.40(13)
C6 C5 C7 108.62(13)
C8 C5 C1 112.23(12)
C6 C5 C1 109.12(12)
C7 C5 C1 108.37(12)
C5 C6 H6A 109.5
C5 C6 H6B 109.5
H6A C6 H6B 109.5
C5 C6 H6C 109.5
H6A C6 H6C 109.5
H6B C6 H6C 109.5
C5 C7 H7A 109.5
C5 C7 H7B 109.5
H7A C7 H7B 109.5
C5 C7 H7C 109.5
H7A C7 H7C 109.5
H7B C7 H7C 109.5
C5 C8 H8A 109.5
C5 C8 H8B 109.5
H8A C8 H8B 109.5
C5 C8 H8C 109.5
H8A C8 H8C 109.5
H8B C8 H8C 109.5
C14 C9 C10 120.34(14)
C14 C9 S1 119.78(12)
C10 C9 S1 119.82(11)
C11 C10 C9 119.06(14)
C11 C10 H10 120.5
C9 C10 H10 120.5
C10 C11 C12 121.59(15)
C10 C11 H11 119.2
C12 C11 H11 119.2
C13 C12 C11 118.12(15)
C13 C12 C15 121.41(15)
C11 C12 C15 120.44(15)
C14 C13 C12 120.94(15)
C14 C13 H13 119.5
C12 C13 H13 119.5
C13 C14 C9 119.90(15)
C13 C14 H14 120.1
C9 C14 H14 120.1
C12 C15 H15A 109.5
C12 C15 H15B 109.5
H15A C15 H15B 109.5
C12 C15 H15C 109.5
H15A C15 H15C 109.5
H15B C15 H15C 109.5
loop_
_geom_bond_atom_site_label_1
_geom_bond_atom_site_label_2
_geom_bond_distance
S1 O2 1.4320(11)
S1 O1 1.4380(11)
S1 N1 1.6300(12)
S1 C9 1.7647(15)
F1 C3 1.396(2)
C2 C3 1.512(3)
C2 C1 1.540(3)
C2 H2A 0.9900
C2 H2B 0.9900
C3 C4 1.513(3)
C3 H3 1.0000
N1 C4 1.4799(17)
N1 C1 1.5001(17)
C1 C5 1.5488(19)
C1 H1A 0.9600
C1 H1B 0.9600
C4 H4A 0.9600
C4 H4B 0.9600
C5 C8 1.531(2)
C5 C6 1.531(2)
C5 C7 1.533(2)
C6 H6A 0.9800
C6 H6B 0.9800
C6 H6C 0.9800
C7 H7A 0.9800
C7 H7B 0.9800
C7 H7C 0.9800
C8 H8A 0.9800
C8 H8B 0.9800
C8 H8C 0.9800
C9 C14 1.388(2)
C9 C10 1.392(2)
C10 C11 1.383(2)
C10 H10 0.9500
C11 C12 1.399(2)
C11 H11 0.9500
C12 C13 1.393(2)
C12 C15 1.501(2)
C13 C14 1.384(2)
C13 H13 0.9500
C14 H14 0.9500
C15 H15A 0.9800
C15 H15B 0.9800
C15 H15C 0.9800
loop_
_geom_hbond_atom_site_label_D
_geom_hbond_atom_site_label_H
_geom_hbond_atom_site_label_A
_geom_hbond_distance_DH
_geom_hbond_distance_HA
_geom_hbond_distance_DA
_geom_hbond_angle_DHA
_geom_hbond_site_symmetry_A
C3 H3 O1 1.00 2.66 3.476(2) 139.4 4_576
C4 H4C O2 0.96 2.64 3.1182(18) 111.3 4_676
loop_
_geom_torsion_atom_site_label_1
_geom_torsion_atom_site_label_2
_geom_torsion_atom_site_label_3
_geom_torsion_atom_site_label_4
_geom_torsion
C1 C2 C3 F1 108.88(19)
C1 C2 C3 C4 -8.1(2)
O2 S1 N1 C4 -177.11(10)
O1 S1 N1 C4 53.63(12)
C9 S1 N1 C4 -61.07(12)
O2 S1 N1 C1 -40.39(12)
O1 S1 N1 C1 -169.65(10)
C9 S1 N1 C1 75.65(11)
C4 N1 C1 C2 22.67(17)
S1 N1 C1 C2 -117.46(14)
C4 N1 C1 C5 -102.04(13)
S1 N1 C1 C5 117.83(12)
C3 C2 C1 N1 -8.5(2)
C3 C2 C1 C5 114.2(2)
C1 N1 C4 C3 -28.43(16)
S1 N1 C4 C3 112.64(13)
F1 C3 C4 N1 -95.44(18)
C2 C3 C4 N1 21.9(2)
N1 C1 C5 C8 58.74(16)
C2 C1 C5 C8 -59.2(2)
N1 C1 C5 C6 -62.23(16)
C2 C1 C5 C6 179.85(17)
N1 C1 C5 C7 179.65(12)
C2 C1 C5 C7 61.74(19)
O2 S1 C9 C14 -146.94(12)
O1 S1 C9 C14 -16.92(14)
N1 S1 C9 C14 97.51(13)
O2 S1 C9 C10 35.79(14)
O1 S1 C9 C10 165.81(12)
N1 S1 C9 C10 -79.76(13)
C14 C9 C10 C11 -1.1(2)
S1 C9 C10 C11 176.20(12)
C9 C10 C11 C12 -0.5(2)
C10 C11 C12 C13 2.1(2)
C10 C11 C12 C15 -176.15(16)
C11 C12 C13 C14 -2.1(2)
C15 C12 C13 C14 176.11(15)
C12 C13 C14 C9 0.6(2)
C10 C9 C14 C13 1.0(2)
S1 C9 C14 C13 -176.24(12)
