#------------------------------------------------------------------------------
#$Date: 2016-02-18 17:37:37 +0200 (Thu, 18 Feb 2016) $
#$Revision: 176729 $
#$URL: svn://www.crystallography.net/cod/cif/1/51/34/1513468.cif $
#------------------------------------------------------------------------------
#
# This file is available in the Crystallography Open Database (COD),
# http://www.crystallography.net/
#
# All data on this site have been placed in the public domain by the
# contributors.
#
data_1513468
loop_
_publ_author_name
'Zheng, Chen'
'Chen, Jin Jin'
'Fan, Renhua'
_publ_section_title
;
 Dearomatization Strategy and Palladium-Catalyzed Domino Reaction:
 Construction of Azepino[5,4,3-cd]indoles from 2-Alkynylanilines.
;
_journal_issue                   3
_journal_name_full               'Organic letters'
_journal_page_first              816
_journal_page_last               819
_journal_paper_doi               10.1021/ol403557q
_journal_volume                  16
_journal_year                    2014
_chemical_formula_sum            'C30 H27 Cl N2 O4 S'
_chemical_formula_weight         547.04
_chemical_name_systematic
; 
 ? 
;
_space_group_crystal_system      monoclinic
_space_group_IT_number           14
_space_group_name_Hall           '-P 2yn'
_space_group_name_H-M_alt        'P 1 21/n 1'
_symmetry_space_group_name_Hall  '-P 2yn'
_symmetry_space_group_name_H-M   'P 1 21/n 1'
_atom_sites_solution_hydrogens   geom
_audit_creation_method           SHELXL-2013
_cell_angle_alpha                90
_cell_angle_beta                 101.900(11)
_cell_angle_gamma                90
_cell_formula_units_Z            4
_cell_length_a                   13.995(11)
_cell_length_b                   10.384(9)
_cell_length_c                   18.902(15)
_cell_measurement_reflns_used    1011
_cell_measurement_temperature    293(2)
_cell_measurement_theta_max      26.292
_cell_measurement_theta_min      2.202
_cell_volume                     2688(4)
_computing_cell_refinement       'Bruker SMART'
_computing_data_collection       'Bruker SMART'
_computing_data_reduction        'Bruker SHELXTL'
_computing_molecular_graphics    'Bruker SHELXTL'
_computing_publication_material  'Bruker SHELXTL'
_computing_structure_refinement  'SHELXL-2013 (Sheldrick, 2013)'
_computing_structure_solution    'Bruker SHELXTL'
_diffrn_ambient_temperature      293(2)
_diffrn_measured_fraction_theta_full 0.997
_diffrn_measured_fraction_theta_max 0.996
_diffrn_measurement_device_type  'CCD area detector'
_diffrn_measurement_method       'phi and omega scans'
_diffrn_radiation_type           MoK\a
_diffrn_radiation_wavelength     0.71073
_diffrn_reflns_av_R_equivalents  0.0577
_diffrn_reflns_av_unetI/netI     0.0603
_diffrn_reflns_Laue_measured_fraction_full 0.997
_diffrn_reflns_Laue_measured_fraction_max 0.996
_diffrn_reflns_limit_h_max       9
_diffrn_reflns_limit_h_min       -17
_diffrn_reflns_limit_k_max       12
_diffrn_reflns_limit_k_min       -12
_diffrn_reflns_limit_l_max       23
_diffrn_reflns_limit_l_min       -23
_diffrn_reflns_number            11804
_diffrn_reflns_point_group_measured_fraction_full 0.997
_diffrn_reflns_point_group_measured_fraction_max 0.996
_diffrn_reflns_theta_full        25.242
_diffrn_reflns_theta_max         25.997
_diffrn_reflns_theta_min         2.025
_exptl_absorpt_coefficient_mu    0.259
_exptl_absorpt_correction_T_max  1.000
_exptl_absorpt_correction_T_min  0.665
_exptl_absorpt_correction_type   multi-scan
_exptl_absorpt_process_details   sadabs
_exptl_crystal_colour            colorless
_exptl_crystal_density_diffrn    1.352
_exptl_crystal_description       block
_exptl_crystal_F_000             1144
_exptl_crystal_size_max          0.520
_exptl_crystal_size_mid          0.290
_exptl_crystal_size_min          0.250
_refine_diff_density_max         0.328
_refine_diff_density_min         -0.235
_refine_diff_density_rms         0.072
_refine_ls_extinction_coef       0.0089(9)
_refine_ls_extinction_expression Fc^*^=kFc[1+0.001xFc^2^\l^3^/sin(2\q)]^-1/4^
_refine_ls_extinction_method     SHELXL
_refine_ls_goodness_of_fit_ref   0.919
_refine_ls_hydrogen_treatment    constr
_refine_ls_matrix_type           full
_refine_ls_number_parameters     349
_refine_ls_number_reflns         5264
_refine_ls_number_restraints     0
_refine_ls_restrained_S_all      0.919
_refine_ls_R_factor_all          0.0710
_refine_ls_R_factor_gt           0.0491
_refine_ls_shift/su_max          0.003
_refine_ls_shift/su_mean         0.000
_refine_ls_structure_factor_coef Fsqd
_refine_ls_weighting_details
; 
 w=1/[\s^2^(Fo^2^)+(0.0706P)^2^] 
 where P=(Fo^2^+2Fc^2^)/3 
;
_refine_ls_weighting_scheme      calc
_refine_ls_wR_factor_gt          0.1186
_refine_ls_wR_factor_ref         0.1266
_reflns_Friedel_coverage         0.000
_reflns_number_gt                3522
_reflns_number_total             5264
_reflns_threshold_expression     'I > 2\s(I)'
_cod_data_source_file            ol403557q_si_002.cif
_cod_data_source_block           a31030a
_cod_database_code               1513468
#BEGIN Tags that were not found in dictionaries:
_shelx_space_group_comment
; 
The symmetry employed for this shelxl refinement is uniquely defined 
by the following loop, which should always be used as a source of 
symmetry information in preference to the above space-group names. 
They are only intended as comments. 
;
_shelx_estimated_absorpt_t_min   0.877
_shelx_estimated_absorpt_t_max   0.938
_shelxl_version_number           2013-2
_shelx_res_file
; 
TITL a31030a in P2(1)/n 
CELL 0.71073  13.9950  10.3837  18.9016  90.000 101.900  90.000 
ZERR    4.00   0.0114   0.0085   0.0154   0.000   0.011   0.000 
LATT 1 
SYMM 0.5-X, 0.5+Y, 0.5-Z 
SFAC C  H  N  O  S  Cl 
UNIT 120 108 8 16 4 4 
OMIT  -2.00  52.00 
L.S. 4 
ACTA 
BOND 
FMAP 2 
PLAN 1 
SIZE 0.52 0.29 0.25 
CONF 
TEMP 20 
WGHT    0.070600 
EXTI    0.008945 
FVAR       0.24444 
MOLE 1 
S1    5    1.125599    0.608376    0.141593    11.00000    0.05214    0.03072 = 
         0.06037   -0.00578    0.00229    0.00481 
CL1   6    1.364640    1.044275   -0.046660    11.00000    0.12482    0.09966 = 
         0.08887    0.00371    0.06903   -0.00705 
N1    3    1.126820    0.741585    0.192546    11.00000    0.04803    0.03002 = 
         0.04627   -0.00116    0.00595    0.00244 
N2    3    0.948883    1.127806    0.255897    11.00000    0.05112    0.03755 = 
         0.04974    0.00118    0.01841    0.00394 
O1    4    1.198168    0.626429    0.100645    11.00000    0.05053    0.05070 = 
         0.08882   -0.02249    0.02255    0.00134 
O2    4    1.132215    0.504908    0.190746    11.00000    0.08255    0.02955 = 
         0.07347    0.00175   -0.00985    0.00698 
O3    4    0.974205    1.241284    0.159407    11.00000    0.08181    0.06183 = 
         0.08352    0.03444    0.03890    0.03218 
O4    4    1.008897    1.114074    0.376947    11.00000    0.09455    0.06176 = 
         0.04892   -0.01253    0.01824   -0.00308 
C1    1    1.137542    0.868189    0.167314    11.00000    0.04050    0.03099 = 
         0.04233    0.00046    0.00394    0.00027 
C2    1    1.094586    0.950952    0.206581    11.00000    0.03780    0.03133 = 
         0.04056    0.00058    0.00778   -0.00007 
C3    1    1.094797    1.091647    0.204753    11.00000    0.04643    0.02936 = 
         0.03579   -0.00067    0.00885   -0.00186 
C4    1    1.001775    1.159795    0.204716    11.00000    0.05611    0.03315 = 
         0.05148    0.00081    0.01631    0.00350 
C5    1    0.993830    1.059486    0.320367    11.00000    0.04927    0.04677 = 
         0.04352   -0.00179    0.01513   -0.00486 
C6    1    1.010462    0.920352    0.312632    11.00000    0.04057    0.04268 = 
         0.03942    0.00304    0.00537   -0.00323 
C7    1    0.985849    0.828834    0.360123    11.00000    0.04860    0.05497 = 
         0.04527    0.00870    0.00802   -0.00559 
C8    1    1.003671    0.700567    0.346756    11.00000    0.05985    0.04872 = 
         0.05947    0.02075    0.01263   -0.00699 
AFIX  43 
H8    2    0.984674    0.639071    0.376873    11.00000   -1.20000 
AFIX   0 
C9    1    1.046990    0.657949    0.292719    11.00000    0.06212    0.03468 = 
         0.06082    0.00920    0.00938   -0.00342 
AFIX  43 
H9    2    1.058258    0.570793    0.286582    11.00000   -1.20000 
AFIX   0 
C10   1    1.073351    0.749846    0.247568    11.00000    0.04108    0.03343 = 
         0.04510    0.00342    0.00341   -0.00195 
C11   1    1.053162    0.878856    0.256760    11.00000    0.03916    0.03211 = 
         0.04033    0.00140    0.00196   -0.00298 
C12   1    1.010672    0.611445    0.085426    11.00000    0.04842    0.03388 = 
         0.04260   -0.00358    0.00736    0.00022 
C13   1    0.997659    0.677112    0.021482    11.00000    0.06130    0.04266 = 
         0.04940   -0.00240    0.01216   -0.00750 
AFIX  43 
H13   2    1.050147    0.716448    0.006962    11.00000   -1.20000 
AFIX   0 
C14   1    0.905529    0.683751   -0.020811    11.00000    0.07705    0.04738 = 
         0.04675    0.00297   -0.00100    0.00261 
AFIX  43 
H14   2    0.896152    0.728629   -0.064277    11.00000   -1.20000 
AFIX   0 
C15   1    0.827015    0.626410   -0.001038    11.00000    0.05532    0.05335 = 
         0.05629   -0.01767    0.00224    0.01186 
C16   1    0.843394    0.556888    0.062090    11.00000    0.05186    0.08031 = 
         0.06504   -0.00803    0.02163   -0.01069 
AFIX  43 
H16   2    0.791586    0.514050    0.075585    11.00000   -1.20000 
AFIX   0 
C17   1    0.934554    0.549354    0.105612    11.00000    0.06126    0.06466 = 
         0.04880    0.00741    0.01188   -0.01061 
AFIX  43 
H17   2    0.944460    0.502463    0.148425    11.00000   -1.20000 
AFIX   0 
C18   1    0.726165    0.636692   -0.047181    11.00000    0.06173    0.09027 = 
         0.09788   -0.02926   -0.01148    0.02472 
AFIX 137 
H18A  2    0.695271    0.713559   -0.034710    11.00000   -1.50000 
H18B  2    0.688398    0.562981   -0.039122    11.00000   -1.50000 
H18C  2    0.730374    0.640107   -0.097202    11.00000   -1.50000 
AFIX   0 
C19   1    1.192771    0.900977    0.111699    11.00000    0.04893    0.03289 = 
         0.04206   -0.00602    0.01113   -0.00038 
C20   1    1.148645    0.972212    0.053281    11.00000    0.05576    0.04993 = 
         0.04821   -0.00111    0.01324    0.00785 
AFIX  43 
H20   2    1.082678    0.992362    0.046972    11.00000   -1.20000 
AFIX   0 
C21   1    1.201521    1.014621    0.003385    11.00000    0.09237    0.05596 = 
         0.04600    0.00711    0.02150    0.00987 
AFIX  43 
H21   2    1.171412    1.062914   -0.036442    11.00000   -1.20000 
AFIX   0 
C22   1    1.297704    0.984874    0.013310    11.00000    0.07792    0.05479 = 
         0.05547   -0.00978    0.03400   -0.00408 
C23   1    1.342817    0.911750    0.070247    11.00000    0.05645    0.06597 = 
         0.06508   -0.00913    0.02160    0.00153 
AFIX  43 
H23   2    1.408495    0.890529    0.075720    11.00000   -1.20000 
AFIX   0 
C24   1    1.290135    0.869815    0.119405    11.00000    0.05124    0.05222 = 
         0.05223   -0.00024    0.01120    0.00254 
AFIX  43 
H24   2    1.320432    0.819748    0.158418    11.00000   -1.20000 
AFIX   0 
C25   1    1.171318    1.161646    0.200103    11.00000    0.05619    0.03476 = 
         0.04731   -0.00249    0.01112   -0.00197 
AFIX  93 
H25A  2    1.230128    1.121900    0.197738    11.00000   -1.20000 
H25B  2    1.166744    1.251005    0.199172    11.00000   -1.20000 
AFIX   0 
C26   1    0.854802    1.198127    0.256725    11.00000    0.05935    0.05805 = 
         0.07846    0.01197    0.03214    0.01772 
C27   1    0.877411    1.338558    0.276853    11.00000    0.14173    0.05562 = 
         0.13138    0.00766    0.08180    0.03536 
AFIX 137 
H27A  2    0.923167    1.342835    0.322246    11.00000   -1.50000 
H27B  2    0.818300    1.382152    0.280940    11.00000   -1.50000 
H27C  2    0.905011    1.379168    0.240055    11.00000   -1.50000 
AFIX   0 
C28   1    0.788317    1.182043    0.183896    11.00000    0.05778    0.16879 = 
         0.10412    0.02409    0.00805    0.02591 
AFIX 137 
H28A  2    0.815161    1.226952    0.148086    11.00000   -1.50000 
H28B  2    0.725132    1.216711    0.185260    11.00000   -1.50000 
H28C  2    0.782207    1.092196    0.171839    11.00000   -1.50000 
AFIX   0 
C29   1    0.805579    1.136818    0.312499    11.00000    0.07230    0.10078 = 
         0.11696    0.02846    0.05461    0.01884 
AFIX 137 
H29A  2    0.804184    1.045028    0.306301    11.00000   -1.50000 
H29B  2    0.740016    1.168731    0.306473    11.00000   -1.50000 
H29C  2    0.841317    1.157808    0.360101    11.00000   -1.50000 
AFIX   0 
C30   1    0.942216    0.861668    0.423672    11.00000    0.07766    0.07678 = 
         0.05664    0.01346    0.02528   -0.00576 
AFIX 137 
H30A  2    0.908578    0.787883    0.437046    11.00000   -1.50000 
H30B  2    0.896962    0.931549    0.411207    11.00000   -1.50000 
H30C  2    0.993086    0.886658    0.463575    11.00000   -1.50000 
AFIX   0 
HKLF 4 
  
REM  a31030a in P2(1)/n 
REM R1 =  0.0491 for    3522 Fo > 4sig(Fo)  and  0.0710 for all    5264 data 
REM    349 parameters refined using      0 restraints 
  
END 
  
WGHT      0.0706      0.0000 
  
REM Highest difference peak  0.328,  deepest hole -0.235,  1-sigma level  0.072 
Q1    1   0.9801  0.6180  0.1055  11.00000  0.05    0.30 
;
_shelx_res_checksum              7680
_shelx_hkl_file
; 
   1  -4 -23    0.01    1.55 
   2  -4 -23   -1.81    1.43 
  -1  -3 -23   -1.59    1.26 
   0  -3 -23   -0.08    1.37 
   1  -3 -23    1.21    1.44 
   2  -3 -23   -0.19    1.41 
   3  -3 -23    0.95    1.46 
   4  -3 -23   -0.71    1.47 
  -1  -2 -23   -0.04    1.31 
   0  -2 -23   -0.73    1.24 
   1  -2 -23    0.11    1.24 
   2  -2 -23   -0.27    1.23 
   3  -2 -23   -1.04    1.26 
   4  -2 -23    3.44    1.59 
   5  -2 -23   -0.76    1.44 
  -1  -1 -23    0.63    1.32 
   0  -1 -23    0.87    1.28 
   1  -1 -23    1.16    1.31 
   2  -1 -23    1.12    1.27 
   3  -1 -23   -1.14    1.17 
   4  -1 -23    4.33    1.61 
   5  -1 -23    0.19    1.29 
   6  -1 -23   -0.93    1.33 
  -1   0 -23    1.56    1.27 
   0   0 -23    0.14    1.21 
   1   0 -23    1.89    1.31 
   2   0 -23   -0.06    1.10 
   3   0 -23   -0.13    1.11 
   4   0 -23   -0.71    1.13 
   5   0 -23   -0.43    1.21 
   6   0 -23   -0.99    1.09 
   7   0 -23    0.21    1.30 
   0   1 -23    0.87    1.24 
   1   1 -23    0.16    1.14 
   2   1 -23    1.69    1.22 
   3   1 -23    0.51    1.09 
   4   1 -23    4.50    1.36 
   5   1 -23   -0.35    1.06 
   6   1 -23   -0.75    1.14 
   7   1 -23    1.23    1.28 
   1   2 -23    0.19    1.04 
   2   2 -23   -0.59    1.02 
   3   2 -23   -0.65    1.04 
   4   2 -23    2.77    1.23 
   5   2 -23    0.52    1.11 
   6   2 -23    2.84    1.23 
   7   2 -23    0.63    1.25 
   3   3 -23    2.09    1.26 
   4   3 -23    0.93    1.12 
   5   3 -23    2.00    1.17 
   6   3 -23   -0.25    1.10 
   0  -4 -22   -0.38    1.29 
   1  -4 -22   -1.17    1.29 
   2  -4 -22   -1.67    1.21 
  -2  -3 -22    0.10    1.18 
  -1  -3 -22   -0.19    1.29 
   0  -3 -22    0.45    1.34 
   1  -3 -22    1.40    1.27 
   2  -3 -22    8.05    1.76 
   3  -3 -22    1.62    1.50 
   4  -3 -22    1.63    1.45 
  -4  -2 -22    1.11    1.33 
  -3  -2 -22    0.55    1.17 
  -2  -2 -22    1.02    1.27 
  -1  -2 -22    9.04    1.72 
   0  -2 -22    4.32    1.50 
   1  -2 -22    0.41    1.12 
   2  -2 -22    0.61    1.20 
   3  -2 -22    1.58    1.27 
   4  -2 -22    0.54    1.24 
   5  -2 -22    0.07    1.36 
  -4  -1 -22    3.52    1.65 
  -3  -1 -22    3.26    1.35 
  -2  -1 -22    0.79    1.18 
  -1  -1 -22    0.76    1.13 
   0  -1 -22   -0.23    1.08 
   1  -1 -22    1.73    1.17 
   2  -1 -22    0.72    1.10 
   3  -1 -22    0.42    1.04 
   4  -1 -22   -0.26    1.20 
   5  -1 -22   10.44    1.79 
   6  -1 -22   -0.76    1.21 
  -3   0 -22    0.31    1.23 
  -2   0 -22    8.20    1.68 
  -1   0 -22    0.10    1.07 
   0   0 -22    3.41    1.23 
   1   0 -22    0.13    1.10 
   2   0 -22   -0.47    1.03 
   3   0 -22   -0.29    1.05 
   4   0 -22    6.31    1.50 
   5   0 -22   -0.55    1.01 
   6   0 -22   -1.03    0.91 
   7   0 -22   -0.82    1.09 
  -3   1 -22    4.22    1.47 
  -2   1 -22    0.11    1.11 
  -1   1 -22    0.15    1.19 
   0   1 -22    0.20    1.02 
   1   1 -22    1.11    1.08 
   2   1 -22    2.82    1.28 
   3   1 -22    0.20    0.99 
   4   1 -22    1.44    1.05 
   5   1 -22   10.15    1.63 
   6   1 -22   -0.34    1.06 
   7   1 -22   -1.35    1.00 
  -2   2 -22    1.61    1.23 
  -1   2 -22    8.57    1.61 
   0   2 -22    4.60    1.43 
   1   2 -22   -1.51    0.75 
   2   2 -22    0.50    0.92 
   3   2 -22    2.18    1.14 
   4   2 -22   -0.31    1.06 
   5   2 -22    1.18    1.07 
   6   2 -22    0.61    1.00 
   7   2 -22    2.61    1.24 
   8   2 -22    3.86    1.41 
  -1   3 -22    0.46    1.07 
   0   3 -22    0.68    1.06 
   1   3 -22    2.46    1.19 
   2   3 -22    7.19    1.43 
   3   3 -22   -0.09    0.91 
   4   3 -22    2.65    1.12 
   5   3 -22    1.05    1.03 
   7   3 -22   -1.25    0.93 
   8   3 -22    3.57    1.36 
   0   4 -22    0.54    1.03 
   1   4 -22   -0.11    1.01 
   2   4 -22   -0.76    0.93 
   3   4 -22    0.17    0.94 
   4   4 -22    0.23    1.04 
   5   4 -22    1.19    1.06 
   6   4 -22    0.67    1.16 
   7   4 -22   -0.31    1.15 
   8   4 -22   -0.81    1.11 
   2   5 -22    0.12    1.10 
   3   5 -22   -0.06    1.01 
   4   5 -22    0.60    1.22 
   5   5 -22    0.10    1.09 
   6   5 -22    0.95    1.14 
   7   5 -22   -0.37    1.10 
   1  -5 -21    0.58    1.45 
  -1  -4 -21   -0.27    1.20 
   0  -4 -21    2.37    1.35 
   1  -4 -21   -0.11    1.38 
   2  -4 -21   -1.04    1.19 
   3  -4 -21   -2.24    1.24 
  -3  -3 -21    0.41    1.28 
  -2  -3 -21    2.33    1.23 
  -1  -3 -21    0.83    1.16 
   0  -3 -21    6.51    1.48 
   1  -3 -21    1.11    1.32 
   2  -3 -21    0.31    1.21 
   3  -3 -21   -0.10    1.23 
   4  -3 -21   -0.57    1.18 
  -5  -2 -21    0.64    1.41 
  -4  -2 -21    0.76    1.24 
  -3  -2 -21    0.30    1.05 
  -2  -2 -21    8.25    1.51 
  -1  -2 -21   -0.34    1.04 
   0  -2 -21    0.87    1.09 
   1  -2 -21    1.17    1.14 
   2  -2 -21    3.59    1.32 
   3  -2 -21   -0.20    1.09 
   4  -2 -21    2.98    1.30 
   5  -2 -21    0.39    1.23 
  -5  -1 -21   -0.07    1.13 
  -4  -1 -21    0.19    1.11 
  -3  -1 -21    2.19    1.27 
  -2  -1 -21    4.26    1.33 
  -1  -1 -21    0.82    1.05 
   0  -1 -21    9.01    1.58 
   1  -1 -21    0.37    0.99 
   2  -1 -21    1.11    1.11 
   3  -1 -21    0.54    1.02 
   4  -1 -21    0.13    1.06 
   5  -1 -21   -0.17    1.16 
   6  -1 -21   -0.75    1.07 
  -5   0 -21    1.76    1.28 
  -4   0 -21   -0.01    1.16 
  -3   0 -21   11.97    1.73 
  -2   0 -21    0.05    1.02 
  -1   0 -21    6.63    1.42 
   0   0 -21   -0.04    0.94 
   1   0 -21    3.98    1.26 
   2   0 -21   -0.20    0.89 
   3   0 -21    3.03    1.18 
   4   0 -21   -0.06    1.04 
   5   0 -21   -0.60    0.96 
   6   0 -21   -1.51    0.88 
   7   0 -21    3.35    1.33 
  -5   1 -21    0.31    1.20 
  -4   1 -21    0.11    1.04 
  -3   1 -21    1.41    1.23 
  -2   1 -21    4.60    1.42 
  -1   1 -21   -0.11    0.97 
   0   1 -21    6.07    1.38 
   1   1 -21    0.27    0.95 
   2   1 -21    2.86    1.21 
   3   1 -21    0.33    0.89 
   4   1 -21   -0.43    0.85 
   5   1 -21   -1.04    0.88 
   6   1 -21    0.08    1.00 
   7   1 -21   -0.12    1.07 
  -4   2 -21    1.11    1.25 
  -3   2 -21    0.63    1.04 
  -2   2 -21   11.17    1.79 
  -1   2 -21   -0.18    0.97 
   0   2 -21    1.48    1.17 
   1   2 -21    0.67    0.92 
   2   2 -21    2.53    1.09 
   3   2 -21   -0.05    0.89 
   4   2 -21    4.18    1.22 
   5   2 -21    0.92    1.04 
   6   2 -21   -0.31    0.96 
   7   2 -21   -0.77    0.97 
   8   2 -21   -0.74    1.06 
  -3   3 -21    0.80    1.15 
  -2   3 -21    2.37    1.19 
  -1   3 -21    1.53    1.06 
   0   3 -21    7.64    1.41 
   1   3 -21    1.78    1.08 
   2   3 -21   -0.02    0.88 
   3   3 -21   -0.24    0.88 
   4   3 -21   -0.55    0.89 
   5   3 -21   -0.22    0.92 
   6   3 -21   -0.65    0.91 
   7   3 -21    2.70    1.24 
   8   3 -21    0.59    1.21 
  -2   4 -21    3.64    1.28 
  -1   4 -21    0.64    1.04 
   0   4 -21    1.66    1.14 
   1   4 -21   -0.32    0.89 
   2   4 -21   -0.05    0.96 
   3   4 -21    0.14    0.91 
   4   4 -21    3.07    1.17 
   5   4 -21   -1.00    0.99 
   6   4 -21   12.80    1.73 
   8   4 -21   -1.36    1.12 
  -1   5 -21    5.23    1.32 
   0   5 -21   14.30    2.00 
   1   5 -21    1.89    1.08 
   2   5 -21    1.10    1.12 
   3   5 -21   -0.94    0.88 
   4   5 -21    1.21    1.11 
   5   5 -21    1.97    1.16 
   6   5 -21    0.04    0.98 
   7   5 -21   -0.42    1.11 
   8   5 -21    0.73    1.23 
   1   6 -21    0.39    1.07 
   2   6 -21    5.38    1.50 
   3   6 -21   -1.07    0.93 
   4   6 -21    2.08    1.22 
   5   6 -21   -0.27    1.12 
   6   6 -21   -0.54    1.01 
   1  -5 -20   -1.30    1.33 
  -1  -4 -20   -0.24    1.06 
   0  -4 -20    1.76    1.20 
   1  -4 -20   -0.52    1.26 
   2  -4 -20   -0.59    1.13 
   3  -4 -20   -1.15    1.22 
  -3  -3 -20    1.08    1.23 
  -2  -3 -20   -0.04    1.06 
  -1  -3 -20    1.63    1.17 
   0  -3 -20    1.28    1.07 
   1  -3 -20    0.27    1.18 
   2  -3 -20    2.08    1.17 
   3  -3 -20    0.77    1.19 
   4  -3 -20    1.94    1.39 
  -5  -2 -20    1.40    1.11 
  -4  -2 -20    4.49    1.39 
  -3  -2 -20   -0.80    0.89 
  -2  -2 -20    1.30    1.09 
  -1  -2 -20    0.81    1.06 
   0  -2 -20    2.07    1.08 
   1  -2 -20   20.95    2.00 
   2  -2 -20    1.39    1.11 
   3  -2 -20   -0.18    1.03 
   4  -2 -20    1.98    1.29 
   5  -2 -20    8.82    1.65 
  -7  -1 -20    0.94    1.16 
  -6  -1 -20   -0.13    1.03 
  -5  -1 -20    1.88    1.22 
  -4  -1 -20    9.35    1.57 
  -3  -1 -20    5.43    1.32 
  -2  -1 -20    1.44    1.04 
  -1  -1 -20   16.78    1.80 
   0  -1 -20    1.12    0.98 
   1  -1 -20   12.51    1.67 
   2  -1 -20    9.46    1.49 
   3  -1 -20    3.17    1.16 
   4  -1 -20   -0.78    0.96 
   5  -1 -20    0.19    1.07 
   6  -1 -20   -0.28    1.05 
  -7   0 -20    0.56    1.23 
  -6   0 -20    1.32    1.19 
  -5   0 -20   -0.10    0.98 
  -4   0 -20    5.09    1.33 
  -3   0 -20    0.53    1.10 
  -2   0 -20    2.67    1.09 
  -1   0 -20    0.25    0.92 
   0   0 -20   23.36    2.05 
   1   0 -20   -0.29    0.89 
   2   0 -20   10.29    1.55 
   3   0 -20   -0.30    0.85 
   4   0 -20   14.64    1.75 
   5   0 -20   -0.25    0.89 
   6   0 -20   -1.03    0.88 
   7   0 -20   -1.17    0.99 
  -6   1 -20   -0.12    1.12 
  -5   1 -20    1.40    1.25 
  -4   1 -20    8.75    1.49 
  -3   1 -20    5.00    1.27 
  -2   1 -20    1.29    1.09 
  -1   1 -20   16.82    1.81 
   0   1 -20    2.20    1.21 
   1   1 -20   14.70    1.70 
   2   1 -20    9.44    1.47 
   3   1 -20    2.30    1.04 
   4   1 -20   -0.45    0.81 
   5   1 -20    0.31    0.90 
   6   1 -20    0.16    0.96 
   7   1 -20    8.36    1.49 
  -6   2 -20    0.58    1.24 
  -5   2 -20    2.01    1.26 
  -4   2 -20    4.07    1.33 
  -3   2 -20   -1.38    0.85 
  -2   2 -20    0.87    0.98 
  -1   2 -20    1.80    1.14 
   0   2 -20    0.88    0.93 
   1   2 -20   21.34    2.03 
   2   2 -20    2.35    0.99 
   3   2 -20   -0.24    0.86 
   4   2 -20    2.95    1.09 
   5   2 -20    9.52    1.43 
   6   2 -20    0.17    0.95 
   7   2 -20   -0.10    0.95 
   8   2 -20    0.47    1.12 
  -5   3 -20    0.09    1.16 
  -4   3 -20   -0.01    1.07 
  -3   3 -20    2.14    1.20 
  -2   3 -20    0.00    0.93 
  -1   3 -20    1.43    1.01 
   0   3 -20    2.24    1.09 
   1   3 -20    0.21    0.90 
   2   3 -20    1.72    0.99 
   3   3 -20    0.59    0.89 
   4   3 -20    2.95    1.14 
   5   3 -20    0.08    0.89 
   6   3 -20    1.74    1.02 
   7   3 -20    0.52    1.02 
   8   3 -20    6.11    1.46 
  -4   4 -20   -0.55    1.10 
  -3   4 -20   -0.05    0.97 
  -2   4 -20    0.94    0.98 
  -1   4 -20    0.11    0.87 
   0   4 -20    0.89    1.05 
   1   4 -20    0.33    0.87 
   2   4 -20    0.20    0.96 
   3   4 -20   -0.41    0.81 
   4   4 -20   -0.24    0.90 
   5   4 -20    2.90    1.08 
   6   4 -20   -0.28    0.90 
   7   4 -20    1.45    1.18 
   8   4 -20    1.69    1.18 
  -3   5 -20    0.52    1.05 
  -2   5 -20    0.84    1.11 
  -1   5 -20    6.49    1.38 
   0   5 -20   -0.14    0.96 
   1   5 -20    0.38    0.96 
   2   5 -20    1.38    1.10 
   3   5 -20    5.21    1.26 
   4   5 -20    2.90    1.09 
   5   5 -20    4.12    1.32 
   6   5 -20   10.04    1.54 
   7   5 -20    2.45    1.16 
   8   5 -20    4.10    1.35 
  -2   6 -20    1.89    1.25 
  -1   6 -20    1.12    1.09 
   0   6 -20    0.59    1.07 
   1   6 -20    2.79    1.29 
   2   6 -20    0.11    0.96 
   3   6 -20    1.75    1.16 
   4   6 -20    2.85    1.13 
   5   6 -20    0.09    1.05 
   6   6 -20    0.03    1.02 
   0   7 -20    1.44    1.12 
   1   7 -20   -0.63    1.19 
   2   7 -20    2.52    1.28 
   3   7 -20   -0.40    1.05 
   4   7 -20    1.73    1.17 
   0  -5 -19    0.21    1.33 
   1  -5 -19   -1.55    1.08 
  -2  -4 -19    2.18    1.17 
  -1  -4 -19    3.06    1.14 
   0  -4 -19    2.09    1.21 
   1  -4 -19    0.71    1.14 
   2  -4 -19    7.42    1.51 
   3  -4 -19   -1.27    1.13 
  -4  -3 -19    0.18    1.04 
  -3  -3 -19   -0.12    0.98 
  -2  -3 -19    7.67    1.46 
  -1  -3 -19    0.72    0.93 
   0  -3 -19    4.61    1.18 
   1  -3 -19   -0.23    0.94 
   2  -3 -19   33.26    2.40 
   3  -3 -19   -0.47    1.04 
   4  -3 -19    6.53    1.61 
  -6  -2 -19   -0.09    1.04 
  -5  -2 -19    0.14    0.99 
  -4  -2 -19    7.02    1.36 
  -3  -2 -19   -0.02    1.05 
  -2  -2 -19    0.94    0.98 
  -1  -2 -19    0.94    0.95 
   0  -2 -19   15.00    1.68 
   1  -2 -19    9.49    1.44 
   2  -2 -19   23.75    2.02 
   3  -2 -19   -1.03    0.91 
   4  -2 -19    6.22    1.40 
   5  -2 -19   -0.34    1.05 
  -7  -1 -19   -0.30    1.15 
  -6  -1 -19    4.94    1.28 
  -5  -1 -19    0.52    0.93 
  -4  -1 -19   -0.38    0.89 
  -3  -1 -19    0.78    0.92 
  -2  -1 -19    2.61    1.10 
  -1  -1 -19   10.64    1.48 
   0  -1 -19   45.89    2.57 
   1  -1 -19    2.15    1.09 
   2  -1 -19   12.02    1.57 
   3  -1 -19    0.43    0.92 
   4  -1 -19    0.15    0.93 
   5  -1 -19   -0.07    0.96 
   6  -1 -19    2.25    1.16 
  -8   0 -19    0.55    1.15 
  -7   0 -19    4.26    1.32 
  -6   0 -19   -0.32    0.97 
  -5   0 -19    1.98    1.06 
  -4   0 -19    0.53    0.91 
  -3   0 -19   11.00    1.56 
  -2   0 -19   -0.31    0.82 
  -1   0 -19   15.45    1.68 
   0   0 -19   -0.05    0.89 
   1   0 -19    9.23    1.37 
   2   0 -19    0.33    0.94 
   3   0 -19    5.53    1.22 
   4   0 -19   -0.13    0.86 
   5   0 -19    8.11    1.37 
   6   0 -19   -0.89    0.89 
   7   0 -19    0.02    1.05 
  -8   1 -19   -0.74    1.19 
  -7   1 -19   -0.19    1.07 
  -6   1 -19    7.10    1.48 
  -5   1 -19   -0.13    0.98 
  -4   1 -19   -0.17    0.89 
  -3   1 -19   -0.25    0.84 
  -2   1 -19    3.42    1.13 
  -1   1 -19   11.48    1.63 
   0   1 -19   50.39    2.77 
   1   1 -19    3.63    1.17 
   2   1 -19   11.75    1.48 
   3   1 -19    0.36    0.92 
   4   1 -19   -0.23    0.83 
   5   1 -19   -0.72    0.81 
   6   1 -19    2.60    1.07 
   7   1 -19    0.01    0.96 
  -7   2 -19    1.41    1.44 
  -6   2 -19    0.14    1.11 
  -5   2 -19    0.98    1.10 
  -4   2 -19    8.41    1.45 
  -3   2 -19   -0.62    0.86 
  -2   2 -19    0.36    0.89 
  -1   2 -19    1.48    0.92 
   0   2 -19   13.97    1.69 
   1   2 -19    9.61    1.46 
   2   2 -19   23.22    1.96 
   3   2 -19   -0.18    0.81 
   4   2 -19    6.79    1.29 
   5   2 -19    0.13    0.84 
   6   2 -19   -0.51    0.86 
   7   2 -19    2.60    1.22 
   8   2 -19   11.30    1.63 
  -6   3 -19    0.73    1.23 
  -5   3 -19    0.19    1.08 
  -4   3 -19    0.74    1.05 
  -3   3 -19    1.12    1.02 
  -2   3 -19    7.44    1.40 
  -1   3 -19    0.81    0.89 
   0   3 -19    5.96    1.31 
   1   3 -19    0.07    0.83 
   2   3 -19   38.33    2.52 
   3   3 -19    0.07    0.81 
   4   3 -19    8.58    1.37 
   5   3 -19    5.95    1.24 
   6   3 -19    0.52    0.88 
   7   3 -19    1.59    1.03 
   8   3 -19   -0.36    1.03 
  -5   4 -19    0.11    1.14 
  -4   4 -19    0.19    0.99 
  -3   4 -19    0.43    0.86 
  -2   4 -19    2.65    1.11 
  -1   4 -19    2.08    1.10 
   0   4 -19    2.46    1.06 
   1   4 -19    2.03    1.06 
   2   4 -19    7.96    1.42 
   3   4 -19   -0.59    0.79 
   4   4 -19    0.25    0.85 
   5   4 -19    0.85    0.91 
   6   4 -19    0.22    0.90 
   7   4 -19    0.46    0.97 
   8   4 -19    3.04    1.26 
  -4   5 -19    1.86    1.23 
  -3   5 -19    0.38    0.96 
  -2   5 -19    0.00    0.94 
  -1   5 -19    0.55    1.09 
   0   5 -19   -0.03    0.87 
   1   5 -19    0.08    0.99 
   2   5 -19    5.98    1.26 
   3   5 -19   -0.58    0.95 
   4   5 -19    0.42    0.83 
   5   5 -19    3.44    1.15 
   6   5 -19    2.98    1.09 
   7   5 -19   -1.02    0.99 
   8   5 -19    0.49    1.10 
  -3   6 -19    6.41    1.45 
  -2   6 -19    0.79    1.01 
   0   6 -19    8.13    1.47 
   1   6 -19   -0.41    0.96 
   2   6 -19   -0.02    0.90 
   3   6 -19    0.39    1.02 
   4   6 -19    1.76    1.01 
   5   6 -19    0.76    1.04 
   6   6 -19    0.54    1.06 
  -2   7 -19    0.29    1.02 
  -1   7 -19    5.48    1.46 
   0   7 -19    1.16    1.08 
   1   7 -19    3.57    1.28 
   2   7 -19    0.64    1.18 
   3   7 -19    1.55    1.17 
  -1   8 -19    1.55    1.21 
   0   8 -19    1.96    1.21 
   1   8 -19    0.57    1.10 
  -3  -8 -18    0.77    1.50 
   0  -5 -18    3.97    1.39 
   1  -5 -18    1.66    1.20 
  -2  -4 -18    1.70    0.98 
  -1  -4 -18    1.21    0.94 
   0  -4 -18    5.68    1.34 
   1  -4 -18   -0.03    1.01 
   2  -4 -18   11.81    1.65 
   3  -4 -18   -1.17    1.04 
  -4  -3 -18   -0.05    1.00 
  -3  -3 -18   -0.34    0.87 
  -2  -3 -18    2.55    1.01 
  -1  -3 -18   -0.28    0.78 
   0  -3 -18    1.58    0.93 
   1  -3 -18    0.64    0.96 
   2  -3 -18    0.52    1.06 
   3  -3 -18   -1.18    0.97 
   4  -3 -18    8.82    1.53 
  -6  -2 -18    0.21    0.86 
  -5  -2 -18    9.46    1.48 
  -4  -2 -18    0.02    0.84 
  -3  -2 -18   -0.42    0.84 
  -2  -2 -18    8.49    1.39 
  -1  -2 -18   23.44    1.85 
   0  -2 -18   17.56    1.72 
   1  -2 -18    3.76    1.09 
   2  -2 -18   17.43    1.70 
   3  -2 -18    1.63    1.02 
   4  -2 -18    2.05    1.15 
   5  -2 -18    5.25    1.35 
  -8  -1 -18   -0.21    0.99 
  -7  -1 -18    1.99    1.10 
  -6  -1 -18    4.79    1.21 
  -5  -1 -18    0.20    0.86 
  -4  -1 -18    1.82    0.96 
  -3  -1 -18    1.18    0.95 
  -2  -1 -18   -0.12    0.76 
  -1  -1 -18    2.79    1.02 
   0  -1 -18    7.41    1.25 
   1  -1 -18    4.82    1.14 
   2  -1 -18   14.88    1.62 
   3  -1 -18   10.86    1.45 
   4  -1 -18   12.81    1.58 
   5  -1 -18    9.32    1.45 
   6  -1 -18    5.09    1.33 
  -9   0 -18    0.51    1.22 
  -8   0 -18    9.05    1.64 
  -7   0 -18    0.19    0.96 
  -6   0 -18   -0.49    0.97 
  -5   0 -18    0.15    0.98 
  -4   0 -18    1.18    0.91 
  -3   0 -18    0.42    0.76 
  -2   0 -18    6.68    1.28 
  -1   0 -18   -0.37    0.73 
   0   0 -18   17.95    1.80 
   1   0 -18   -0.62    0.71 
   2   0 -18   92.17    3.53 
   3   0 -18   -0.33    0.77 
   4   0 -18    6.43    1.25 
   5   0 -18   -0.06    0.88 
   6   0 -18   17.32    1.80 
  -9   1 -18    2.23    1.57 
  -8   1 -18    1.44    1.26 
  -7   1 -18    2.12    1.17 
  -6   1 -18    5.81    1.34 
  -5   1 -18    0.52    0.87 
  -4   1 -18    1.11    0.96 
  -3   1 -18   -0.24    0.80 
  -2   1 -18    0.23    0.80 
  -1   1 -18    3.21    1.09 
   0   1 -18    8.02    1.28 
   1   1 -18    4.79    1.14 
   2   1 -18   14.47    1.54 
   3   1 -18   15.88    1.65 
   4   1 -18   14.10    1.56 
   5   1 -18    9.88    1.41 
   6   1 -18    5.88    1.30 
   7   1 -18    4.22    1.16 
  -8   2 -18    0.53    1.25 
  -7   2 -18    0.57    1.10 
  -6   2 -18   -0.21    1.02 
  -5   2 -18    8.32    1.48 
  -4   2 -18    0.65    0.90 
  -3   2 -18    0.48    0.86 
  -2   2 -18    7.68    1.33 
  -1   2 -18   20.88    1.80 
   0   2 -18   16.26    1.75 
   1   2 -18    2.46    0.98 
   2   2 -18   18.80    1.76 
   3   2 -18    1.39    0.86 
   4   2 -18    2.30    0.96 
   5   2 -18    3.65    1.01 
   6   2 -18   10.55    1.39 
   7   2 -18    5.28    1.22 
   8   2 -18    1.25    1.10 
  -7   3 -18    2.62    1.30 
  -6   3 -18    0.07    1.04 
  -5   3 -18    2.88    1.20 
  -4   3 -18   -0.37    0.93 
  -3   3 -18   -0.08    0.80 
  -2   3 -18    1.86    0.98 
  -1   3 -18    0.13    0.82 
   0   3 -18    0.70    0.83 
   1   3 -18    1.32    0.90 
   2   3 -18    0.42    0.84 
   3   3 -18   -0.06    0.76 
   4   3 -18    9.66    1.35 
   5   3 -18    2.26    0.97 
   6   3 -18    2.97    1.03 
   7   3 -18    1.53    1.09 
   8   3 -18   -0.32    0.91 
  -6   4 -18    0.57    1.16 
  -5   4 -18    0.46    1.18 
  -4   4 -18    0.50    0.91 
  -3   4 -18    6.00    1.32 
  -2   4 -18    1.23    0.95 
  -1   4 -18    0.88    0.90 
   0   4 -18    7.19    1.33 
   1   4 -18   -1.10    0.81 
   2   4 -18   13.43    1.52 
   3   4 -18    0.10    0.82 
   4   4 -18    0.87    0.89 
   5   4 -18   -0.66    0.84 
   6   4 -18    1.14    0.88 
   7   4 -18    6.19    1.24 
   8   4 -18    0.23    1.07 
  -6   5 -18   -0.29    1.08 
  -5   5 -18   -0.29    0.97 
  -4   5 -18    1.19    1.09 
  -3   5 -18    1.05    1.05 
  -2   5 -18    2.25    1.06 
  -1   5 -18    0.89    1.03 
   0   5 -18    3.05    1.08 
   1   5 -18    1.45    0.97 
   2   5 -18   -0.04    0.96 
   3   5 -18   -0.54    0.79 
   4   5 -18    1.99    0.93 
   5   5 -18    1.26    0.96 
   6   5 -18   -0.37    0.93 
   7   5 -18    7.58    1.36 
   8   5 -18    5.31    1.31 
  -5   6 -18    0.86    1.11 
  -4   6 -18    6.45    1.45 
  -3   6 -18   -0.05    1.01 
  -2   6 -18    2.35    1.10 
  -1   6 -18    6.25    1.35 
   0   6 -18    0.78    1.01 
   1   6 -18    2.50    1.04 
   3   6 -18   -0.05    0.91 
   4   6 -18    0.63    0.91 
   5   6 -18   15.23    1.73 
   6   6 -18    6.45    1.30 
  -3   7 -18    0.60    1.05 
  -2   7 -18   11.14    1.71 
  -1   7 -18   -0.59    0.99 
   0   7 -18    0.31    1.01 
   1   7 -18   -0.05    0.99 
   2   7 -18    6.88    1.46 
   3   7 -18    2.81    1.16 
  -2   8 -18    2.94    1.29 
  -1   8 -18    1.29    1.08 
   0   8 -18    0.19    1.08 
   1   8 -18    0.07    0.98 
  -4  -8 -17    1.06    1.52 
  -3  -8 -17    1.93    1.63 
  -2  -8 -17    1.24    1.48 
  -6  -7 -17    1.32    1.42 
  -5  -7 -17    0.85    1.35 
  -4  -7 -17   -0.22    1.21 
  -3  -7 -17    2.75    1.50 
  -2  -7 -17   -0.44    1.37 
  -1  -7 -17    1.93    1.65 
  -7  -6 -17    1.42    1.30 
  -6  -6 -17    1.44    1.26 
  -5  -6 -17    0.01    1.23 
  -4  -6 -17    0.26    1.38 
  -3  -6 -17    5.52    1.59 
  -8  -5 -17    2.92    1.41 
  -7  -5 -17    0.11    1.10 
  -6  -5 -17   -0.76    1.14 
  -5  -5 -17   -0.01    1.28 
   0  -5 -17    0.20    1.13 
   1  -5 -17    7.06    1.51 
  -9  -4 -17    2.96    1.31 
  -8  -4 -17   -0.24    1.11 
  -2  -4 -17    4.85    1.09 
  -1  -4 -17    2.22    0.98 
   0  -4 -17    1.20    0.98 
   1  -4 -17   39.81    2.48 
   2  -4 -17    6.32    1.35 
  -4  -3 -17    0.41    0.86 
  -3  -3 -17    2.71    1.01 
  -2  -3 -17    0.48    0.78 
  -1  -3 -17    3.75    1.09 
   0  -3 -17    0.50    0.81 
   1  -3 -17    1.17    0.87 
   2  -3 -17    0.05    0.91 
   3  -3 -17    5.62    1.29 
   4  -3 -17    1.47    1.13 
  -6  -2 -17   13.18    1.49 
  -5  -2 -17    0.65    0.91 
  -4  -2 -17    0.42    0.88 
  -3  -2 -17    1.95    0.84 
  -2  -2 -17   23.43    1.92 
  -1  -2 -17    5.97    1.08 
   0  -2 -17    8.09    1.28 
   1  -2 -17    0.02    0.80 
   2  -2 -17    2.22    0.98 
   3  -2 -17    7.53    1.31 
   4  -2 -17   44.41    2.57 
   5  -2 -17   -0.08    0.97 
  -8  -1 -17    2.09    1.07 
  -7  -1 -17    1.34    1.03 
  -6  -1 -17    1.52    1.03 
  -5  -1 -17    0.49    0.82 
  -4  -1 -17    3.79    1.04 
  -3  -1 -17    0.62    0.77 
  -2  -1 -17    2.72    0.87 
  -1  -1 -17    3.38    1.02 
   0  -1 -17   -0.03    0.79 
   1  -1 -17    4.36    1.09 
   2  -1 -17  126.21    3.95 
   3  -1 -17   14.06    1.50 
   4  -1 -17    1.41    1.00 
   5  -1 -17    7.77    1.36 
   6  -1 -17   20.44    1.91 
 -10   0 -17    1.38    1.47 
  -9   0 -17   11.44    1.77 
  -8   0 -17   -0.12    1.00 
  -7   0 -17    0.60    0.99 
  -6   0 -17   -0.14    0.82 
  -5   0 -17    4.14    1.06 
  -4   0 -17   -0.11    0.75 
  -3   0 -17   34.92    2.21 
  -2   0 -17   -0.03    0.71 
  -1   0 -17   73.61    3.09 
   0   0 -17    0.40    0.83 
   1   0 -17    9.16    1.27 
   2   0 -17    0.63    0.82 
   3   0 -17    8.97    1.29 
   4   0 -17    0.14    0.80 
   5   0 -17    4.24    1.11 
   6   0 -17   -0.93    0.86 
 -10   1 -17    1.61    1.42 
  -9   1 -17    1.52    1.34 
  -8   1 -17    1.71    1.15 
  -7   1 -17    1.58    1.20 
  -5   1 -17    0.33    0.87 
  -4   1 -17    4.33    1.04 
  -3   1 -17    0.11    0.80 
  -2   1 -17    2.79    0.94 
  -1   1 -17    2.00    0.84 
   0   1 -17    0.25    0.77 
   1   1 -17    5.27    1.16 
   2   1 -17  122.93    3.86 
   3   1 -17   15.88    1.60 
   4   1 -17    2.78    0.97 
   5   1 -17    9.14    1.30 
   6   1 -17   20.94    1.81 
   7   1 -17    4.87    1.21 
  -9   2 -17    2.91    1.46 
  -8   2 -17    1.83    1.22 
  -7   2 -17    0.44    1.01 
  -6   2 -17   14.13    1.75 
  -5   2 -17    0.39    0.94 
  -4   2 -17   -0.33    0.80 
  -3   2 -17    2.26    0.93 
  -2   2 -17   19.65    1.77 
  -1   2 -17    6.16    1.17 
   0   2 -17    7.23    1.21 
   1   2 -17   -0.06    0.76 
   2   2 -17    2.62    0.97 
   3   2 -17    8.04    1.21 
   4   2 -17   42.71    2.38 
   5   2 -17    0.30    0.81 
   6   2 -17    2.76    0.96 
   7   2 -17    2.39    1.06 
  -8   3 -17    1.42    1.28 
  -7   3 -17    2.44    1.29 
  -6   3 -17    0.86    1.09 
  -5   3 -17    0.58    1.02 
  -4   3 -17    0.12    0.95 
  -3   3 -17    2.59    1.03 
  -2   3 -17    0.48    0.80 
  -1   3 -17    3.01    0.99 
   0   3 -17    0.36    0.74 
   1   3 -17   -0.61    0.74 
   2   3 -17   -0.04    0.73 
   3   3 -17    4.36    1.03 
   4   3 -17    2.81    0.93 
   5   3 -17    6.32    1.13 
   6   3 -17    2.77    1.00 
   7   3 -17    8.38    1.35 
   8   3 -17    4.52    1.23 
  -8   4 -17    0.06    1.24 
  -7   4 -17    1.01    1.11 
  -6   4 -17   -0.40    1.09 
  -5   4 -17    0.21    0.99 
  -4   4 -17    3.00    1.18 
  -3   4 -17    0.25    0.85 
  -2   4 -17    5.22    1.16 
  -1   4 -17    2.09    0.94 
   0   4 -17    0.72    0.85 
   1   4 -17   38.71    2.29 
   2   4 -17    6.20    1.14 
   3   4 -17    3.37    1.05 
   4   4 -17    1.06    0.79 
   5   4 -17    7.00    1.19 
   6   4 -17    0.00    0.77 
   7   4 -17    4.89    1.14 
   8   4 -17    6.91    1.30 
  -7   5 -17    0.35    1.22 
  -6   5 -17   -0.84    0.87 
  -5   5 -17    0.33    1.03 
  -4   5 -17    3.01    1.15 
  -3   5 -17    1.99    1.07 
  -2   5 -17    0.43    0.90 
  -1   5 -17   -0.10    0.79 
   0   5 -17   -0.70    0.71 
   1   5 -17    6.91    1.21 
   2   5 -17    0.03    0.86 
   3   5 -17    2.56    1.04 
   4   5 -17   -0.33    0.72 
   5   5 -17   -0.39    0.87 
   6   5 -17    0.31    0.85 
   7   5 -17    3.21    1.07 
   8   5 -17    0.96    1.11 
  -6   6 -17    1.45    1.13 
  -5   6 -17    0.31    1.08 
  -4   6 -17   -0.06    0.98 
  -3   6 -17    5.03    1.40 
  -2   6 -17    2.05    1.14 
  -1   6 -17    5.87    1.24 
   0   6 -17    0.72    0.94 
   1   6 -17    4.14    1.11 
   2   6 -17    9.71    1.46 
   3   6 -17    2.71    0.99 
   4   6 -17    0.74    0.90 
   5   6 -17    4.48    1.16 
   6   6 -17    3.36    1.16 
  -5   7 -17    0.29    1.22 
  -4   7 -17    0.18    1.11 
  -3   7 -17    2.63    1.24 
  -2   7 -17    0.67    1.01 
  -1   7 -17    2.75    1.10 
   0   7 -17    3.40    1.15 
   1   7 -17    3.66    1.14 
   2   7 -17    0.21    0.98 
   3   7 -17    1.54    1.03 
  -3   8 -17    2.60    1.29 
  -2   8 -17    2.73    1.21 
  -1   8 -17    1.24    1.04 
   0   8 -17    0.31    1.01 
   1   8 -17   -0.48    1.04 
  -2   9 -17   -0.70    1.14 
  -1   9 -17   -0.45    0.97 
  -3  -9 -16    4.33    1.78 
  -5  -8 -16    3.00    1.47 
  -4  -8 -16   -0.29    1.37 
  -3  -8 -16    2.90    1.59 
  -2  -8 -16   -0.26    1.19 
  -7  -7 -16    4.33    1.56 
  -6  -7 -16    1.97    1.50 
  -5  -7 -16    3.03    1.48 
  -4  -7 -16   -0.57    1.25 
  -3  -7 -16    0.07    1.29 
  -2  -7 -16    3.54    1.52 
  -1  -7 -16    0.04    1.20 
  -8  -6 -16    0.50    1.06 
  -7  -6 -16   -1.26    1.13 
  -6  -6 -16    2.95    1.36 
  -5  -6 -16   15.90    2.02 
  -4  -6 -16    1.86    1.40 
  -3  -6 -16    2.97    1.40 
  -2  -6 -16    0.37    1.20 
  -1  -6 -16    1.99    1.22 
  -9  -5 -16    2.70    1.29 
  -8  -5 -16   -0.15    1.00 
  -7  -5 -16    0.60    1.12 
  -6  -5 -16   -0.11    0.98 
  -5  -5 -16    1.85    1.19 
  -4  -5 -16    0.01    1.01 
  -3  -5 -16    5.59    1.46 
  -2  -5 -16    1.54    1.06 
  -1  -5 -16   11.98    1.09 
   0  -5 -16    1.07    1.08 
   1  -5 -16   -0.46    0.95 
  -9  -4 -16    0.02    0.94 
  -8  -4 -16    1.67    1.07 
  -7  -4 -16    0.74    1.08 
  -6  -4 -16    1.98    1.06 
  -5  -4 -16    0.23    0.97 
  -4  -4 -16    7.64    1.35 
  -3  -4 -16    5.48    0.83 
  -2  -4 -16    1.42    0.82 
  -1  -4 -16    0.91    0.84 
   0  -4 -16   -0.47    0.81 
   1  -4 -16    0.34    0.91 
   2  -4 -16   29.14    2.16 
 -10  -3 -16   -0.11    0.83 
  -9  -3 -16    0.55    0.83 
  -8  -3 -16    4.41    1.12 
  -7  -3 -16    2.92    1.06 
  -6  -3 -16    0.75    0.94 
  -5  -3 -16    4.60    0.84 
  -4  -3 -16   -0.08    0.74 
  -3  -3 -16    3.83    1.08 
  -2  -3 -16    6.43    1.08 
  -1  -3 -16   25.83    1.88 
   0  -3 -16    2.31    0.92 
   1  -3 -16    1.56    0.89 
   2  -3 -16    7.94    1.30 
   3  -3 -16   -0.45    1.02 
   4  -3 -16    6.14    1.37 
 -10  -2 -16    0.68    0.83 
  -9  -2 -16    2.61    0.98 
  -8  -2 -16    2.92    1.01 
  -7  -2 -16    6.53    1.27 
  -6  -2 -16    8.71    1.27 
  -5  -2 -16   -0.04    0.77 
  -4  -2 -16    0.86    0.77 
  -3  -2 -16    1.10    0.77 
  -2  -2 -16    3.15    1.04 
  -1  -2 -16    3.86    0.97 
   0  -2 -16    6.47    1.13 
   1  -2 -16   85.81    3.17 
   2  -2 -16    0.79    0.91 
   3  -2 -16   -0.61    0.81 
   4  -2 -16   37.51    2.31 
   5  -2 -16    4.90    1.24 
  -9  -1 -16    6.83    1.42 
  -8  -1 -16    1.42    1.09 
  -7  -1 -16    0.02    0.82 
  -6  -1 -16    1.46    0.83 
  -5  -1 -16    0.44    0.83 
  -4  -1 -16    1.25    0.86 
  -3  -1 -16   22.23    1.68 
  -2  -1 -16   -0.19    0.74 
  -1  -1 -16   12.09    1.37 
   0  -1 -16   15.04    1.45 
   1  -1 -16   29.40    1.89 
   2  -1 -16    4.35    0.99 
   3  -1 -16   21.80    1.72 
   4  -1 -16    6.56    1.20 
   5  -1 -16   14.93    1.62 
   6  -1 -16    0.47    1.03 
 -10   0 -16    6.98    1.67 
  -9   0 -16   -0.14    1.01 
  -8   0 -16    1.23    1.04 
  -7   0 -16    0.04    0.87 
  -6   0 -16   10.03    1.38 
  -5   0 -16   -0.28    0.65 
  -4   0 -16   13.86    1.46 
  -3   0 -16   -0.16    0.72 
  -2   0 -16   21.05    1.65 
  -1   0 -16   -0.02    0.74 
   0   0 -16   54.20    2.51 
   1   0 -16   -0.19    0.54 
   2   0 -16   -0.25    0.68 
   3   0 -16    0.16    0.75 
   4   0 -16   24.01    1.78 
   5   0 -16    0.10    0.82 
   6   0 -16   17.23    1.70 
 -10   1 -16    0.64    1.21 
  -9   1 -16    6.53    1.52 
  -8   1 -16    1.17    1.09 
  -7   1 -16    0.72    0.92 
  -6   1 -16    0.62    0.87 
  -5   1 -16    0.26    0.78 
  -4   1 -16    1.33    0.87 
  -3   1 -16   21.57    1.72 
  -2   1 -16    0.20    0.72 
  -1   1 -16   11.54    1.30 
   0   1 -16   17.48    1.62 
   1   1 -16   30.67    2.00 
   2   1 -16    3.21    0.90 
   3   1 -16   24.95    1.82 
   4   1 -16    6.48    1.13 
   5   1 -16   14.07    1.44 
   6   1 -16    0.54    0.93 
   7   1 -16   -0.07    0.92 
 -10   2 -16    0.02    1.18 
  -9   2 -16    2.25    1.20 
  -8   2 -16    3.68    1.21 
  -7   2 -16    8.44    1.52 
  -6   2 -16   10.87    1.56 
  -5   2 -16    0.42    0.82 
  -4   2 -16    0.37    0.87 
  -3   2 -16    1.28    0.88 
  -2   2 -16    2.82    0.91 
  -1   2 -16    3.51    0.99 
   0   2 -16    6.22    1.10 
   1   2 -16   96.06    3.51 
   2   2 -16    1.02    0.84 
   3   2 -16   -0.04    0.69 
   4   2 -16   38.68    2.21 
   5   2 -16    4.67    1.03 
   6   2 -16   27.85    1.93 
   7   2 -16   54.92    2.67 
  -9   3 -16   -0.23    1.28 
  -8   3 -16    4.45    1.35 
  -7   3 -16    3.20    1.19 
  -6   3 -16    1.60    1.02 
  -5   3 -16    4.38    1.20 
  -4   3 -16    0.40    0.85 
  -3   3 -16    3.22    1.03 
  -2   3 -16    6.41    1.21 
  -1   3 -16   22.75    1.78 
   0   3 -16    1.77    0.87 
   1   3 -16    1.70    0.85 
   2   3 -16    8.68    1.19 
   3   3 -16   -0.17    0.71 
   4   3 -16    6.07    1.04 
   5   3 -16   16.29    1.52 
   6   3 -16   10.16    1.31 
   7   3 -16   12.62    1.46 
   8   3 -16   -0.78    0.92 
  -9   4 -16   -1.17    1.31 
  -8   4 -16    1.61    1.21 
  -7   4 -16    0.51    1.03 
  -6   4 -16    1.99    1.11 
  -5   4 -16   -0.03    0.92 
  -4   4 -16    7.96    1.40 
  -3   4 -16    5.32    1.24 
  -2   4 -16    1.91    0.90 
  -1   4 -16    1.14    0.80 
   0   4 -16   -0.17    0.76 
   1   4 -16    0.26    0.75 
   2   4 -16   33.58    2.16 
   3   4 -16   -0.12    0.74 
   4   4 -16   15.73    1.48 
   5   4 -16    2.15    0.90 
   6   4 -16    1.12    0.82 
   7   4 -16    3.33    1.06 
   8   4 -16    3.47    1.06 
  -8   5 -16   -0.37    1.22 
  -7   5 -16    0.26    1.13 
  -6   5 -16    0.10    0.92 
  -5   5 -16    2.00    1.09 
  -4   5 -16    0.26    0.96 
  -3   5 -16    4.75    1.22 
  -2   5 -16    1.71    0.97 
  -1   5 -16   11.46    1.46 
   0   5 -16    0.53    0.82 
   1   5 -16   -0.39    0.70 
   2   5 -16    0.36    0.82 
   3   5 -16   12.21    1.39 
   4   5 -16    3.75    0.94 
   5   5 -16    3.78    1.08 
   6   5 -16   -0.59    0.73 
   7   5 -16   -0.38    0.89 
   8   5 -16    6.37    1.25 
  -7   6 -16    1.53    1.31 
  -6   6 -16    4.49    1.39 
  -5   6 -16   16.90    1.93 
  -4   6 -16    0.41    1.03 
  -3   6 -16    3.28    1.20 
  -2   6 -16   -0.16    0.96 
  -1   6 -16    2.86    1.06 
   0   6 -16    0.69    0.85 
   1   6 -16   26.21    2.02 
   2   6 -16   15.51    1.58 
   3   6 -16    1.64    0.93 
   4   6 -16    5.29    1.09 
   5   6 -16    5.45    1.11 
  -6   7 -16    1.17    1.20 
  -5   7 -16    2.37    1.15 
  -4   7 -16    0.06    1.01 
  -3   7 -16   -0.07    0.94 
  -2   7 -16    3.42    1.26 
  -1   7 -16    0.42    0.94 
   0   7 -16   17.25    1.71 
   1   7 -16   -0.43    0.84 
   2   7 -16    0.98    0.98 
   3   7 -16    1.88    1.06 
  -5   8 -16    3.49    1.37 
  -4   8 -16    0.51    1.12 
  -3   8 -16    3.57    1.33 
  -2   8 -16    0.98    1.18 
  -1   8 -16    2.11    1.12 
   0   8 -16    8.44    1.39 
   1   8 -16    3.53    1.18 
  -3   9 -16    5.60    1.45 
  -2   9 -16    0.35    1.12 
  -1   9 -16    4.87    1.45 
  -4  -9 -15    3.49    1.75 
  -3  -9 -15    0.77    1.46 
  -6  -8 -15    1.35    1.40 
  -5  -8 -15    0.10    1.22 
  -4  -8 -15    0.25    1.28 
  -3  -8 -15    0.05    1.32 
  -2  -8 -15    6.78    1.72 
  -7  -7 -15    0.75    1.21 
  -6  -7 -15    0.00    1.14 
  -5  -7 -15    3.73    1.54 
  -4  -7 -15    4.70    1.51 
  -3  -7 -15    0.80    1.20 
  -2  -7 -15    0.38    1.21 
  -1  -7 -15    0.12    1.11 
  -9  -6 -15    0.26    1.18 
  -8  -6 -15   -0.14    1.00 
  -7  -6 -15    1.60    1.21 
  -6  -6 -15   19.00    2.13 
  -5  -6 -15    1.37    1.17 
  -4  -6 -15    3.08    1.29 
  -3  -6 -15    1.06    1.12 
  -2  -6 -15    0.08    0.98 
  -1  -6 -15    0.78    1.12 
   0  -6 -15    3.60    1.37 
  -9  -5 -15   -0.37    0.94 
  -8  -5 -15   -0.50    1.01 
  -7  -5 -15    0.21    1.07 
  -6  -5 -15    7.30    1.47 
  -5  -5 -15    9.17    1.50 
  -4  -5 -15    0.04    0.97 
  -3  -5 -15   -0.39    1.05 
  -2  -5 -15    8.72    1.45 
  -1  -5 -15    0.87    0.73 
   0  -5 -15    7.32    0.94 
   1  -5 -15   20.32    1.85 
 -10  -4 -15    1.13    1.00 
  -9  -4 -15    5.56    1.27 
  -7  -4 -15   -0.02    0.85 
  -6  -4 -15    0.19    0.94 
  -5  -4 -15   -0.11    0.96 
  -4  -4 -15    6.70    1.31 
  -3  -4 -15    8.68    0.92 
  -2  -4 -15   -0.02    0.56 
  -1  -4 -15   -0.15    0.55 
   0  -4 -15    7.13    0.88 
   1  -4 -15   -0.53    0.84 
   2  -4 -15   13.89    1.56 
 -11  -3 -15    0.95    0.94 
 -10  -3 -15    0.63    0.88 
  -9  -3 -15    4.22    1.10 
  -8  -3 -15    0.31    0.76 
  -7  -3 -15   -0.03    0.79 
  -6  -3 -15    0.38    0.82 
  -5  -3 -15    1.65    0.62 
  -4  -3 -15   10.65    0.93 
  -3  -3 -15    7.60    0.86 
  -2  -3 -15    0.55    0.58 
  -1  -3 -15   14.71    1.43 
   0  -3 -15    0.29    0.78 
   1  -3 -15   22.01    1.68 
   2  -3 -15    0.30    0.95 
   3  -3 -15   13.35    1.55 
 -11  -2 -15    0.25    0.84 
 -10  -2 -15    3.27    1.00 
  -9  -2 -15    0.98    0.83 
  -8  -2 -15    1.31    0.79 
  -7  -2 -15    0.43    0.54 
  -6  -2 -15    7.40    0.82 
  -5  -2 -15    2.49    0.62 
  -4  -2 -15    2.14    0.59 
  -3  -2 -15    4.56    1.03 
  -2  -2 -15    8.12    1.21 
  -1  -2 -15   -0.39    0.73 
   0  -2 -15   17.41    1.47 
   1  -2 -15   25.15    1.74 
   2  -2 -15   14.78    1.42 
   3  -2 -15    8.41    1.21 
   4  -2 -15    1.65    0.94 
 -11  -1 -15   -0.03    0.87 
 -10  -1 -15    3.32    1.02 
  -9  -1 -15    8.63    0.92 
  -8  -1 -15    1.61    0.64 
  -7  -1 -15    0.51    0.53 
  -6  -1 -15    5.78    0.71 
  -5  -1 -15    7.09    1.09 
  -4  -1 -15    7.51    1.18 
  -3  -1 -15   20.57    1.60 
  -2  -1 -15   30.65    1.95 
  -1  -1 -15    5.08    0.93 
   0  -1 -15    0.45    0.73 
   1  -1 -15    5.48    0.95 
   2  -1 -15   28.70    1.82 
   3  -1 -15    1.14    0.80 
   4  -1 -15   16.15    1.51 
   5  -1 -15   15.18    1.58 
 -11   0 -15    0.42    0.68 
 -10   0 -15   -0.18    0.62 
  -9   0 -15    0.57    0.58 
  -8   0 -15    0.11    0.87 
  -7   0 -15   15.23    1.61 
  -6   0 -15   -0.11    0.74 
  -5   0 -15    2.40    0.88 
  -4   0 -15   -0.07    0.68 
  -3   0 -15   65.60    2.74 
  -2   0 -15    0.07    0.66 
  -1   0 -15   -0.32    0.61 
   0   0 -15   -0.05    0.59 
   1   0 -15   29.19    1.87 
   2   0 -15   -0.36    0.58 
   3   0 -15   18.21    1.49 
   4   0 -15   -0.01    0.70 
   5   0 -15  106.01    3.47 
   6   0 -15    0.50    0.90 
 -11   1 -15    0.38    1.25 
 -10   1 -15    4.04    1.38 
  -9   1 -15    7.79    1.46 
  -8   1 -15    1.50    0.99 
  -7   1 -15    0.20    0.90 
  -6   1 -15    7.09    1.26 
  -5   1 -15    7.41    1.21 
  -4   1 -15    7.58    1.16 
  -3   1 -15   17.54    1.57 
  -2   1 -15   25.86    1.76 
  -1   1 -15    4.16    0.94 
   0   1 -15    0.45    0.66 
   1   1 -15    5.05    0.93 
   2   1 -15   31.90    1.92 
   3   1 -15    1.69    0.80 
   4   1 -15   16.44    1.44 
   5   1 -15   13.35    1.40 
   6   1 -15   -0.12    0.80 
   7   1 -15   42.66    2.39 
 -11   2 -15    0.13    1.32 
 -10   2 -15    4.59    1.59 
  -9   2 -15    1.58    1.16 
  -8   2 -15    2.23    1.16 
  -7   2 -15    0.45    0.83 
  -6   2 -15    6.08    1.19 
  -5   2 -15    2.53    0.97 
  -4   2 -15    1.92    0.87 
  -3   2 -15    4.20    1.02 
  -2   2 -15    7.34    1.11 
  -1   2 -15   -0.13    0.69 
   0   2 -15   17.44    1.50 
   1   2 -15   25.93    1.85 
   2   2 -15   15.86    1.43 
   3   2 -15    8.45    1.11 
   4   2 -15    1.78    0.79 
   5   2 -15    0.97    0.76 
   6   2 -15   63.61    2.67 
   7   2 -15    1.31    0.91 
 -10   3 -15    1.59    1.27 
  -9   3 -15    6.01    1.45 
  -8   3 -15    1.20    1.02 
  -7   3 -15   -0.07    0.92 
  -6   3 -15   -0.10    0.82 
  -5   3 -15    1.71    0.94 
  -4   3 -15   10.25    1.42 
  -3   3 -15    5.60    1.16 
  -2   3 -15    1.17    0.84 
  -1   3 -15   12.90    1.36 
   0   3 -15   -0.44    0.66 
   1   3 -15   20.95    1.60 
   2   3 -15    0.68    0.73 
   3   3 -15   13.45    1.34 
   4   3 -15   10.32    1.17 
   5   3 -15   21.33    1.61 
   6   3 -15    1.38    0.90 
   7   3 -15   12.23    1.40 
   8   3 -15    0.28    0.92 
  -9   4 -15    7.30    1.67 
  -8   4 -15    1.01    1.17 
  -7   4 -15    1.36    1.19 
  -6   4 -15    0.24    0.98 
  -5   4 -15    0.44    0.85 
  -4   4 -15    6.99    1.28 
  -3   4 -15    6.78    1.25 
  -2   4 -15   -0.18    0.80 
  -1   4 -15    0.40    0.80 
   0   4 -15    6.67    1.11 
   1   4 -15    0.45    0.70 
   2   4 -15   15.06    1.49 
   3   4 -15   33.01    1.99 
   4   4 -15   47.33    2.28 
   5   4 -15    9.55    1.30 
   6   4 -15    0.06    0.71 
   7   4 -15    1.85    0.88 
   8   4 -15    3.05    1.03 
  -9   5 -15    0.33    1.28 
  -8   5 -15    0.02    1.14 
  -7   5 -15   -0.82    0.88 
  -6   5 -15    6.68    1.43 
  -5   5 -15    8.68    1.49 
  -4   5 -15    0.47    0.86 
  -3   5 -15   -0.15    0.88 
  -2   5 -15    9.20    1.39 
  -1   5 -15    0.28    0.81 
   0   5 -15    5.78    1.07 
   1   5 -15   19.74    1.69 
   2   5 -15    0.71    0.75 
   3   5 -15    2.46    0.92 
   4   5 -15    2.55    0.92 
   5   5 -15   -0.48    0.71 
   6   5 -15   -0.04    0.73 
   7   5 -15   11.21    1.32 
  -8   6 -15   -0.09    1.20 
  -7   6 -15    1.47    1.14 
  -6   6 -15   16.72    1.91 
  -5   6 -15    1.17    1.11 
  -4   6 -15    3.42    1.12 
  -3   6 -15    0.67    0.99 
  -2   6 -15   -0.37    0.90 
  -1   6 -15    0.67    0.97 
   0   6 -15    3.35    1.01 
   1   6 -15    0.36    0.80 
   2   6 -15    6.40    1.10 
   3   6 -15    1.09    0.81 
   4   6 -15    0.87    0.82 
   5   6 -15   27.08    1.83 
  -7   7 -15    0.06    1.06 
  -6   7 -15    0.73    1.08 
  -5   7 -15    3.54    1.30 
  -4   7 -15    4.03    1.23 
  -3   7 -15    1.16    0.99 
  -2   7 -15    0.69    0.93 
  -1   7 -15    0.72    0.91 
   0   7 -15    1.04    0.89 
   1   7 -15    1.28    0.96 
   2   7 -15    0.41    0.80 
   3   7 -15   -0.21    0.90 
  -6   8 -15    1.73    1.41 
  -5   8 -15    0.34    1.13 
  -4   8 -15    0.44    1.02 
  -3   8 -15   -0.73    0.92 
  -1   8 -15    4.99    1.26 
   0   8 -15    4.14    1.16 
   1   8 -15    1.98    1.08 
  -4   9 -15    3.71    1.29 
  -3   9 -15    1.28    1.28 
  -2   9 -15   -0.81    0.93 
  -5  -9 -14    5.19    1.75 
  -4  -9 -14   -1.27    1.29 
  -3  -9 -14   -0.92    1.29 
  -7  -8 -14    1.53    1.34 
  -6  -8 -14   -1.33    1.11 
  -5  -8 -14   -1.16    1.04 
  -4  -8 -14    0.09    1.17 
  -3  -8 -14    1.18    1.40 
  -2  -8 -14    0.52    1.20 
  -8  -7 -14    1.38    1.26 
  -7  -7 -14   10.22    1.78 
  -6  -7 -14   17.52    2.10 
  -5  -7 -14    7.08    1.67 
  -4  -7 -14   14.76    1.97 
  -3  -7 -14    0.87    1.12 
  -2  -7 -14   -0.08    1.10 
  -1  -7 -14   -0.89    1.01 
  -9  -6 -14    0.89    1.08 
  -8  -6 -14    0.30    1.08 
  -7  -6 -14   -0.37    0.93 
  -6  -6 -14    0.37    1.08 
  -5  -6 -14    0.14    1.04 
  -4  -6 -14    8.04    1.51 
  -3  -6 -14   25.62    2.31 
  -2  -6 -14    0.23    0.95 
  -1  -6 -14   21.75    2.18 
   0  -6 -14    3.73    1.19 
 -10  -5 -14    0.08    0.94 
  -9  -5 -14    1.85    1.09 
  -8  -5 -14    2.22    1.16 
  -7  -5 -14    6.07    1.32 
  -6  -5 -14   -0.22    0.89 
  -5  -5 -14   -0.44    0.84 
  -4  -5 -14    2.93    1.15 
  -3  -5 -14    1.01    0.95 
  -2  -5 -14    1.32    1.09 
  -1  -5 -14   14.50    1.09 
   0  -5 -14   35.20    1.56 
 -11  -4 -14    0.80    0.90 
 -10  -4 -14    6.41    1.24 
  -9  -4 -14   -0.13    0.76 
  -7  -4 -14    0.73    0.84 
  -6  -4 -14    0.04    0.81 
  -5  -4 -14    1.00    0.89 
  -4  -4 -14   24.38    1.98 
  -3  -4 -14    0.34    0.57 
  -2  -4 -14    3.13    0.68 
  -1  -4 -14    0.40    0.59 
   0  -4 -14    7.93    0.85 
   1  -4 -14    4.48    0.72 
   2  -4 -14   66.13    2.81 
 -11  -3 -14    5.63    1.14 
 -10  -3 -14    3.61    1.00 
  -9  -3 -14    0.45    0.78 
  -8  -3 -14    0.70    0.80 
  -7  -3 -14    1.84    0.84 
  -6  -3 -14   12.46    1.36 
  -5  -3 -14    7.47    0.76 
  -4  -3 -14   13.99    0.99 
  -3  -3 -14   17.56    1.09 
  -2  -3 -14    6.97    0.76 
  -1  -3 -14    0.22    0.43 
   0  -3 -14   -0.03    0.45 
   1  -3 -14   44.22    1.49 
   2  -3 -14   13.63    1.41 
   3  -3 -14   32.45    2.05 
 -12  -2 -14    0.59    0.88 
 -11  -2 -14    5.26    1.20 
 -10  -2 -14    1.10    0.84 
  -9  -2 -14    0.53    0.73 
  -8  -2 -14    6.34    1.05 
  -7  -2 -14    0.85    0.52 
  -6  -2 -14   10.96    0.85 
  -5  -2 -14   15.65    0.97 
  -4  -2 -14    9.64    0.80 
  -3  -2 -14   85.08    3.88 
  -2  -2 -14   -0.43    0.43 
  -1  -2 -14   20.55    1.03 
   0  -2 -14   -0.09    0.59 
   1  -2 -14   31.29    1.83 
   2  -2 -14   87.65    2.97 
   3  -2 -14    0.69    0.82 
   4  -2 -14    4.29    1.04 
 -12  -1 -14    1.63    0.95 
 -11  -1 -14    0.60    0.78 
 -10  -1 -14    2.11    0.95 
  -9  -1 -14    3.36    0.71 
  -8  -1 -14    0.37    0.55 
  -7  -1 -14    6.28    0.76 
  -6  -1 -14    4.23    0.66 
  -5  -1 -14    1.01    0.52 
  -4  -1 -14    6.42    0.67 
  -3  -1 -14    0.86    0.43 
  -2  -1 -14    9.95    1.09 
  -1  -1 -14    8.68    1.08 
   0  -1 -14   -0.17    0.56 
   1  -1 -14    5.65    0.91 
   2  -1 -14   15.65    1.32 
   3  -1 -14    0.90    0.70 
   4  -1 -14    0.05    0.70 
   5  -1 -14   28.50    1.90 
 -12   0 -14    0.82    0.88 
 -11   0 -14    0.08    0.67 
 -10   0 -14   -0.27    0.57 
  -9   0 -14    0.33    0.62 
  -8   0 -14   11.68    0.93 
  -7   0 -14    0.30    0.50 
  -6   0 -14    2.49    0.57 
  -5   0 -14    0.18    0.46 
  -4   0 -14   18.19    1.56 
  -3   0 -14   -0.02    0.57 
  -2   0 -14   18.22    1.44 
  -1   0 -14   -0.28    0.52 
   0   0 -14    0.02    0.58 
   1   0 -14   -0.21    0.58 
   2   0 -14   30.55    1.73 
   3   0 -14   -0.12    0.58 
   4   0 -14    1.30    0.72 
   5   0 -14    0.37    0.79 
   6   0 -14   34.13    2.07 
 -12   1 -14    2.27    0.84 
 -11   1 -14    0.98    0.74 
 -10   1 -14    3.53    0.82 
  -9   1 -14    3.65    0.77 
  -8   1 -14    0.57    0.57 
  -7   1 -14    6.25    0.76 
  -6   1 -14    3.64    0.96 
  -5   1 -14    1.60    0.85 
  -4   1 -14    7.25    1.14 
  -3   1 -14    1.00    0.74 
  -2   1 -14    9.84    1.12 
  -1   1 -14    9.34    1.11 
   0   1 -14    0.14    0.54 
   1   1 -14    5.45    0.94 
   2   1 -14   16.32    1.39 
   3   1 -14    1.18    0.68 
   4   1 -14    0.02    0.63 
   5   1 -14   29.38    1.82 
   6   1 -14   22.25    1.67 
   7   1 -14   21.93    1.77 
 -12   2 -14    1.51    0.89 
 -11   2 -14    6.28    0.97 
 -10   2 -14    0.08    0.68 
  -9   2 -14    0.76    1.05 
  -8   2 -14    5.59    1.21 
  -7   2 -14    1.43    0.97 
  -6   2 -14   11.34    1.46 
  -5   2 -14   15.63    1.52 
  -4   2 -14   10.26    1.35 
  -3   2 -14   87.15    3.24 
  -2   2 -14    0.05    0.67 
  -1   2 -14   19.50    1.49 
   0   2 -14   -0.23    0.61 
   1   2 -14   33.85    1.91 
   2   2 -14   87.72    2.91 
   3   2 -14   -0.33    0.59 
   4   2 -14    4.04    0.87 
   5   2 -14    1.45    0.75 
   6   2 -14    0.04    0.72 
   7   2 -14    6.13    1.13 
 -11   3 -14    7.69    2.00 
 -10   3 -14    5.05    1.52 
  -9   3 -14    0.36    1.08 
  -8   3 -14    0.46    1.03 
  -7   3 -14    1.56    0.96 
  -6   3 -14   14.31    1.67 
  -5   3 -14    8.39    1.32 
  -4   3 -14   10.85    1.38 
  -3   3 -14   18.69    1.70 
  -2   3 -14    7.82    1.20 
  -1   3 -14    0.33    0.72 
   0   3 -14    0.09    0.61 
   1   3 -14   45.70    2.18 
   2   3 -14   14.89    1.40 
   3   3 -14   33.32    1.93 
   4   3 -14    0.11    0.61 
   5   3 -14   21.67    1.55 
   6   3 -14    8.49    1.14 
   7   3 -14    1.92    0.91 
 -10   4 -14    9.30    1.93 
  -9   4 -14    0.54    1.12 
  -8   4 -14    3.80    1.36 
  -7   4 -14   -0.02    1.00 
  -6   4 -14    0.68    0.82 
  -5   4 -14    1.54    0.98 
  -4   4 -14   22.59    1.90 
  -3   4 -14    0.88    0.83 
  -2   4 -14    2.52    0.92 
  -1   4 -14    0.51    0.76 
   0   4 -14    7.26    1.07 
   1   4 -14    3.52    0.91 
   2   4 -14   65.49    2.58 
   3   4 -14    0.77    0.69 
   4   4 -14   42.62    2.10 
   5   4 -14    0.90    0.79 
   6   4 -14    0.58    0.72 
   7   4 -14    1.45    0.86 
   8   4 -14   50.42    2.43 
 -10   5 -14    1.52    1.51 
  -9   5 -14    2.30    1.39 
  -8   5 -14    3.44    1.37 
  -7   5 -14    7.59    1.53 
  -6   5 -14    0.43    0.96 
  -5   5 -14    0.20    0.89 
  -4   5 -14    3.59    1.13 
  -3   5 -14    0.78    0.82 
  -2   5 -14    0.46    0.86 
  -1   5 -14   13.34    1.53 
   0   5 -14   35.95    2.08 
   1   5 -14   62.53    2.64 
   2   5 -14    0.37    0.69 
   3   5 -14    7.99    1.12 
   4   5 -14    2.96    0.87 
   5   5 -14    0.95    0.79 
   6   5 -14   57.18    2.41 
   7   5 -14    9.64    1.19 
  -9   6 -14    1.95    1.30 
  -8   6 -14    0.46    1.14 
  -7   6 -14   -0.14    1.06 
  -6   6 -14    1.59    1.16 
  -5   6 -14   -0.20    0.87 
  -4   6 -14    9.80    1.53 
  -3   6 -14   24.32    1.96 
  -2   6 -14    1.09    0.96 
  -1   6 -14   18.26    1.70 
   0   6 -14    3.96    1.04 
   1   6 -14    3.12    0.91 
   2   6 -14   12.31    1.34 
   3   6 -14   13.98    1.45 
   4   6 -14   45.86    2.35 
   5   6 -14    2.27    0.81 
  -8   7 -14    1.62    1.31 
  -7   7 -14   10.68    1.78 
  -6   7 -14   19.83    2.18 
  -5   7 -14    4.70    1.25 
  -4   7 -14   14.60    1.81 
  -3   7 -14    0.58    0.91 
  -2   7 -14    0.17    0.88 
  -1   7 -14   -0.98    0.79 
   0   7 -14    0.55    0.83 
   1   7 -14    0.21    0.72 
   2   7 -14   -0.39    0.72 
   3   7 -14    5.30    1.10 
  -7   8 -14    1.42    1.34 
  -6   8 -14    0.46    1.24 
  -5   8 -14    0.27    1.01 
  -4   8 -14    0.33    1.05 
  -3   8 -14    1.47    1.01 
  -2   8 -14    0.35    1.03 
  -1   8 -14    1.03    1.05 
   0   8 -14   -0.01    0.86 
   1   8 -14    1.24    0.95 
  -5   9 -14    4.29    1.36 
  -4   9 -14   -0.06    1.07 
  -3   9 -14    0.13    1.00 
  -2   9 -14    3.21    1.26 
  -4  10 -14    4.14    1.38 
  -6  -9 -13    7.71    1.81 
  -5  -9 -13   -0.29    1.15 
  -4  -9 -13    0.82    1.40 
  -3  -9 -13    2.24    1.40 
  -2  -9 -13    9.97    2.05 
  -7  -8 -13    0.02    1.08 
  -6  -8 -13   -0.33    1.26 
  -5  -8 -13    0.02    1.23 
  -4  -8 -13   -0.13    1.09 
  -3  -8 -13    0.08    1.20 
  -2  -8 -13    0.39    1.23 
  -9  -7 -13    0.22    1.02 
  -8  -7 -13    0.11    1.06 
  -7  -7 -13   14.79    2.00 
  -6  -7 -13    0.02    1.04 
  -5  -7 -13    0.09    1.09 
  -4  -7 -13   19.07    2.18 
  -3  -7 -13    1.90    1.16 
  -2  -7 -13   17.03    2.08 
  -1  -7 -13    0.50    1.09 
 -10  -6 -13    2.74    1.31 
  -8  -6 -13    0.74    1.06 
  -7  -6 -13    0.24    1.05 
  -6  -6 -13    1.90    1.13 
  -5  -6 -13   -0.06    0.98 
  -4  -6 -13   30.72    2.36 
  -3  -6 -13   19.56    2.01 
  -2  -6 -13   10.93    1.59 
  -1  -6 -13   25.02    2.20 
   0  -6 -13   33.04    2.33 
 -10  -5 -13    2.57    1.08 
  -9  -5 -13    3.07    1.15 
  -8  -5 -13    0.45    0.86 
  -7  -5 -13    1.99    1.01 
  -6  -5 -13   15.04    1.72 
  -5  -5 -13    1.00    0.97 
  -4  -5 -13   13.37    1.57 
  -3  -5 -13    0.00    0.83 
  -2  -5 -13   17.82    1.75 
  -1  -5 -13    0.68    0.57 
   0  -5 -13   21.36    1.24 
 -11  -4 -13    0.99    0.91 
 -10  -4 -13   -0.28    0.74 
  -9  -4 -13    6.95    1.18 
  -8  -4 -13    0.17    0.83 
  -7  -4 -13    3.93    1.02 
  -6  -4 -13    2.18    0.94 
  -5  -4 -13   -0.04    0.78 
  -4  -4 -13    2.26    0.92 
  -3  -4 -13    0.07    0.52 
  -2  -4 -13   29.82    1.31 
  -1  -4 -13   21.78    1.15 
   0  -4 -13    2.14    0.58 
   1  -4 -13    1.97    0.58 
   2  -4 -13   14.83    1.49 
 -12  -3 -13    1.91    0.89 
 -11  -3 -13    3.20    0.99 
 -10  -3 -13    1.68    0.85 
  -9  -3 -13    4.07    0.95 
  -8  -3 -13    0.25    0.67 
  -7  -3 -13   11.33    1.31 
  -6  -3 -13    1.49    0.54 
  -5  -3 -13   -0.02    0.46 
  -4  -3 -13    1.57    0.57 
  -3  -3 -13   27.36    1.20 
  -2  -3 -13    4.28    0.63 
  -1  -3 -13    6.28    0.65 
   0  -3 -13   24.79    1.11 
   1  -3 -13    4.12    0.63 
   2  -3 -13   14.61    1.39 
   3  -3 -13   14.53    1.44 
 -12  -2 -13    1.59    0.96 
 -11  -2 -13   -0.22    0.77 
 -10  -2 -13    3.38    0.98 
  -9  -2 -13    0.77    0.73 
  -8  -2 -13    1.33    0.54 
  -7  -2 -13    0.13    0.49 
  -6  -2 -13    1.93    0.51 
  -5  -2 -13    8.26    0.73 
  -4  -2 -13   50.92    1.52 
  -3  -2 -13   13.82    0.84 
  -2  -2 -13    0.21    0.45 
  -1  -2 -13    4.00    0.57 
   0  -2 -13    5.49    0.58 
   1  -2 -13   17.61    0.93 
   2  -2 -13   12.29    1.20 
   3  -2 -13   38.71    2.04 
   4  -2 -13    5.11    1.07 
 -12  -1 -13    2.08    0.94 
 -11  -1 -13    1.95    0.84 
 -10  -1 -13    1.19    0.73 
  -9  -1 -13    0.10    0.52 
  -8  -1 -13    0.05    0.47 
  -7  -1 -13    0.45    0.48 
  -6  -1 -13    2.21    0.55 
  -5  -1 -13    9.00    0.74 
  -4  -1 -13    4.52    0.57 
  -3  -1 -13   14.64    0.82 
  -2  -1 -13   11.14    0.71 
  -1  -1 -13    0.42    0.37 
   0  -1 -13   10.04    0.68 
   1  -1 -13    0.85    0.59 
   2  -1 -13   13.60    1.22 
   3  -1 -13    3.71    0.83 
   4  -1 -13   97.42    3.08 
   5  -1 -13    2.58    0.91 
 -12   0 -13    0.21    0.84 
 -11   0 -13    0.56    0.65 
 -10   0 -13    0.13    0.62 
  -9   0 -13   14.68    1.12 
  -8   0 -13   -0.18    0.49 
  -7   0 -13    0.08    0.45 
  -6   0 -13    0.43    0.45 
  -5   0 -13    5.67    0.61 
  -4   0 -13   -0.07    0.36 
  -3   0 -13   21.27    0.94 
  -2   0 -13    0.07    0.32 
  -1   0 -13    1.10    0.61 
   0   0 -13   -0.13    0.50 
   1   0 -13    0.74    0.58 
   2   0 -13    0.05    0.49 
   3   0 -13    4.11    0.81 
   4   0 -13    0.17    0.61 
   5   0 -13    4.68    0.98 
   6   0 -13    0.43    0.83 
 -13   1 -13    3.00    1.65 
 -12   1 -13    1.51    0.79 
 -11   1 -13    2.41    0.79 
 -10   1 -13    1.44    0.66 
  -9   1 -13    0.14    0.58 
  -8   1 -13    0.61    0.52 
  -7   1 -13    0.82    0.48 
  -6   1 -13    2.45    0.53 
  -5   1 -13    7.79    0.69 
  -4   1 -13    5.06    0.61 
  -3   1 -13   14.56    1.38 
  -2   1 -13   10.90    1.16 
  -1   1 -13    0.56    0.56 
   0   1 -13    9.32    1.00 
   1   1 -13    0.18    0.56 
   2   1 -13   13.32    1.24 
   3   1 -13    3.86    0.78 
   4   1 -13   95.53    2.92 
   5   1 -13    2.01    0.80 
   6   1 -13    5.17    1.00 
 -12   2 -13    1.08    0.73 
 -11   2 -13    0.73    0.75 
 -10   2 -13    3.85    0.77 
  -9   2 -13    0.44    0.60 
  -8   2 -13    1.10    0.61 
  -7   2 -13   -0.06    0.47 
  -6   2 -13    1.71    0.52 
  -5   2 -13    8.82    1.27 
  -4   2 -13   52.37    2.45 
  -3   2 -13   15.08    1.45 
  -2   2 -13    0.21    0.62 
  -1   2 -13    4.27    0.88 
   0   2 -13    5.09    0.89 
   1   2 -13   15.99    1.27 
   2   2 -13   11.59    1.14 
   3   2 -13   38.42    1.89 
   4   2 -13    5.82    0.94 
   5   2 -13    2.02    0.74 
   6   2 -13   26.01    1.67 
   7   2 -13   79.47    2.89 
 -12   3 -13    1.71    0.85 
 -11   3 -13    3.90    0.91 
 -10   3 -13    2.45    0.76 
  -9   3 -13    4.92    0.82 
  -8   3 -13   -0.18    0.52 
  -7   3 -13   14.17    1.71 
  -6   3 -13    1.60    0.95 
  -5   3 -13    0.89    0.78 
  -4   3 -13    0.88    0.80 
  -3   3 -13   28.57    1.88 
  -2   3 -13    3.52    0.88 
  -1   3 -13    6.65    1.01 
   0   3 -13   23.12    1.53 
   1   3 -13    4.07    0.86 
   2   3 -13   16.42    1.34 
   3   3 -13   17.43    1.38 
   4   3 -13    4.53    0.88 
   5   3 -13   64.98    2.44 
   6   3 -13   15.05    1.35 
   7   3 -13   36.47    2.00 
 -11   4 -13    0.50    1.30 
 -10   4 -13   -0.07    1.09 
  -9   4 -13    7.55    1.53 
  -8   4 -13    0.30    0.94 
  -7   4 -13    4.25    1.21 
  -6   4 -13    2.91    1.14 
  -5   4 -13    0.57    0.94 
  -4   4 -13    1.85    0.95 
  -3   4 -13    0.27    0.75 
  -2   4 -13   29.47    1.95 
  -1   4 -13   21.90    1.65 
   0   4 -13    2.28    0.79 
   1   4 -13    1.99    0.74 
   2   4 -13   13.98    1.27 
   3   4 -13   19.24    1.44 
   4   4 -13    0.55    0.63 
   5   4 -13    0.27    0.76 
   6   4 -13    4.20    0.97 
   7   4 -13   35.57    2.00 
 -10   5 -13    3.45    1.37 
  -9   5 -13    3.48    1.32 
  -8   5 -13    0.44    1.02 
  -7   5 -13    1.32    1.05 
  -6   5 -13   14.96    1.78 
  -5   5 -13    1.39    0.94 
  -4   5 -13   11.54    1.42 
  -3   5 -13    0.11    0.82 
  -2   5 -13   17.14    1.56 
  -1   5 -13    0.98    0.79 
   0   5 -13   21.77    1.65 
   1   5 -13    0.34    0.66 
   2   5 -13   35.04    1.94 
   3   5 -13    2.43    0.83 
   4   5 -13   -0.35    0.67 
   5   5 -13   29.85    1.72 
   6   5 -13   11.01    1.23 
   7   5 -13    7.57    1.14 
  -9   6 -13    4.60    1.36 
  -8   6 -13    0.76    1.02 
  -7   6 -13    1.24    1.05 
  -6   6 -13    1.54    1.11 
  -5   6 -13    1.38    1.05 
  -4   6 -13   26.90    2.06 
  -3   6 -13   19.59    1.85 
  -2   6 -13   12.08    1.42 
  -1   6 -13   23.01    1.88 
   0   6 -13   36.25    2.13 
   1   6 -13    6.97    1.04 
   2   6 -13    0.01    0.74 
   3   6 -13    1.83    0.78 
   4   6 -13    5.38    1.04 
   5   6 -13    8.72    1.11 
  -9   7 -13    0.29    1.09 
  -8   7 -13    0.24    1.03 
  -7   7 -13   14.80    1.89 
  -6   7 -13   -0.10    1.07 
  -5   7 -13    0.20    1.12 
  -4   7 -13   17.35    1.78 
  -3   7 -13    2.89    1.11 
  -2   7 -13   15.67    1.65 
  -1   7 -13    0.66    0.85 
   0   7 -13    1.16    0.87 
   1   7 -13    2.37    0.86 
   2   7 -13    7.10    1.18 
   3   7 -13    0.26    0.72 
  -7   8 -13    0.14    1.10 
  -6   8 -13    0.13    1.07 
  -5   8 -13    0.58    1.15 
  -4   8 -13   -0.65    0.85 
  -3   8 -13    1.02    1.03 
  -2   8 -13    0.51    0.85 
  -1   8 -13    0.10    0.89 
   0   8 -13   12.98    1.52 
   1   8 -13    1.42    0.98 
  -6   9 -13   10.13    1.85 
  -5   9 -13   -0.52    1.15 
  -4   9 -13   -0.79    0.88 
  -3   9 -13    3.22    1.25 
  -2   9 -13   11.66    1.60 
  -5  10 -13    8.65    1.60 
  -4  10 -13    2.47    1.32 
  -4 -10 -12   -1.42    1.19 
  -3 -10 -12    2.86    1.57 
  -7  -9 -12    0.36    1.26 
  -6  -9 -12   -1.26    1.01 
  -5  -9 -12    1.07    1.26 
  -4  -9 -12    0.52    1.39 
  -3  -9 -12    4.57    1.51 
  -2  -9 -12    1.72    1.53 
  -8  -8 -12    5.62    1.53 
  -7  -8 -12    1.52    1.22 
  -6  -8 -12    5.58    1.66 
  -5  -8 -12    0.33    1.23 
  -4  -8 -12   -0.20    1.05 
  -3  -8 -12    1.40    1.26 
  -2  -8 -12    3.58    1.35 
  -1  -8 -12    1.39    1.28 
  -9  -7 -12    0.22    1.10 
  -8  -7 -12    9.72    1.63 
  -7  -7 -12    2.10    1.23 
  -6  -7 -12    2.37    1.30 
  -5  -7 -12    1.81    1.14 
  -4  -7 -12   14.53    1.96 
  -3  -7 -12    0.99    1.08 
  -2  -7 -12   -0.09    1.04 
  -1  -7 -12    0.50    1.00 
 -10  -6 -12   -0.14    0.93 
  -9  -6 -12    1.22    1.04 
  -8  -6 -12    0.90    1.00 
  -7  -6 -12    2.58    1.16 
  -6  -6 -12    0.05    0.91 
  -5  -6 -12    1.29    1.04 
  -4  -6 -12    9.85    1.47 
  -3  -6 -12    1.81    1.12 
  -2  -6 -12   18.20    1.79 
  -1  -6 -12   12.12    1.64 
   0  -6 -12    0.28    0.91 
 -11  -5 -12    9.18    1.47 
 -10  -5 -12    0.83    0.90 
  -9  -5 -12    2.67    1.04 
  -8  -5 -12    0.47    0.98 
  -7  -5 -12   10.03    1.43 
  -6  -5 -12   -0.11    0.82 
  -5  -5 -12    4.13    1.21 
  -4  -5 -12   -0.40    0.73 
  -3  -5 -12   11.08    1.40 
  -2  -5 -12    4.40    0.73 
  -1  -5 -12   15.24    2.29 
   0  -5 -12    0.56    0.60 
 -12  -4 -12    0.57    0.82 
 -10  -4 -12    1.19    0.87 
  -9  -4 -12    0.37    0.78 
  -8  -4 -12    0.48    0.72 
  -7  -4 -12    2.38    0.87 
  -6  -4 -12   19.53    1.66 
  -5  -4 -12    1.16    0.81 
  -4  -4 -12    2.72    0.62 
  -3  -4 -12    5.23    1.01 
  -2  -4 -12   11.13    0.87 
  -1  -4 -12    0.94    0.48 
   0  -4 -12    5.98    0.69 
   1  -4 -12    2.37    0.56 
 -12  -3 -12    0.95    0.82 
 -11  -3 -12    5.58    1.10 
 -10  -3 -12    3.07    0.94 
  -9  -3 -12   12.59    1.35 
  -8  -3 -12   24.86    1.73 
  -7  -3 -12    2.07    0.77 
  -6  -3 -12    0.43    0.47 
  -5  -3 -12    2.54    0.54 
  -4  -3 -12   45.61    1.46 
  -3  -3 -12    3.29    0.58 
  -2  -3 -12   38.77    1.36 
  -1  -3 -12    2.95    0.52 
   0  -3 -12   27.06    1.12 
   1  -3 -12    0.25    0.45 
   2  -3 -12   13.26    1.35 
   3  -3 -12    0.72    0.85 
 -13  -2 -12    2.36    1.02 
 -12  -2 -12   -0.02    0.75 
 -11  -2 -12    6.31    1.16 
 -10  -2 -12    0.60    0.79 
  -9  -2 -12    7.95    1.14 
  -8  -2 -12    0.45    0.52 
  -7  -2 -12   10.92    0.84 
  -6  -2 -12    1.76    0.51 
  -5  -2 -12   43.67    1.40 
  -4  -2 -12   25.38    1.08 
  -3  -2 -12    5.00    0.58 
  -2  -2 -12   -0.11    0.34 
  -1  -2 -12   69.72    1.67 
   0  -2 -12   37.71    1.20 
   1  -2 -12    3.25    0.51 
   2  -2 -12   39.73    1.90 
   3  -2 -12  218.53    4.52 
   4  -2 -12   34.10    1.95 
 -13  -1 -12    0.48    0.77 
 -12  -1 -12    0.96    0.82 
 -11  -1 -12   20.54    1.67 
 -10  -1 -12    0.65    0.54 
  -9  -1 -12   -0.15    0.46 
  -8  -1 -12   -0.03    0.43 
  -7  -1 -12    1.06    0.45 
  -6  -1 -12   19.32    1.01 
  -5  -1 -12   10.52    0.76 
  -4  -1 -12   80.16    1.79 
  -3  -1 -12    4.70    0.50 
  -2  -1 -12   18.46    0.83 
  -1  -1 -12    3.16    0.46 
   0  -1 -12    1.52    0.37 
   1  -1 -12   11.94    0.67 
   2  -1 -12    5.65    0.86 
   3  -1 -12    9.98    1.08 
   4  -1 -12   37.13    1.93 
   5  -1 -12   32.02    1.88 
 -13   0 -12   -0.13    0.89 
 -12   0 -12   -0.31    0.70 
 -11   0 -12    0.40    0.66 
 -10   0 -12    0.10    0.59 
  -9   0 -12    0.18    0.53 
  -8   0 -12   10.13    0.86 
  -7   0 -12   -0.36    0.45 
  -6   0 -12    0.29    0.46 
  -5   0 -12    0.28    0.40 
  -4   0 -12   48.32    1.33 
  -3   0 -12    0.00    0.31 
  -2   0 -12    3.55    0.43 
  -1   0 -12    0.16    0.25 
   0   0 -12   13.98    0.67 
   1   0 -12    0.61    0.58 
   2   0 -12    3.71    0.73 
   3   0 -12   -0.02    0.50 
   4   0 -12    7.24    0.93 
   5   0 -12    0.34    0.69 
 -13   1 -12    0.48    0.73 
 -12   1 -12    0.04    0.68 
 -11   1 -12   22.40    1.34 
 -10   1 -12    0.97    0.59 
  -9   1 -12    0.00    0.54 
  -8   1 -12    0.69    0.49 
  -7   1 -12    1.45    0.52 
  -6   1 -12   18.15    0.95 
  -5   1 -12   10.48    0.74 
  -4   1 -12   83.81    1.77 
  -3   1 -12    5.92    0.56 
  -2   1 -12   19.22    0.80 
  -1   1 -12    2.49    0.65 
   0   1 -12    1.83    0.64 
   1   1 -12   13.30    1.17 
   2   1 -12    5.72    0.84 
   3   1 -12    9.83    0.97 
   4   1 -12   34.74    1.72 
   5   1 -12   29.12    1.65 
   6   1 -12    8.83    1.14 
 -13   2 -12    3.23    0.87 
 -12   2 -12    0.10    0.65 
 -11   2 -12    8.32    1.52 
 -10   2 -12    0.80    0.60 
  -9   2 -12    9.57    0.91 
  -8   2 -12    0.03    0.49 
  -7   2 -12   11.71    0.90 
  -6   2 -12    1.45    0.53 
  -5   2 -12   46.91    1.43 
  -4   2 -12   29.91    1.12 
  -3   2 -12    5.65    0.53 
  -2   2 -12    0.08    0.58 
  -1   2 -12   65.91    2.43 
   0   2 -12   31.03    1.62 
   1   2 -12    2.94    0.66 
   2   2 -12   40.19    1.85 
   3   2 -12  224.37    4.37 
   4   2 -12   37.45    1.81 
   5   2 -12    1.44    0.63 
   6   2 -12    3.72    0.88 
   7   2 -12    5.09    1.08 
 -13   3 -12    0.73    0.95 
 -12   3 -12    0.75    0.90 
 -11   3 -12    7.15    1.19 
 -10   3 -12    3.42    0.94 
  -9   3 -12   16.41    1.18 
  -8   3 -12   31.22    1.46 
  -7   3 -12    2.47    0.62 
  -6   3 -12    0.64    0.51 
  -5   3 -12    2.27    0.56 
  -4   3 -12   43.06    2.22 
  -3   3 -12    3.67    0.92 
  -2   3 -12   35.44    1.95 
  -1   3 -12    2.91    0.80 
   0   3 -12   24.34    1.54 
   1   3 -12   -0.18    0.51 
   2   3 -12   10.20    1.02 
   3   3 -12    0.20    0.52 
   4   3 -12   16.34    1.21 
   5   3 -12  102.78    2.90 
   6   3 -12   36.82    1.90 
   7   3 -12   50.54    2.21 
 -12   4 -12    0.73    0.97 
 -11   4 -12    0.66    1.01 
 -10   4 -12    2.23    1.00 
  -9   4 -12    2.06    0.98 
  -8   4 -12    0.38    0.64 
  -7   4 -12    3.22    0.67 
  -6   4 -12   23.02    1.92 
  -5   4 -12    1.82    0.95 
  -4   4 -12    1.19    0.89 
  -3   4 -12    6.58    1.13 
  -2   4 -12   10.84    1.22 
  -1   4 -12    1.16    0.70 
   0   4 -12    6.22    0.94 
   1   4 -12    2.03    0.67 
   2   4 -12    6.87    0.93 
   3   4 -12   16.48    1.28 
   4   4 -12   94.34    2.79 
   5   4 -12   12.55    1.16 
   6   4 -12   24.92    1.58 
   7   4 -12   51.46    2.23 
 -12   5 -12    1.76    1.15 
 -11   5 -12   10.04    1.57 
 -10   5 -12    2.02    1.23 
  -7   5 -12    9.95    1.43 
  -6   5 -12    0.06    0.86 
  -5   5 -12    4.83    1.17 
  -4   5 -12    0.75    0.89 
  -3   5 -12   10.48    1.29 
  -2   5 -12    3.62    0.98 
  -1   5 -12   20.98    1.63 
   0   5 -12   -0.17    0.67 
   1   5 -12    9.28    1.06 
   2   5 -12   43.14    2.03 
   3   5 -12   25.37    1.64 
   4   5 -12   28.18    1.67 
   5   5 -12   24.45    1.57 
   6   5 -12   23.51    1.53 
   7   5 -12   23.92    1.58 
  -7   6 -12    1.84    1.16 
  -6   6 -12    0.97    0.94 
  -5   6 -12    1.80    1.01 
  -4   6 -12   10.23    1.49 
  -3   6 -12    1.92    0.92 
  -2   6 -12   19.89    1.73 
  -1   6 -12   11.62    1.33 
   0   6 -12   -0.34    0.68 
   1   6 -12    2.77    0.84 
   2   6 -12    8.18    1.07 
   3   6 -12   28.66    1.73 
   4   6 -12    4.12    0.88 
   5   6 -12    8.21    1.06 
  -7   7 -12    3.32    1.33 
  -6   7 -12    1.07    1.02 
  -5   7 -12    3.59    1.20 
  -4   7 -12   14.89    1.72 
  -3   7 -12    0.93    0.88 
  -2   7 -12    1.01    1.02 
  -1   7 -12    0.66    0.82 
   0   7 -12    0.17    0.84 
   1   7 -12    4.09    0.95 
   2   7 -12   36.21    1.95 
   3   7 -12    1.77    0.81 
  -6   8 -12    4.63    1.33 
  -5   8 -12    1.21    1.08 
  -4   8 -12    0.09    1.02 
  -3   8 -12    2.80    1.04 
  -2   8 -12    4.89    1.18 
  -1   8 -12    3.11    1.00 
   0   8 -12   10.21    1.39 
  -7   9 -12    0.07    1.10 
  -6   9 -12    1.52    1.19 
  -5   9 -12    1.33    1.20 
  -4   9 -12    0.77    1.12 
  -3   9 -12    4.80    1.22 
  -2   9 -12    0.56    1.01 
  -6  10 -12    1.51    1.32 
  -5  10 -12    0.54    1.19 
  -4  10 -12   -0.28    1.10 
  -5 -10 -11    1.75    1.49 
  -4 -10 -11    3.66    1.57 
  -3 -10 -11    6.22    1.89 
  -7  -9 -11   -0.40    1.19 
  -6  -9 -11    0.01    1.25 
  -5  -9 -11    2.03    1.41 
  -4  -9 -11    8.32    1.87 
  -3  -9 -11    8.35    1.71 
  -2  -9 -11   -0.51    1.18 
  -9  -8 -11   -0.09    1.13 
  -8  -8 -11    1.02    1.19 
  -7  -8 -11   -0.14    1.11 
  -6  -8 -11   -0.56    1.02 
  -5  -8 -11    3.65    1.37 
  -4  -8 -11   -0.40    1.12 
  -3  -8 -11   14.32    1.98 
  -2  -8 -11   23.18    2.23 
  -1  -8 -11    1.80    1.30 
 -10  -7 -11    2.17    1.20 
  -9  -7 -11    1.51    1.17 
  -8  -7 -11    1.15    1.09 
  -7  -7 -11    9.79    1.63 
  -6  -7 -11    0.63    1.08 
  -5  -7 -11   34.71    2.56 
  -4  -7 -11    7.80    1.51 
  -3  -7 -11   10.09    1.59 
  -2  -7 -11   39.56    2.70 
  -1  -7 -11   12.61    1.65 
 -11  -6 -11    1.18    1.08 
 -10  -6 -11    3.89    1.18 
  -9  -6 -11    2.67    1.14 
  -8  -6 -11    0.51    0.93 
  -7  -6 -11    1.66    1.06 
  -6  -6 -11    9.36    1.44 
  -5  -6 -11   -0.42    0.87 
  -4  -6 -11    1.40    0.98 
  -3  -6 -11    7.44    1.37 
  -2  -6 -11   21.42    1.90 
  -1  -6 -11    3.64    1.25 
   0  -6 -11   11.10    1.44 
 -12  -5 -11    7.83    1.34 
 -11  -5 -11    0.99    0.86 
 -10  -5 -11    6.10    1.20 
  -9  -5 -11    6.05    1.23 
  -8  -5 -11   17.31    1.73 
  -7  -5 -11    0.75    0.81 
  -6  -5 -11    0.55    0.81 
  -5  -5 -11   16.00    1.66 
  -4  -5 -11   59.34    2.78 
  -3  -5 -11   -0.76    0.82 
  -2  -5 -11   13.22    1.49 
  -1  -5 -11   39.99    1.46 
   0  -5 -11   14.02    1.50 
 -12  -4 -11    0.49    0.81 
 -11  -4 -11    5.22    1.11 
 -10  -4 -11   -0.06    0.72 
  -9  -4 -11    3.07    0.93 
  -8  -4 -11    0.48    0.75 
  -7  -4 -11   25.89    1.79 
  -6  -4 -11    4.24    0.98 
  -5  -4 -11    2.37    0.86 
  -4  -4 -11   13.17    0.92 
  -3  -4 -11   37.20    1.34 
  -2  -4 -11    0.80    0.40 
  -1  -4 -11    0.10    0.47 
   0  -4 -11    4.11    0.60 
   1  -4 -11    0.82    0.50 
 -13  -3 -11    1.37    0.90 
 -12  -3 -11    1.12    0.85 
 -11  -3 -11    0.09    0.72 
 -10  -3 -11    2.14    0.88 
  -9  -3 -11   11.07    1.29 
  -8  -3 -11    2.32    0.80 
  -7  -3 -11    4.28    0.85 
  -6  -3 -11    1.54    0.47 
  -5  -3 -11    7.23    1.00 
  -4  -3 -11    3.31    0.51 
  -3  -3 -11    2.64    0.53 
  -2  -3 -11    0.79    0.45 
  -1  -3 -11   21.68    0.96 
   0  -3 -11   48.48    1.40 
   1  -3 -11    3.84    0.58 
   2  -3 -11   43.00    2.04 
 -13  -2 -11    1.10    0.84 
 -12  -2 -11    7.54    1.21 
 -11  -2 -11    0.31    0.71 
 -10  -2 -11    7.48    1.12 
  -9  -2 -11    0.57    0.74 
  -8  -2 -11    0.87    0.48 
  -7  -2 -11    1.24    0.49 
  -6  -2 -11   19.23    0.98 
  -5  -2 -11    8.47    0.69 
  -4  -2 -11    4.37    0.53 
  -3  -2 -11    0.75    0.37 
  -2  -2 -11    0.78    0.38 
  -1  -2 -11   16.60    0.83 
   0  -2 -11   28.82    1.02 
   1  -2 -11    3.49    0.49 
   2  -2 -11   61.18    2.24 
   3  -2 -11   34.53    1.81 
   4  -2 -11   23.68    1.64 
 -12  -1 -11   14.51    1.51 
 -11  -1 -11    2.99    0.94 
 -10  -1 -11   -0.17    0.53 
  -9  -1 -11    2.80    0.64 
  -8  -1 -11    0.69    0.48 
  -7  -1 -11    0.01    0.41 
  -6  -1 -11    6.49    0.62 
  -5  -1 -11    5.39    0.60 
  -4  -1 -11   14.36    0.79 
  -3  -1 -11   -0.22    0.30 
  -2  -1 -11   28.64    0.98 
  -1  -1 -11    0.84    0.32 
   0  -1 -11   32.58    0.99 
   1  -1 -11   30.42    0.96 
   2  -1 -11    1.19    0.62 
   3  -1 -11    0.31    0.63 
   4  -1 -11  101.34    2.98 
 -13   0 -11    2.68    0.96 
 -12   0 -11    0.19    0.63 
 -11   0 -11    5.23    0.79 
 -10   0 -11    0.00    0.51 
  -9   0 -11    4.36    0.71 
  -8   0 -11   -0.02    0.45 
  -7   0 -11   16.59    0.97 
  -6   0 -11   -0.05    0.36 
  -5   0 -11   12.57    0.80 
  -4   0 -11    0.09    0.32 
  -3   0 -11   17.16    0.77 
  -2   0 -11   -0.01    0.28 
  -1   0 -11    3.96    0.39 
   0   0 -11   -0.01    0.27 
   1   0 -11  425.35    3.48 
   2   0 -11   -0.19    0.50 
   3   0 -11    6.36    0.76 
   4   0 -11    0.47    0.57 
   5   0 -11   54.17    2.21 
 -13   1 -11    5.55    1.11 
 -12   1 -11   14.20    1.47 
 -11   1 -11    2.89    0.92 
 -10   1 -11    0.31    0.54 
  -9   1 -11    3.28    0.64 
  -8   1 -11    0.82    0.48 
  -7   1 -11   -0.06    0.40 
  -6   1 -11    6.94    0.68 
  -5   1 -11    5.92    0.57 
  -4   1 -11   14.64    0.76 
  -3   1 -11    0.24    0.30 
  -2   1 -11   32.96    1.01 
  -1   1 -11    0.92    0.27 
   0   1 -11   31.32    0.80 
   1   1 -11   28.88    1.47 
   2   1 -11    2.04    0.59 
   3   1 -11    0.01    0.44 
   4   1 -11   96.69    2.69 
   5   1 -11    1.85    0.67 
   6   1 -11   26.80    1.63 
 -13   2 -11    1.21    0.83 
 -12   2 -11   11.14    1.41 
 -11   2 -11    1.97    0.90 
 -10   2 -11    7.44    1.09 
  -9   2 -11    0.43    0.64 
  -8   2 -11    0.68    0.70 
  -7   2 -11    1.18    0.51 
  -6   2 -11   19.90    1.00 
  -5   2 -11    7.58    0.65 
  -4   2 -11    4.01    0.50 
  -3   2 -11    0.43    0.33 
  -2   2 -11    1.03    0.35 
  -1   2 -11   14.96    0.62 
   0   2 -11   26.62    1.46 
   1   2 -11    3.04    0.57 
   2   2 -11   60.76    2.22 
   3   2 -11   32.42    1.58 
   4   2 -11   21.86    1.36 
   5   2 -11   10.56    1.01 
   6   2 -11    0.11    0.64 
 -13   3 -11    1.64    0.95 
 -12   3 -11    0.96    0.88 
 -11   3 -11    0.91    0.85 
 -10   3 -11    4.21    1.10 
  -9   3 -11   15.02    1.43 
  -8   3 -11    2.21    0.85 
  -7   3 -11    4.57    0.83 
  -6   3 -11    2.28    0.57 
  -5   3 -11    9.71    0.74 
  -4   3 -11    2.41    0.50 
  -3   3 -11    2.40    0.45 
  -2   3 -11    0.72    0.65 
  -1   3 -11   19.03    1.39 
   0   3 -11   43.27    1.92 
   1   3 -11    2.13    0.59 
   2   3 -11   38.24    1.68 
   3   3 -11    2.76    0.61 
   4   3 -11   80.78    2.40 
   5   3 -11    1.13    0.60 
   6   3 -11    0.73    0.73 
   7   3 -11   47.92    2.16 
 -13   4 -11    1.10    1.13 
 -12   4 -11    1.22    1.04 
 -11   4 -11    8.68    1.34 
 -10   4 -11    0.87    0.93 
  -9   4 -11    4.17    1.04 
  -8   4 -11    0.81    0.90 
  -7   4 -11   32.85    1.82 
  -6   4 -11    5.45    1.01 
  -5   4 -11    2.66    0.60 
  -4   4 -11   11.70    0.86 
  -3   4 -11   37.71    2.16 
  -2   4 -11    2.21    0.84 
  -1   4 -11    0.50    0.61 
   0   4 -11    3.87    0.79 
   1   4 -11    1.10    0.53 
   2   4 -11    8.34    0.91 
   3   4 -11   16.96    1.23 
   4   4 -11    0.63    0.53 
   5   4 -11  194.69    3.85 
   6   4 -11    0.31    0.70 
   7   4 -11    0.93    0.71 
 -12   5 -11   11.58    1.59 
 -11   5 -11    1.92    1.13 
 -10   5 -11    9.81    1.45 
  -9   5 -11    7.26    1.34 
  -8   5 -11   22.59    1.79 
  -7   5 -11    1.35    1.03 
  -6   5 -11    0.47    1.04 
  -5   5 -11   16.80    1.67 
  -4   5 -11   65.72    2.91 
  -3   5 -11    0.05    0.77 
  -2   5 -11   12.82    1.32 
  -1   5 -11   39.17    1.99 
   0   5 -11   13.61    1.26 
   1   5 -11    9.06    1.01 
   2   5 -11   40.17    1.84 
   3   5 -11    3.06    0.79 
   4   5 -11   47.62    2.03 
   5   5 -11   49.38    1.98 
   6   5 -11   11.14    1.09 
   7   5 -11   15.49    1.33 
 -12   6 -11    4.68    1.43 
 -11   6 -11    1.36    1.26 
 -10   6 -11    5.66    1.53 
  -9   6 -11    5.71    1.42 
  -5   6 -11    0.76    0.92 
  -4   6 -11    0.92    0.90 
  -3   6 -11    7.71    1.24 
  -2   6 -11   21.83    1.69 
  -1   6 -11    3.42    0.88 
   0   6 -11   12.30    1.33 
   1   6 -11   33.18    1.81 
   2   6 -11  106.93    3.03 
   3   6 -11    0.12    0.55 
   4   6 -11    1.04    0.60 
   5   6 -11    0.26    0.61 
  -5   7 -11   36.19    2.34 
  -4   7 -11    7.46    1.32 
  -3   7 -11   11.79    1.53 
  -2   7 -11   37.75    2.20 
  -1   7 -11   17.46    1.58 
   0   7 -11    5.07    1.05 
   1   7 -11    0.60    0.75 
   2   7 -11    0.45    0.72 
  -5   8 -11    3.48    1.16 
  -4   8 -11    0.35    0.92 
  -3   8 -11   15.18    1.71 
  -2   8 -11   26.10    1.90 
  -1   8 -11    3.77    1.15 
   0   8 -11    8.68    1.26 
  -6   9 -11    1.13    1.21 
  -4   9 -11    9.86    1.57 
  -3   9 -11    8.63    1.51 
  -2   9 -11    0.38    0.91 
  -7  10 -11   -0.20    1.25 
  -6  10 -11   -0.27    1.08 
  -5  10 -11    1.82    1.21 
  -6 -10 -10    0.15    1.27 
  -5 -10 -10    0.20    1.27 
  -4 -10 -10    4.26    1.57 
  -3 -10 -10    8.87    1.93 
  -8  -9 -10    3.70    1.56 
  -7  -9 -10   -0.59    1.12 
  -6  -9 -10   15.03    2.13 
  -5  -9 -10    0.75    1.14 
  -4  -9 -10    0.44    1.17 
  -3  -9 -10    0.23    1.09 
  -2  -9 -10   -0.44    1.17 
  -9  -8 -10    1.15    1.27 
  -8  -8 -10    0.65    1.14 
  -7  -8 -10    2.85    1.24 
  -6  -8 -10   12.03    1.86 
  -5  -8 -10    0.55    1.15 
  -4  -8 -10    0.65    1.09 
  -3  -8 -10   -0.87    0.92 
  -2  -8 -10    4.77    1.34 
  -1  -8 -10   11.00    1.85 
 -10  -7 -10   -0.61    0.95 
  -9  -7 -10    0.05    0.93 
  -8  -7 -10    1.21    1.08 
  -7  -7 -10   -0.21    0.89 
  -6  -7 -10    2.16    1.15 
  -5  -7 -10    0.68    1.01 
  -4  -7 -10   25.44    2.27 
  -3  -7 -10    5.76    1.34 
  -2  -7 -10    2.82    1.16 
  -1  -7 -10   20.32    1.94 
 -11  -6 -10    4.99    1.33 
 -10  -6 -10    1.30    0.98 
  -9  -6 -10    1.72    1.01 
  -8  -6 -10    0.32    0.90 
  -7  -6 -10    1.14    0.94 
  -6  -6 -10    0.39    0.88 
  -5  -6 -10    1.78    0.99 
  -4  -6 -10   10.73    1.47 
  -3  -6 -10   20.00    1.87 
  -2  -6 -10    4.17    1.09 
  -1  -6 -10    1.32    0.91 
   0  -6 -10   17.12    1.64 
 -12  -5 -10    0.34    0.84 
 -11  -5 -10    0.54    0.87 
 -10  -5 -10    0.74    0.76 
  -9  -5 -10   21.09    1.77 
  -8  -5 -10    0.42    0.77 
  -7  -5 -10    9.00    1.33 
  -6  -5 -10   10.65    1.39 
  -5  -5 -10   59.38    2.80 
  -4  -5 -10    1.69    0.91 
  -3  -5 -10    7.06    1.17 
  -2  -5 -10    3.12    0.62 
  -1  -5 -10   58.65    1.67 
   0  -5 -10   -0.37    0.66 
 -13  -4 -10    0.33    0.80 
 -12  -4 -10   11.50    1.45 
 -11  -4 -10    1.73    0.85 
 -10  -4 -10    3.04    0.89 
  -9  -4 -10    0.63    0.69 
  -8  -4 -10    8.88    1.19 
  -7  -4 -10    4.95    0.95 
  -6  -4 -10   56.58    2.52 
  -5  -4 -10    7.32    1.07 
  -4  -4 -10   62.37    1.66 
  -3  -4 -10   44.76    1.40 
  -2  -4 -10    2.53    0.49 
  -1  -4 -10   44.74    2.11 
   0  -4 -10    2.81    0.53 
   1  -4 -10   19.74    0.98 
 -13  -3 -10    0.26    0.72 
 -12  -3 -10   -0.20    0.68 
 -11  -3 -10    0.29    0.75 
 -10  -3 -10    2.18    0.83 
  -9  -3 -10    0.77    0.71 
  -8  -3 -10    0.48    0.67 
  -7  -3 -10    1.04    0.65 
  -6  -3 -10   13.66    0.84 
  -5  -3 -10    7.89    0.65 
  -4  -3 -10    4.36    0.94 
  -3  -3 -10    8.46    0.68 
  -2  -3 -10   87.48    2.10 
  -1  -3 -10    0.73    0.39 
   0  -3 -10    5.86    0.56 
   1  -3 -10   75.26    1.71 
   2  -3 -10   72.21    2.44 
 -13  -2 -10    1.00    0.75 
 -12  -2 -10    1.06    0.74 
 -11  -2 -10   16.39    1.46 
 -10  -2 -10    4.50    0.89 
  -9  -2 -10    2.61    0.77 
  -8  -2 -10    3.73    0.58 
  -7  -2 -10   23.50    1.05 
  -6  -2 -10    0.04    0.42 
  -5  -2 -10   10.46    0.71 
  -4  -2 -10   48.73    1.32 
  -3  -2 -10   14.39    0.75 
  -2  -2 -10   27.04    0.97 
  -1  -2 -10    2.74    0.42 
   0  -2 -10   16.56    0.76 
   1  -2 -10    1.37    0.38 
   2  -2 -10   39.77    1.76 
   3  -2 -10   27.58    1.60 
 -14  -1 -10    0.44    0.82 
 -13  -1 -10    2.06    0.93 
 -12  -1 -10    0.92    0.84 
 -11  -1 -10    0.67    0.81 
 -10  -1 -10    2.19    0.66 
  -9  -1 -10   44.56    1.62 
  -8  -1 -10    0.35    0.50 
  -7  -1 -10    5.17    0.65 
  -6  -1 -10    3.33    0.51 
  -5  -1 -10   38.11    1.17 
  -4  -1 -10   -0.07    0.32 
  -3  -1 -10    0.22    0.30 
  -2  -1 -10   53.88    1.25 
  -1  -1 -10   12.77    0.63 
   0  -1 -10   25.46    0.85 
   1  -1 -10    1.40    0.34 
   2  -1 -10  143.28    3.17 
   3  -1 -10  168.38    3.57 
   4  -1 -10   65.94    2.32 
 -14   0 -10    3.62    1.06 
 -13   0 -10   -0.09    0.70 
 -12   0 -10    1.40    0.80 
 -11   0 -10    0.53    0.71 
 -10   0 -10   38.72    2.01 
  -9   0 -10    0.29    0.49 
  -8   0 -10   13.11    0.87 
  -7   0 -10   -0.20    0.41 
  -6   0 -10   17.71    0.90 
  -5   0 -10    0.22    0.33 
  -4   0 -10   50.64    1.32 
  -3   0 -10    0.05    0.32 
  -2   0 -10   95.85    1.63 
  -1   0 -10   -0.17    0.23 
   0   0 -10    2.20    0.31 
   1   0 -10    0.07    0.25 
   2   0 -10    4.77    0.69 
   3   0 -10   -0.23    0.44 
   4   0 -10  104.45    2.77 
   5   0 -10    0.67    0.64 
 -14   1 -10    0.27    0.82 
 -13   1 -10    2.29    0.89 
 -12   1 -10    1.53    0.77 
 -11   1 -10    1.62    0.77 
 -10   1 -10    2.33    0.79 
  -9   1 -10   43.35    2.08 
  -8   1 -10    1.04    0.66 
  -7   1 -10    5.31    0.66 
  -6   1 -10    2.72    0.49 
  -5   1 -10   43.67    1.32 
  -4   1 -10    0.10    0.33 
  -3   1 -10    0.23    0.31 
  -2   1 -10   58.44    1.24 
  -1   1 -10   15.24    0.63 
   0   1 -10   24.84    0.72 
   1   1 -10    1.20    0.24 
   2   1 -10  155.29    3.34 
   3   1 -10  160.75    3.23 
   4   1 -10   62.40    2.09 
   5   1 -10    4.62    0.78 
 -14   2 -10    1.49    0.94 
 -13   2 -10    0.70    0.84 
 -12   2 -10    2.32    0.88 
 -11   2 -10   17.54    1.51 
 -10   2 -10    6.80    1.06 
  -9   2 -10    3.66    0.85 
  -8   2 -10    3.81    0.86 
  -7   2 -10   29.43    1.63 
  -6   2 -10   -0.29    0.51 
  -5   2 -10    9.54    0.70 
  -4   2 -10   51.45    1.36 
  -3   2 -10   15.15    0.74 
  -2   2 -10   28.20    0.90 
  -1   2 -10    2.37    0.33 
   0   2 -10   16.16    0.55 
   1   2 -10    1.51    0.49 
   2   2 -10   39.95    1.70 
   3   2 -10   26.43    1.35 
   4   2 -10   81.53    2.38 
   5   2 -10   88.07    2.52 
   6   2 -10   40.49    1.82 
 -13   3 -10    0.75    0.87 
 -12   3 -10    0.57    0.93 
 -11   3 -10    0.32    0.85 
 -10   3 -10    2.22    0.89 
  -9   3 -10    1.10    0.73 
  -8   3 -10    0.29    0.67 
  -7   3 -10    0.59    0.66 
  -6   3 -10   14.62    1.22 
  -5   3 -10   10.12    0.78 
  -4   3 -10    6.07    0.60 
  -3   3 -10    9.69    0.68 
  -2   3 -10   84.20    1.57 
  -1   3 -10    0.24    0.31 
   0   3 -10    5.16    0.77 
   1   3 -10   63.68    2.07 
   2   3 -10   65.56    2.10 
   3   3 -10   28.13    1.38 
   4   3 -10    1.05    0.47 
   5   3 -10    3.42    0.71 
   6   3 -10  148.25    3.34 
 -13   4 -10    1.12    0.99 
 -12   4 -10   12.21    1.52 
 -11   4 -10    3.31    1.05 
 -10   4 -10    4.27    1.08 
  -9   4 -10    0.94    0.93 
  -8   4 -10   11.89    1.38 
  -7   4 -10    5.42    1.06 
  -6   4 -10   69.38    2.53 
  -5   4 -10    9.12    1.18 
  -4   4 -10   63.79    1.68 
  -3   4 -10   42.74    1.28 
  -2   4 -10    2.30    0.50 
  -1   4 -10   43.04    1.98 
   0   4 -10    2.30    0.65 
   1   4 -10   19.64    1.25 
   2   4 -10   14.53    1.07 
   3   4 -10    7.71    0.85 
   4   4 -10    8.24    0.83 
   5   4 -10   51.92    1.89 
   6   4 -10    0.41    0.65 
   7   4 -10   19.39    1.39 
 -13   5 -10    6.78    1.39 
 -12   5 -10    0.71    1.16 
 -10   5 -10    1.03    1.01 
  -9   5 -10   30.28    2.18 
  -8   5 -10    0.96    0.97 
  -7   5 -10   14.03    1.53 
  -6   5 -10   13.25    1.38 
  -5   5 -10   68.86    2.59 
  -4   5 -10    3.56    0.66 
  -3   5 -10    6.85    0.75 
  -2   5 -10    4.00    0.97 
  -1   5 -10   60.97    2.46 
   0   5 -10   -0.28    0.60 
   1   5 -10    0.23    0.55 
   2   5 -10    1.12    0.53 
   3   5 -10   38.15    1.65 
   4   5 -10    0.47    0.58 
   5   5 -10    6.56    0.88 
   6   5 -10    0.15    0.64 
 -12   6 -10    2.65    1.38 
 -11   6 -10    6.83    1.50 
 -10   6 -10    1.06    1.20 
  -9   6 -10    3.23    1.35 
  -8   6 -10    0.18    1.13 
  -7   6 -10    0.84    0.97 
  -6   6 -10   -0.39    0.91 
  -5   6 -10    2.60    1.10 
  -3   6 -10   20.59    1.66 
  -2   6 -10    3.75    0.99 
  -1   6 -10    1.20    0.73 
   0   6 -10   15.47    1.31 
   1   6 -10    4.07    0.83 
   2   6 -10   14.36    1.15 
   3   6 -10   98.97    2.73 
   4   6 -10    0.25    0.58 
 -11   7 -10    0.31    1.32 
 -10   7 -10    1.12    1.43 
  -9   7 -10    0.37    1.16 
  -8   7 -10    0.94    1.22 
  -3   7 -10    7.65    1.23 
  -2   7 -10    2.55    0.99 
  -1   7 -10   24.24    1.71 
   0   7 -10    9.45    1.14 
   1   7 -10   23.86    1.60 
   2   7 -10    4.25    0.83 
  -4   8 -10    0.17    0.93 
  -3   8 -10    0.34    0.99 
  -2   8 -10    4.51    1.23 
  -1   8 -10   10.78    1.36 
   0   8 -10    0.61    0.83 
  -4   9 -10    0.19    0.88 
  -3   9 -10    0.95    1.02 
  -2   9 -10    0.31    0.95 
  -5  10 -10    0.50    1.13 
  -7 -10  -9    1.50    1.37 
  -6 -10  -9   -0.06    1.15 
  -5 -10  -9    6.75    1.79 
  -4 -10  -9    1.80    1.34 
  -3 -10  -9    0.78    1.33 
  -8  -9  -9    0.38    1.23 
  -7  -9  -9    6.61    1.68 
  -6  -9  -9    8.61    1.69 
  -5  -9  -9   -0.14    1.06 
  -4  -9  -9    0.63    1.12 
  -3  -9  -9   -0.07    1.02 
  -2  -9  -9    1.32    1.20 
 -10  -8  -9    1.01    1.17 
  -9  -8  -9    1.97    1.16 
  -8  -8  -9    0.95    1.13 
  -7  -8  -9    3.60    1.27 
  -6  -8  -9   14.57    1.89 
  -5  -8  -9   -0.02    1.03 
  -4  -8  -9    3.90    1.27 
  -3  -8  -9   18.41    2.05 
  -2  -8  -9    2.23    1.28 
  -1  -8  -9   51.99    3.22 
 -11  -7  -9    2.93    1.24 
 -10  -7  -9   -0.30    0.89 
  -9  -7  -9    5.88    1.44 
  -8  -7  -9    0.56    0.99 
  -7  -7  -9    1.35    1.00 
  -6  -7  -9    1.41    1.05 
  -5  -7  -9   48.73    2.86 
  -4  -7  -9    0.17    1.06 
  -3  -7  -9  107.40    4.13 
  -2  -7  -9    8.81    1.47 
  -1  -7  -9    3.23    1.18 
 -12  -6  -9    2.62    1.13 
 -11  -6  -9   -0.20    0.75 
 -10  -6  -9    3.15    1.08 
  -9  -6  -9    3.63    1.10 
  -8  -6  -9    0.58    0.89 
  -7  -6  -9    4.03    1.12 
  -6  -6  -9    1.26    0.94 
  -5  -6  -9    0.24    0.87 
  -4  -6  -9    6.76    1.26 
  -3  -6  -9   20.45    1.84 
  -2  -6  -9    1.49    0.91 
  -1  -6  -9    0.57    0.84 
   0  -6  -9    7.69    1.23 
 -12  -5  -9    0.71    0.80 
 -11  -5  -9    0.92    0.78 
 -10  -5  -9   12.58    1.48 
  -9  -5  -9    2.88    0.90 
  -8  -5  -9    0.36    0.72 
  -7  -5  -9   20.82    1.75 
  -6  -5  -9   50.98    2.60 
  -5  -5  -9   10.36    1.33 
  -4  -5  -9    0.19    0.81 
  -3  -5  -9   62.56    2.72 
  -2  -5  -9   34.83    1.29 
  -1  -5  -9    0.28    0.49 
   0  -5  -9    0.42    0.70 
 -13  -4  -9    8.54    1.35 
 -12  -4  -9    1.87    0.81 
 -11  -4  -9    0.32    0.71 
 -10  -4  -9    1.30    0.74 
  -9  -4  -9   17.55    1.52 
  -8  -4  -9   -0.29    0.60 
  -7  -4  -9   20.99    1.60 
  -6  -4  -9    7.05    1.01 
  -5  -4  -9   90.89    3.04 
  -4  -4  -9   11.75    0.77 
  -3  -4  -9   58.56    1.50 
  -2  -4  -9    0.17    0.41 
  -1  -4  -9   29.22    1.08 
   0  -4  -9    5.65    0.59 
   1  -4  -9   18.25    1.29 
 -13  -3  -9    1.59    0.85 
 -12  -3  -9    0.76    0.78 
 -11  -3  -9    0.43    0.71 
 -10  -3  -9    0.50    0.73 
  -9  -3  -9    1.52    0.73 
  -8  -3  -9    3.87    0.85 
  -7  -3  -9   20.24    1.48 
  -6  -3  -9   76.48    2.38 
  -5  -3  -9   34.42    1.14 
  -4  -3  -9    6.39    0.56 
  -3  -3  -9  158.71    3.58 
  -2  -3  -9   30.09    2.50 
  -1  -3  -9    5.15    0.53 
   0  -3  -9    5.61    0.55 
   1  -3  -9   36.84    1.15 
   2  -3  -9   59.92    2.16 
 -14  -2  -9    0.62    0.75 
 -13  -2  -9    0.22    0.69 
 -12  -2  -9    8.26    1.15 
 -11  -2  -9    0.90    0.69 
 -10  -2  -9    1.42    0.68 
  -9  -2  -9    2.34    0.54 
  -8  -2  -9   17.50    1.00 
  -7  -2  -9   14.08    0.84 
  -6  -2  -9    0.32    0.44 
  -5  -2  -9    0.79    0.36 
  -4  -2  -9   58.16    1.41 
  -3  -2  -9   10.70    0.63 
  -2  -2  -9   48.30    1.20 
  -1  -2  -9   29.18    0.95 
   0  -2  -9   10.99    0.62 
   1  -2  -9   39.50    1.09 
   2  -2  -9   11.12    0.99 
   3  -2  -9   36.45    1.70 
 -14  -1  -9    0.16    0.79 
 -13  -1  -9    1.93    0.94 
 -12  -1  -9    1.61    0.85 
 -11  -1  -9    4.17    1.00 
 -10  -1  -9   15.53    1.39 
  -9  -1  -9    0.38    0.47 
  -8  -1  -9    6.61    0.71 
  -7  -1  -9    1.43    0.48 
  -6  -1  -9   25.52    1.07 
  -5  -1  -9    8.50    0.63 
  -4  -1  -9   36.80    1.07 
  -3  -1  -9   56.76    1.31 
  -2  -1  -9    0.31    0.26 
  -1  -1  -9    0.56    0.27 
   0  -1  -9    2.47    0.36 
   1  -1  -9    7.61    0.49 
   2  -1  -9   24.11    1.28 
   3  -1  -9  117.32    2.83 
   4  -1  -9   36.93    1.74 
 -14   0  -9    0.62    0.78 
 -13   0  -9   15.40    1.53 
 -12   0  -9    0.52    0.70 
 -11   0  -9   23.49    1.66 
 -10   0  -9    0.20    0.62 
  -9   0  -9   16.63    1.33 
  -8   0  -9    0.48    0.56 
  -7   0  -9   -0.23    0.38 
  -6   0  -9    0.24    0.33 
  -5   0  -9   -0.12    0.34 
  -4   0  -9    0.06    0.30 
  -3   0  -9    4.34    0.46 
  -2   0  -9   -0.21    0.24 
  -1   0  -9   24.19    0.75 
   0   0  -9   -0.02    0.22 
   1   0  -9   13.30    0.52 
   2   0  -9    0.00    0.40 
   3   0  -9  152.11    3.11 
   4   0  -9    0.28    0.57 
 -14   1  -9    0.06    0.72 
 -13   1  -9    1.42    0.84 
 -12   1  -9    2.91    0.89 
 -11   1  -9    4.76    0.97 
 -10   1  -9   17.03    1.43 
  -9   1  -9    0.17    0.61 
  -8   1  -9    5.20    0.84 
  -7   1  -9    0.17    0.49 
  -6   1  -9   21.56    1.20 
  -5   1  -9    8.60    0.62 
  -4   1  -9   40.93    1.16 
  -3   1  -9   59.62    1.30 
  -2   1  -9    0.24    0.27 
  -1   1  -9    0.77    0.27 
   0   1  -9    2.34    0.27 
   1   1  -9    7.10    0.34 
   2   1  -9   24.42    1.25 
   3   1  -9  107.77    2.53 
   4   1  -9   37.17    1.55 
   5   1  -9   14.39    1.12 
 -14   2  -9   -0.28    0.75 
 -13   2  -9   -0.04    0.71 
 -12   2  -9    9.85    1.26 
 -11   2  -9    0.81    0.75 
 -10   2  -9    2.34    0.91 
  -9   2  -9    2.77    0.84 
  -8   2  -9   21.39    1.42 
  -7   2  -9   15.16    1.14 
  -6   2  -9    0.11    0.53 
  -5   2  -9    0.37    0.48 
  -4   2  -9   57.19    1.35 
  -3   2  -9   10.85    0.62 
  -2   2  -9   47.28    1.06 
  -1   2  -9   27.55    0.76 
   0   2  -9   12.03    0.47 
   1   2  -9   40.16    0.66 
   2   2  -9    9.67    0.84 
   3   2  -9   36.09    1.50 
   4   2  -9   15.19    1.02 
   5   2  -9    9.56    0.90 
   6   2  -9   -0.36    0.56 
 -14   3  -9    0.14    0.88 
 -13   3  -9    3.32    1.10 
 -12   3  -9    0.48    0.83 
 -11   3  -9   -0.25    0.68 
 -10   3  -9    0.15    0.78 
  -9   3  -9    1.25    0.80 
  -8   3  -9    4.24    0.89 
  -7   3  -9   24.41    1.56 
  -6   3  -9   80.07    2.46 
  -5   3  -9   39.24    1.71 
  -4   3  -9    7.40    0.85 
  -3   3  -9  180.86    4.29 
  -2   3  -9   39.17    1.08 
  -1   3  -9    4.78    0.44 
   0   3  -9    5.90    0.41 
   1   3  -9   39.41    0.83 
   2   3  -9   56.19    1.86 
   3   3  -9   42.21    1.60 
   4   3  -9   16.90    1.04 
   5   3  -9   23.34    1.24 
   6   3  -9   47.80    1.87 
 -13   4  -9    9.80    1.42 
 -12   4  -9    1.88    1.02 
 -11   4  -9    0.46    0.96 
 -10   4  -9    1.33    0.92 
  -9   4  -9   27.26    1.87 
  -8   4  -9    0.60    0.89 
  -7   4  -9   29.07    1.85 
  -6   4  -9   10.58    1.32 
  -5   4  -9   93.96    2.68 
  -4   4  -9   11.60    1.05 
  -3   4  -9   55.52    1.45 
  -2   4  -9    0.56    0.44 
  -1   4  -9   32.88    1.03 
   0   4  -9    7.40    0.53 
   1   4  -9   19.46    1.23 
   2   4  -9   22.99    1.24 
   3   4  -9    3.73    0.63 
   4   4  -9    8.40    0.81 
   5   4  -9    2.79    0.63 
   6   4  -9   15.84    1.11 
 -13   5  -9    1.07    1.11 
 -12   5  -9    0.24    0.98 
 -11   5  -9    0.40    0.99 
 -10   5  -9   20.51    1.91 
  -9   5  -9    4.17    1.22 
  -8   5  -9    0.36    0.94 
  -7   5  -9   21.94    1.63 
  -6   5  -9   62.35    2.61 
  -5   5  -9   10.58    1.18 
  -4   5  -9    0.48    0.79 
  -3   5  -9   65.03    2.28 
  -2   5  -9   32.86    1.19 
  -1   5  -9    0.32    0.40 
   0   5  -9   -0.10    0.48 
   1   5  -9   36.42    1.65 
   2   5  -9    7.96    0.81 
   3   5  -9    1.69    0.53 
   4   5  -9    6.99    0.81 
   5   5  -9   28.17    1.39 
   6   5  -9   31.96    1.50 
 -12   6  -9    4.17    1.34 
 -11   6  -9    1.99    1.23 
 -10   6  -9    6.22    1.54 
  -9   6  -9    4.49    1.23 
  -8   6  -9    0.74    1.16 
  -7   6  -9    3.93    1.16 
  -6   6  -9    0.75    0.96 
  -5   6  -9   -0.02    0.99 
  -4   6  -9    8.55    1.27 
  -3   6  -9   21.72    1.57 
  -2   6  -9    3.19    0.64 
  -1   6  -9    0.84    0.72 
   0   6  -9    8.00    1.02 
   1   6  -9    1.42    0.60 
   2   6  -9    9.13    0.93 
   3   6  -9    4.24    0.68 
   4   6  -9  119.87    2.75 
 -12   7  -9    1.65    1.41 
 -11   7  -9    6.21    1.73 
 -10   7  -9   -0.01    1.15 
  -9   7  -9    5.78    1.58 
  -8   7  -9   -0.19    1.11 
  -7   7  -9    1.28    1.18 
  -6   7  -9    2.20    1.16 
  -5   7  -9   65.85    3.17 
  -4   7  -9    0.63    1.07 
  -2   7  -9   10.37    1.26 
  -1   7  -9    3.41    1.04 
   0   7  -9    0.88    0.74 
   1   7  -9    3.42    0.78 
   2   7  -9    1.97    0.70 
 -11   8  -9    0.03    1.34 
 -10   8  -9    1.56    1.47 
  -9   8  -9    3.42    1.49 
  -8   8  -9    2.00    1.54 
  -7   8  -9    4.28    1.58 
  -6   8  -9   21.58    2.32 
  -3   8  -9   19.94    1.74 
  -2   8  -9    2.51    0.96 
  -1   8  -9   57.40    2.59 
   0   8  -9   52.69    2.42 
  -3   9  -9    0.29    0.95 
  -2   9  -9    2.03    1.14 
  -5 -11  -8    0.36    1.46 
  -8 -10  -8    4.96    1.78 
  -7 -10  -8    2.61    1.43 
  -6 -10  -8   11.46    2.04 
  -5 -10  -8   12.39    2.16 
  -4 -10  -8    1.23    1.28 
  -3 -10  -8    0.93    1.31 
  -9  -9  -8    1.97    1.38 
  -8  -9  -8    0.35    1.21 
  -7  -9  -8    2.08    1.34 
  -6  -9  -8   11.07    1.86 
  -5  -9  -8   -0.11    1.01 
  -4  -9  -8   17.03    2.18 
  -3  -9  -8   10.15    1.74 
  -2  -9  -8   10.59    1.89 
 -10  -8  -8    0.25    1.18 
  -9  -8  -8    0.01    1.01 
  -8  -8  -8    7.40    1.59 
  -7  -8  -8    3.02    1.24 
  -6  -8  -8   13.14    1.83 
  -5  -8  -8    1.34    1.11 
  -4  -8  -8    3.17    1.22 
  -3  -8  -8    2.47    1.13 
  -2  -8  -8   -0.02    0.97 
 -11  -7  -8   -0.21    1.00 
 -10  -7  -8    0.10    0.96 
  -9  -7  -8    1.96    1.06 
  -8  -7  -8    0.56    0.91 
  -7  -7  -8    0.77    0.98 
  -6  -7  -8   21.00    2.05 
  -5  -7  -8   -0.11    0.92 
  -4  -7  -8   10.26    1.57 
  -3  -7  -8   22.68    2.00 
  -2  -7  -8   54.70    2.92 
  -1  -7  -8    0.97    0.96 
 -12  -6  -8    0.20    0.85 
 -11  -6  -8   -0.13    0.77 
 -10  -6  -8    3.62    1.11 
  -9  -6  -8    8.51    1.39 
  -8  -6  -8    2.42    1.01 
  -7  -6  -8   12.94    1.57 
  -6  -6  -8    0.62    0.90 
  -5  -6  -8   41.49    2.43 
  -4  -6  -8    0.81    0.89 
  -3  -6  -8    5.11    1.15 
  -2  -6  -8    3.01    1.01 
  -1  -6  -8    3.07    1.05 
   0  -6  -8   -0.05    0.75 
 -13  -5  -8   -0.37    0.78 
 -12  -5  -8    0.06    0.73 
 -11  -5  -8    7.82    1.25 
 -10  -5  -8    0.31    0.72 
  -9  -5  -8    6.25    1.10 
  -8  -5  -8    2.56    0.87 
  -7  -5  -8   30.64    2.00 
  -6  -5  -8    5.75    1.09 
  -5  -5  -8    1.41    0.84 
  -4  -5  -8    4.81    1.07 
  -3  -5  -8   59.34    2.59 
  -2  -5  -8  124.89    2.18 
  -1  -5  -8    2.40    0.76 
   0  -5  -8    5.14    0.98 
 -13  -4  -8   -0.28    0.71 
 -12  -4  -8    6.00    1.12 
 -11  -4  -8   -0.19    0.61 
 -10  -4  -8   14.78    1.42 
  -9  -4  -8   13.45    1.33 
  -8  -4  -8    2.37    0.76 
  -7  -4  -8    3.20    0.80 
  -6  -4  -8   55.05    2.36 
  -5  -4  -8   28.10    1.72 
  -4  -4  -8   94.03    2.07 
  -3  -4  -8   12.76    0.74 
  -2  -4  -8    1.21    0.41 
  -1  -4  -8   26.27    1.01 
   0  -4  -8   93.93   20.11 
   1  -4  -8   -0.15    0.50 
 -14  -3  -8    6.21    1.22 
 -13  -3  -8    0.24    0.69 
 -12  -3  -8    4.46    0.97 
 -11  -3  -8    0.07    0.61 
 -10  -3  -8    0.81    0.70 
  -9  -3  -8    7.65    1.05 
  -8  -3  -8   30.59    1.81 
  -7  -3  -8    0.55    0.63 
  -6  -3  -8    8.61    0.66 
  -5  -3  -8    1.17    0.38 
  -4  -3  -8   48.48    1.29 
  -3  -3  -8  188.31    2.78 
  -2  -3  -8   52.67    4.72 
  -1  -3  -8    1.05    0.33 
   0  -3  -8   86.92    1.65 
   1  -3  -8    9.80    0.65 
 -14  -2  -8    0.33    0.74 
 -13  -2  -8    3.81    0.95 
 -12  -2  -8    1.53    0.80 
 -11  -2  -8    0.22    0.65 
 -10  -2  -8    0.38    0.66 
  -9  -2  -8   26.68    1.63 
  -8  -2  -8   40.03    1.86 
  -7  -2  -8    9.30    0.94 
  -6  -2  -8    0.76    0.32 
  -5  -2  -8   48.75    5.16 
  -4  -2  -8   36.61    1.08 
  -3  -2  -8   29.37    0.92 
  -2  -2  -8  157.60    2.10 
  -1  -2  -8    8.23    0.53 
   0  -2  -8   98.74    1.60 
   1  -2  -8    4.36    0.45 
   2  -2  -8    0.58    0.60 
 -14  -1  -8    1.85    0.95 
 -13  -1  -8    1.11    0.75 
 -12  -1  -8    6.07    1.03 
 -11  -1  -8    1.83    0.75 
 -10  -1  -8   32.14    1.82 
  -9  -1  -8   19.71    1.41 
  -8  -1  -8    6.08    0.89 
  -7  -1  -8    4.88    0.58 
  -6  -1  -8    3.30    0.49 
  -5  -1  -8    2.23    0.42 
  -4  -1  -8    6.59    0.52 
  -3  -1  -8   90.15    1.59 
  -2  -1  -8   10.97    0.57 
  -1  -1  -8   57.69    1.15 
   0  -1  -8   27.33    0.81 
   1  -1  -8  109.07    1.55 
   2  -1  -8   24.20    1.21 
   3  -1  -8  188.80    3.50 
 -14   0  -8    1.63    0.85 
 -13   0  -8    0.13    0.69 
 -12   0  -8    0.18    0.64 
 -11   0  -8    0.67    0.65 
 -10   0  -8    4.34    0.85 
  -9   0  -8    0.09    0.58 
  -8   0  -8   84.45    2.57 
  -7   0  -8    0.00    0.47 
  -6   0  -8   26.82    1.32 
  -5   0  -8   -0.10    0.28 
  -4   0  -8   10.39    0.62 
  -3   0  -8    0.14    0.30 
  -2   0  -8    0.21    0.29 
  -1   0  -8    0.02    0.23 
   0   0  -8   44.09    0.87 
   1   0  -8    0.08    0.20 
   2   0  -8   61.42    1.77 
   3   0  -8    0.28    0.42 
   4   0  -8  289.11    4.42 
 -14   1  -8    2.46    0.91 
 -13   1  -8    1.05    0.83 
 -12   1  -8    7.58    1.14 
 -11   1  -8    2.24    0.74 
 -10   1  -8   32.15    1.77 
  -9   1  -8   18.22    1.36 
  -8   1  -8    7.07    0.92 
  -7   1  -8    4.36    0.76 
  -6   1  -8    3.57    0.67 
  -5   1  -8    2.20    0.55 
  -4   1  -8    5.76    0.51 
  -3   1  -8   89.39    1.53 
  -2   1  -8   11.32    0.56 
  -1   1  -8   62.77    1.08 
   0   1  -8   29.58    0.76 
   1   1  -8  103.52    1.12 
   2   1  -8   25.81    1.23 
   3   1  -8  190.43    3.33 
   4   1  -8  213.54    3.61 
   5   1  -8    0.24    0.56 
 -14   2  -8    0.14    0.74 
 -13   2  -8    3.37    0.98 
 -12   2  -8    2.73    0.91 
 -11   2  -8    0.25    0.72 
 -10   2  -8    0.72    0.71 
  -9   2  -8   29.67    1.69 
  -8   2  -8   42.07    1.89 
  -7   2  -8   11.03    1.05 
  -6   2  -8    1.28    0.55 
  -5   2  -8   64.53    1.94 
  -4   2  -8   39.28    1.45 
  -3   2  -8   29.88    0.93 
  -2   2  -8  168.60    2.07 
  -1   2  -8    8.21    0.47 
   0   2  -8  106.68    1.64 
   1   2  -8    3.69    0.25 
   2   2  -8    0.59    0.39 
   3   2  -8   23.26    1.13 
   4   2  -8   84.04    2.16 
   5   2  -8   12.08    0.96 
 -14   3  -8    8.93    1.42 
 -13   3  -8   -0.84    0.81 
 -12   3  -8    3.16    1.00 
 -11   3  -8    0.34    0.71 
 -10   3  -8    0.43    0.72 
  -9   3  -8    9.34    1.14 
  -8   3  -8   31.98    1.79 
  -7   3  -8    1.02    0.81 
  -6   3  -8    8.38    1.05 
  -5   3  -8    0.84    0.65 
  -4   3  -8   50.56    1.75 
  -3   3  -8  181.76    2.96 
  -2   3  -8   68.08    1.38 
  -1   3  -8    1.21    0.34 
   0   3  -8   91.11    1.38 
   1   3  -8   10.11    0.46 
   2   3  -8   10.73    0.84 
   3   3  -8  295.93    4.12 
   4   3  -8  116.30    2.55 
   5   3  -8   15.26    1.01 
   6   3  -8   25.02    1.33 
 -14   4  -8    0.27    0.88 
 -13   4  -8    0.23    0.88 
 -12   4  -8    8.16    1.35 
 -11   4  -8   -0.15    0.79 
 -10   4  -8   18.35    1.66 
  -9   4  -8   17.80    1.64 
  -8   4  -8    2.91    1.04 
  -7   4  -8    5.42    1.01 
  -6   4  -8   49.56    2.02 
  -5   4  -8   32.14    1.68 
  -4   4  -8   99.78    2.69 
  -3   4  -8   12.80    1.09 
  -2   4  -8    1.87    0.45 
  -1   4  -8   24.14    0.87 
   0   4  -8  156.87    2.23 
   1   4  -8   -0.08    0.41 
   2   4  -8   21.68    1.12 
   3   4  -8  162.65    3.06 
   4   4  -8   20.17    1.07 
   5   4  -8    0.93    0.51 
   6   4  -8   -0.01    0.55 
 -13   5  -8    0.34    1.00 
 -12   5  -8   -0.31    0.97 
 -11   5  -8   10.73    1.55 
 -10   5  -8    1.10    1.22 
  -9   5  -8    8.42    1.39 
  -8   5  -8    2.04    0.94 
  -7   5  -8   39.50    2.28 
  -6   5  -8    5.73    1.08 
  -5   5  -8    2.04    0.93 
  -4   5  -8    6.22    1.05 
  -3   5  -8   66.27    2.29 
  -2   5  -8  129.11    3.00 
  -1   5  -8    3.26    0.56 
   0   5  -8    6.73    0.85 
   1   5  -8   53.99    1.97 
   2   5  -8    0.42    0.46 
   3   5  -8   28.32    1.27 
   4   5  -8    0.26    0.42 
   5   5  -8   54.97    1.75 
   6   5  -8   13.99    1.04 
 -13   6  -8    1.98    1.27 
 -12   6  -8    1.29    1.23 
 -11   6  -8   -0.20    1.18 
 -10   6  -8    6.26    1.33 
  -9   6  -8   11.31    1.60 
  -8   6  -8    2.67    1.21 
  -7   6  -8   14.84    1.62 
  -6   6  -8    0.97    1.04 
  -5   6  -8   51.65    2.68 
  -4   6  -8   -0.04    0.72 
  -3   6  -8    7.03    1.11 
  -2   6  -8    3.38    0.97 
  -1   6  -8    0.55    0.68 
   0   6  -8    0.25    0.50 
   1   6  -8   11.43    0.99 
   2   6  -8    0.93    0.47 
   3   6  -8    0.09    0.49 
   4   6  -8   24.35    1.25 
 -12   7  -8    6.21    1.87 
 -11   7  -8    0.14    1.19 
  -9   7  -8    3.10    1.30 
  -8   7  -8    0.08    1.12 
  -7   7  -8    0.02    1.08 
  -6   7  -8   26.09    2.26 
  -5   7  -8    0.55    1.07 
  -4   7  -8   11.42    1.45 
  -3   7  -8   23.14    1.90 
  -1   7  -8    0.90    0.82 
   0   7  -8    0.28    0.64 
   1   7  -8   28.37    1.54 
   2   7  -8   64.83    2.15 
 -11   8  -8    1.99    1.50 
 -10   8  -8   -0.52    1.22 
  -9   8  -8    0.83    1.33 
  -8   8  -8   10.76    1.88 
  -7   8  -8    3.87    1.65 
  -6   8  -8   18.00    1.99 
  -5   8  -8    2.69    1.15 
  -4   8  -8    6.40    1.54 
  -3   8  -8    2.88    1.49 
  -2   8  -8    0.06    0.81 
  -1   8  -8    3.20    1.07 
   0   8  -8   39.98    1.98 
 -10   9  -8    5.95    2.02 
  -9   9  -8    2.17    1.75 
  -8   9  -8   -0.38    1.47 
  -7   9  -8    2.88    1.54 
  -6   9  -8   13.66    2.07 
  -5   9  -8   -0.22    1.45 
  -6 -11  -7    0.48    1.49 
  -5 -11  -7    1.76    1.46 
  -8 -10  -7    2.69    1.55 
  -7 -10  -7    3.84    1.49 
  -6 -10  -7    7.14    1.72 
  -5 -10  -7    2.90    1.52 
  -4 -10  -7    1.12    1.22 
 -10  -9  -7    1.62    1.47 
  -9  -9  -7    0.16    1.18 
  -8  -9  -7   -0.02    1.14 
  -7  -9  -7    0.58    1.18 
  -6  -9  -7   -0.17    1.01 
  -5  -9  -7   -0.29    0.99 
  -4  -9  -7   10.30    1.86 
  -3  -9  -7   10.51    1.70 
  -2  -9  -7   14.10    1.99 
 -11  -8  -7    0.59    1.19 
 -10  -8  -7    0.52    1.26 
  -9  -8  -7    7.82    1.60 
  -8  -8  -7    0.56    1.07 
  -7  -8  -7    4.90    1.30 
  -6  -8  -7   23.32    2.24 
  -5  -8  -7    4.62    1.41 
  -4  -8  -7   27.74    2.36 
  -3  -8  -7    0.65    1.07 
  -2  -8  -7   18.34    1.93 
 -12  -7  -7    0.22    1.10 
 -11  -7  -7    1.97    1.14 
 -10  -7  -7    0.45    0.97 
  -9  -7  -7    2.12    1.09 
  -8  -7  -7   -0.08    0.91 
  -7  -7  -7   10.84    1.57 
  -6  -7  -7   36.13    2.52 
  -5  -7  -7    3.92    1.15 
  -4  -7  -7    1.60    1.02 
  -3  -7  -7    8.01    1.35 
  -2  -7  -7   17.89    1.84 
  -1  -7  -7    5.18    1.22 
 -13  -6  -7   -0.33    0.90 
 -12  -6  -7   -1.09    0.77 
 -11  -6  -7    1.26    0.94 
 -10  -6  -7    3.52    1.05 
  -9  -6  -7    1.13    0.88 
  -8  -6  -7    6.24    1.26 
  -7  -6  -7   44.33    2.58 
  -6  -6  -7   32.83    2.26 
  -5  -6  -7    7.21    1.23 
  -4  -6  -7    2.50    0.98 
  -3  -6  -7   -0.33    0.76 
  -2  -6  -7   14.38    1.48 
  -1  -6  -7   56.32    2.71 
   0  -6  -7    0.79    0.84 
 -13  -5  -7    0.74    0.88 
 -12  -5  -7    2.78    0.94 
 -11  -5  -7    0.34    0.68 
 -10  -5  -7    2.55    0.91 
  -9  -5  -7    2.01    0.86 
  -8  -5  -7    1.94    0.80 
  -7  -5  -7    6.51    1.11 
  -6  -5  -7    0.07    0.70 
  -5  -5  -7    0.05    0.68 
  -4  -5  -7   54.99    2.54 
  -3  -5  -7   32.50    1.91 
  -2  -5  -7    0.86    0.63 
  -1  -5  -7   74.55    2.72 
   0  -5  -7   61.82    2.52 
 -14  -4  -7    0.55    0.92 
 -13  -4  -7    5.80    1.16 
 -12  -4  -7    0.89    0.78 
 -11  -4  -7    2.99    0.89 
 -10  -4  -7    0.80    0.71 
  -9  -4  -7    3.03    0.81 
  -8  -4  -7    0.70    0.65 
  -7  -4  -7   11.98    1.21 
  -6  -4  -7   27.66    1.70 
  -5  -4  -7  144.13    3.63 
  -4  -4  -7   17.33    0.81 
  -3  -4  -7  279.27    3.00 
  -2  -4  -7   15.90    0.77 
  -1  -4  -7  174.47    2.40 
   0  -4  -7   92.90    2.71 
   1  -4  -7    0.26    0.59 
 -14  -3  -7    0.60    0.75 
 -13  -3  -7    0.64    0.69 
 -12  -3  -7    0.56    0.67 
 -11  -3  -7    4.33    0.90 
 -10  -3  -7    5.78    0.96 
  -9  -3  -7    3.14    0.79 
  -8  -3  -7    7.39    0.99 
  -7  -3  -7   31.88    1.14 
  -6  -3  -7   35.44    1.12 
  -5  -3  -7   12.60    0.68 
  -4  -3  -7    7.79    0.55 
  -3  -3  -7  140.69    1.98 
  -2  -3  -7    5.93    0.52 
  -1  -3  -7   30.08    2.95 
   0  -3  -7  124.32    1.90 
   1  -3  -7   95.79    1.70 
 -15  -2  -7    0.28    0.79 
 -14  -2  -7   15.01    1.60 
 -13  -2  -7   -0.18    0.67 
 -12  -2  -7    3.40    0.93 
 -11  -2  -7    1.09    0.74 
 -10  -2  -7   22.39    1.63 
  -9  -2  -7   12.23    1.27 
  -8  -2  -7   27.99    1.68 
  -7  -2  -7    1.24    0.42 
  -6  -2  -7   36.50    2.76 
  -5  -2  -7    5.85    0.73 
  -4  -2  -7   47.85    1.74 
  -3  -2  -7    0.66    0.26 
  -2  -2  -7    0.51    0.27 
  -1  -2  -7    1.45    0.31 
   0  -2  -7   49.33    1.34 
   1  -2  -7   12.06    0.61 
   2  -2  -7  109.15    2.52 
 -15  -1  -7    0.25    0.83 
 -14  -1  -7    0.40    0.70 
 -13  -1  -7    0.31    0.69 
 -12  -1  -7    0.04    0.61 
 -11  -1  -7    0.71    0.65 
 -10  -1  -7    2.49    0.72 
  -9  -1  -7   28.32    1.60 
  -8  -1  -7   34.85    1.71 
  -7  -1  -7   48.68    1.89 
  -6  -1  -7    9.75    0.87 
  -5  -1  -7    0.58    0.34 
  -4  -1  -7  248.32    4.44 
  -3  -1  -7   29.94    0.94 
  -2  -1  -7  198.76    2.20 
  -1  -1  -7   32.06    0.82 
   0  -1  -7  129.53    1.96 
   1  -1  -7  131.69    1.63 
   2  -1  -7    1.21    0.49 
   3  -1  -7    5.73    0.78 
 -15   0  -7    0.40    0.77 
 -14   0  -7   -0.17    0.67 
 -13   0  -7    7.71    1.12 
 -12   0  -7    0.28    0.64 
 -11   0  -7   10.91    1.21 
 -10   0  -7    1.16    0.69 
  -9   0  -7   48.98    2.11 
  -8   0  -7    0.33    0.59 
  -7   0  -7   18.59    1.22 
  -6   0  -7    0.14    0.49 
  -5   0  -7    7.50    0.73 
  -4   0  -7    0.03    0.28 
  -3   0  -7  426.10    5.15 
  -2   0  -7    0.16    0.25 
  -1   0  -7   19.63    0.60 
   0   0  -7    0.12    0.18 
   1   0  -7   14.48    0.46 
   2   0  -7    0.01    0.27 
   3   0  -7    7.80    0.73 
   4   0  -7    0.96    0.54 
 -15   1  -7    0.73    0.83 
 -14   1  -7    0.76    0.83 
 -13   1  -7    0.04    0.66 
 -12   1  -7   -0.08    0.60 
 -11   1  -7    0.84    0.67 
 -10   1  -7    3.00    0.82 
  -9   1  -7   34.24    1.82 
  -8   1  -7   39.01    1.83 
  -7   1  -7   53.98    1.99 
  -6   1  -7   10.44    0.90 
  -5   1  -7    0.58    0.43 
  -4   1  -7  227.76    3.30 
  -3   1  -7   32.53    0.89 
  -2   1  -7  210.92    2.45 
  -1   1  -7   33.58    0.74 
   0   1  -7  124.45    1.32 
   1   1  -7  125.69    1.22 
   2   1  -7    0.31    0.34 
   3   1  -7    4.56    0.58 
   4   1  -7  149.89    2.86 
 -15   2  -7    0.85    0.79 
 -14   2  -7   16.61    1.64 
 -13   2  -7    0.14    0.79 
 -12   2  -7    3.10    0.88 
 -11   2  -7    0.90    0.71 
 -10   2  -7   20.43    1.48 
  -9   2  -7   11.81    1.16 
  -8   2  -7   27.33    1.56 
  -7   2  -7    1.36    0.70 
  -6   2  -7   47.32    1.80 
  -5   2  -7    7.73    0.82 
  -4   2  -7   50.92    1.63 
  -3   2  -7    1.18    0.44 
  -2   2  -7    0.71    0.31 
  -1   2  -7    1.09    0.26 
   0   2  -7   51.09    0.86 
   1   2  -7   12.24    0.36 
   2   2  -7  100.72    2.17 
   3   2  -7    5.10    0.56 
   4   2  -7    7.47    0.70 
   5   2  -7  254.89    3.90 
 -14   3  -7    0.90    0.85 
 -13   3  -7    1.06    0.82 
 -12   3  -7    0.82    0.83 
 -11   3  -7    5.54    1.07 
 -10   3  -7    5.02    1.02 
  -9   3  -7    2.43    0.91 
  -8   3  -7    6.59    1.05 
  -7   3  -7   33.53    1.81 
  -6   3  -7   39.26    1.81 
  -5   3  -7   11.98    0.96 
  -4   3  -7    8.91    0.88 
  -3   3  -7  142.96    2.70 
  -2   3  -7    5.80    0.69 
  -1   3  -7   43.00    1.07 
   0   3  -7  120.85    1.75 
   1   3  -7   95.60    2.27 
   2   3  -7    0.38    0.41 
   3   3  -7   20.99    1.00 
   4   3  -7    9.19    0.77 
   5   3  -7   31.38    1.33 
 -14   4  -7    1.33    1.00 
 -13   4  -7    7.43    1.36 
 -12   4  -7    0.25    0.96 
 -11   4  -7    4.17    1.10 
 -10   4  -7    0.69    0.91 
  -9   4  -7    4.16    1.15 
  -8   4  -7    0.85    0.84 
  -7   4  -7   13.98    1.28 
  -6   4  -7   33.72    1.77 
  -5   4  -7  155.94    3.52 
  -4   4  -7   18.19    1.27 
  -3   4  -7  289.79    4.53 
  -2   4  -7   14.55    0.98 
  -1   4  -7  179.40    2.35 
   0   4  -7   93.35    2.37 
   1   4  -7    0.18    0.44 
   2   4  -7  149.75    2.72 
   3   4  -7   54.61    1.65 
   4   4  -7    2.86    0.51 
   5   4  -7   36.15    1.38 
   6   4  -7    0.47    0.57 
 -14   5  -7    0.98    1.11 
 -13   5  -7    1.17    1.15 
 -12   5  -7    5.64    1.29 
 -11   5  -7    0.46    1.12 
 -10   5  -7    3.62    1.11 
  -9   5  -7    1.56    0.93 
  -8   5  -7    1.58    1.09 
  -7   5  -7    8.32    1.30 
  -6   5  -7    0.67    0.88 
  -5   5  -7    0.44    0.80 
  -4   5  -7   53.29    2.17 
  -3   5  -7   39.37    1.78 
  -2   5  -7    0.36    0.73 
  -1   5  -7   79.10    2.45 
   0   5  -7   65.94    2.16 
   1   5  -7    5.83    0.70 
   2   5  -7   54.59    1.72 
   3   5  -7    3.14    0.53 
   4   5  -7   74.19    1.95 
   5   5  -7   -0.02    0.46 
 -13   6  -7   -0.03    1.18 
 -12   6  -7    1.01    1.26 
 -11   6  -7    1.57    1.17 
 -10   6  -7    5.09    1.24 
  -9   6  -7    1.51    1.10 
  -8   6  -7    9.17    1.46 
  -7   6  -7   52.45    2.75 
  -6   6  -7   42.69    2.52 
  -5   6  -7    9.31    1.36 
  -4   6  -7    2.22    0.93 
  -3   6  -7    0.61    0.88 
  -1   6  -7   62.21    2.38 
   0   6  -7    0.77    0.55 
   1   6  -7    9.96    0.89 
   2   6  -7    0.32    0.49 
   3   6  -7   22.15    1.13 
 -12   7  -7    1.72    1.31 
 -11   7  -7    2.40    1.48 
 -10   7  -7   -0.04    1.11 
  -9   7  -7    2.99    1.28 
  -8   7  -7   -0.82    1.15 
  -7   7  -7   13.75    1.89 
  -6   7  -7   38.44    2.42 
  -5   7  -7    3.93    1.06 
  -4   7  -7    1.71    1.14 
  -3   7  -7    8.69    1.46 
  -1   7  -7    5.62    1.01 
   0   7  -7    0.26    0.69 
   1   7  -7    7.03    0.89 
 -12   8  -7    1.67    1.45 
 -11   8  -7    2.34    1.67 
 -10   8  -7    1.70    1.41 
  -9   8  -7   12.86    1.96 
  -8   8  -7    1.71    1.57 
  -7   8  -7    7.55    1.59 
  -6   8  -7   24.00    2.10 
  -5   8  -7    6.08    1.61 
  -4   8  -7   34.18    2.56 
  -1   8  -7    6.84    1.08 
 -11   9  -7    3.98    1.91 
 -10   9  -7    2.23    1.72 
  -9   9  -7    0.75    1.60 
  -8   9  -7    0.10    1.45 
  -7   9  -7    1.26    1.47 
  -6   9  -7   -0.49    1.23 
  -5   9  -7    0.61    1.46 
  -4   9  -7   13.78    2.09 
  -9  10  -7    1.90    1.85 
  -8  10  -7    1.65    1.61 
  -7  10  -7    5.72    1.76 
  -6  10  -7   11.87    2.17 
  -5  10  -7    2.31    1.58 
  -7 -11  -6   -0.12    1.64 
  -6 -11  -6    4.41    1.67 
  -5 -11  -6    0.12    1.21 
  -9 -10  -6    0.19    1.55 
  -8 -10  -6   -0.76    1.24 
  -7 -10  -6    4.52    1.55 
  -6 -10  -6   16.65    2.30 
  -5 -10  -6    0.01    1.24 
  -4 -10  -6   12.06    2.00 
 -10  -9  -6    1.59    1.45 
  -9  -9  -6    3.08    1.32 
  -8  -9  -6    3.02    1.34 
  -7  -9  -6    0.22    1.10 
  -6  -9  -6   10.48    1.80 
  -5  -9  -6    5.62    1.41 
  -4  -9  -6   20.98    2.27 
  -3  -9  -6   -0.23    0.96 
 -11  -8  -6    2.78    1.38 
 -10  -8  -6    4.55    1.47 
  -9  -8  -6    0.66    1.00 
  -8  -8  -6    1.15    1.10 
  -7  -8  -6   21.99    2.13 
  -6  -8  -6    0.06    0.91 
  -5  -8  -6    4.00    1.24 
  -4  -8  -6   42.71    2.75 
  -3  -8  -6   23.82    2.15 
  -2  -8  -6   12.16    1.66 
 -12  -7  -6    1.67    1.12 
 -11  -7  -6    1.11    1.05 
 -10  -7  -6    2.02    1.10 
  -9  -7  -6    5.55    1.30 
  -8  -7  -6   11.18    1.58 
  -7  -7  -6    4.37    1.17 
  -6  -7  -6   65.03    3.18 
  -5  -7  -6   -0.47    0.79 
  -4  -7  -6    0.13    0.73 
  -3  -7  -6    4.03    1.12 
  -2  -7  -6   11.67    1.55 
  -1  -7  -6   10.50    1.42 
 -13  -6  -6    0.94    0.91 
 -12  -6  -6    1.51    0.94 
 -11  -6  -6    9.42    1.38 
 -10  -6  -6    0.49    0.81 
  -9  -6  -6    2.29    0.87 
  -8  -6  -6   16.16    1.65 
  -7  -6  -6   17.22    1.71 
  -6  -6  -6   13.47    1.51 
  -5  -6  -6   14.25    1.50 
  -4  -6  -6   30.38    2.04 
  -3  -6  -6  108.63    3.65 
  -2  -6  -6   43.79    2.33 
  -1  -6  -6    6.12    1.12 
   0  -6  -6   17.05    1.60 
 -14  -5  -6    1.07    0.95 
 -13  -5  -6   10.10    1.40 
 -12  -5  -6    0.24    0.72 
 -11  -5  -6   -0.16    0.62 
 -10  -5  -6    0.08    0.65 
  -9  -5  -6   -0.12    0.68 
  -8  -5  -6   26.74    1.78 
  -7  -5  -6   88.53    3.14 
  -6  -5  -6   32.76    1.97 
  -5  -5  -6   52.83    2.44 
  -4  -5  -6   13.66    1.34 
  -3  -5  -6   52.86    2.33 
  -2  -5  -6   -0.34    0.58 
  -1  -5  -6    5.03    0.89 
   0  -5  -6  405.79    6.35 
 -14  -4  -6    2.56    1.07 
 -13  -4  -6    3.90    1.03 
 -12  -4  -6   -0.34    0.63 
 -11  -4  -6    1.64    0.79 
 -10  -4  -6   12.99    1.36 
  -9  -4  -6    9.42    1.18 
  -8  -4  -6   32.69    1.86 
  -7  -4  -6    1.42    0.57 
  -6  -4  -6   51.70    2.23 
  -5  -4  -6    2.85    0.44 
  -4  -4  -6  101.91    1.79 
  -3  -4  -6    0.26    0.34 
  -2  -4  -6  112.23    1.91 
  -1  -4  -6   53.32    1.27 
   0  -4  -6  108.73    2.97 
 -15  -3  -6    2.75    1.03 
 -14  -3  -6    0.20    0.69 
 -13  -3  -6    0.63    0.70 
 -12  -3  -6    0.79    0.63 
 -11  -3  -6    0.41    0.59 
 -10  -3  -6    3.84    0.79 
  -9  -3  -6    1.13    0.65 
  -8  -3  -6    9.15    1.03 
  -7  -3  -6    1.35    0.46 
  -6  -3  -6   60.39    1.37 
  -5  -3  -6   35.72    1.06 
  -4  -3  -6   14.66    0.68 
  -3  -3  -6  181.30    3.02 
  -2  -3  -6    5.29    0.46 
  -1  -3  -6  108.13    2.49 
   0  -3  -6  207.48    3.62 
   1  -3  -6   36.17    1.48 
 -15  -2  -6    6.35    1.37 
 -14  -2  -6   -0.60    0.70 
 -13  -2  -6    0.63    0.77 
 -12  -2  -6    0.01    0.66 
 -11  -2  -6    3.40    0.89 
 -10  -2  -6    0.27    0.67 
  -9  -2  -6    7.73    1.07 
  -8  -2  -6    0.47    0.67 
  -7  -2  -6    3.61    0.71 
  -6  -2  -6    3.91    0.47 
  -5  -2  -6   74.92    2.14 
  -4  -2  -6   43.27    1.08 
  -3  -2  -6   83.57    4.59 
  -2  -2  -6  111.34    2.26 
  -1  -2  -6   16.68    0.62 
   0  -2  -6   21.64    0.71 
   1  -2  -6   78.69    1.34 
 -15  -1  -6    0.31    0.73 
 -14  -1  -6    0.73    0.70 
 -13  -1  -6    1.13    0.71 
 -12  -1  -6    2.11    0.73 
 -11  -1  -6    9.41    1.08 
 -10  -1  -6    7.30    0.97 
  -9  -1  -6    3.95    0.76 
  -8  -1  -6   11.73    1.07 
  -7  -1  -6    1.41    0.54 
  -6  -1  -6   25.64    1.29 
  -5  -1  -6  100.20    2.38 
  -4  -1  -6   22.08    0.79 
  -3  -1  -6   13.88    0.61 
  -2  -1  -6   11.56    0.52 
  -1  -1  -6    1.44    0.26 
   0  -1  -6  169.37    1.79 
   1  -1  -6    5.56    0.39 
   2  -1  -6   28.95    1.20 
 -15   0  -6    0.32    0.72 
 -14   0  -6    3.89    0.93 
 -13   0  -6    0.09    0.60 
 -12   0  -6    2.32    0.80 
 -11   0  -6   -0.16    0.57 
 -10   0  -6   77.98    2.71 
  -9   0  -6    0.27    0.56 
  -8   0  -6  165.18    3.47 
  -7   0  -6   -0.08    0.44 
  -6   0  -6  287.22    4.17 
  -5   0  -6   -0.14    0.38 
  -4   0  -6   12.07    0.81 
  -3   0  -6   -0.01    0.25 
  -2   0  -6  416.73    3.10 
  -1   0  -6    0.10    0.21 
   0   0  -6  125.99    1.53 
   1   0  -6    0.10    0.17 
   2   0  -6  552.10    5.51 
   3   0  -6    0.14    0.43 
 -15   1  -6    0.32    0.80 
 -14   1  -6    1.17    0.76 
 -13   1  -6    1.62    0.76 
 -12   1  -6    1.70    0.77 
 -11   1  -6    9.22    1.17 
 -10   1  -6    8.12    1.07 
  -9   1  -6    4.19    0.81 
  -8   1  -6   11.70    1.05 
  -7   1  -6    1.24    0.55 
  -6   1  -6    5.06    0.67 
  -5   1  -6  102.22    2.34 
  -4   1  -6   21.21    1.01 
  -3   1  -6   13.16    0.74 
  -2   1  -6   11.60    0.51 
  -1   1  -6    1.76    0.25 
   0   1  -6  171.11    1.52 
   1   1  -6    5.40    0.53 
   2   1  -6   28.41    1.11 
   3   1  -6   10.37    0.73 
   4   1  -6   42.17    1.47 
 -15   2  -6    7.03    1.27 
 -14   2  -6    0.22    0.84 
 -13   2  -6    0.75    0.77 
 -12   2  -6   -0.09    0.63 
 -11   2  -6    3.10    0.83 
 -10   2  -6    0.59    0.66 
  -9   2  -6    7.16    0.98 
  -8   2  -6    0.01    0.64 
  -7   2  -6    3.66    0.73 
  -6   2  -6    3.64    0.69 
  -5   2  -6   78.08    2.18 
  -4   2  -6   45.16    1.52 
  -3   2  -6   93.10    1.91 
  -2   2  -6  123.55    2.14 
  -1   2  -6   17.33    0.58 
   0   2  -6   21.92    0.64 
   1   2  -6   66.28    0.88 
   2   2  -6    0.43    0.31 
   3   2  -6   16.64    0.84 
   4   2  -6    3.52    0.53 
 -15   3  -6    4.62    1.21 
 -14   3  -6    0.03    0.83 
 -13   3  -6    1.56    0.89 
 -12   3  -6    0.72    0.80 
 -11   3  -6    0.53    0.85 
 -10   3  -6    5.01    1.01 
  -9   3  -6    2.15    0.84 
  -8   3  -6   12.29    1.36 
  -7   3  -6    1.48    0.75 
  -6   3  -6   59.76    2.07 
  -5   3  -6   34.09    1.52 
  -4   3  -6   13.95    1.02 
  -3   3  -6  178.78    3.11 
  -2   3  -6    4.18    0.63 
  -1   3  -6  104.03    1.56 
   0   3  -6  202.73    3.24 
   1   3  -6   41.13    1.38 
   2   3  -6  124.97    2.28 
   3   3  -6    0.61    0.41 
   4   3  -6   86.98    1.92 
   5   3  -6    1.59    0.56 
 -14   4  -6    3.47    1.11 
 -13   4  -6    4.93    1.24 
 -12   4  -6    0.08    0.86 
 -11   4  -6    2.06    0.97 
 -10   4  -6   17.44    1.75 
  -9   4  -6   10.36    1.29 
  -8   4  -6   34.69    1.93 
  -7   4  -6    1.72    0.83 
  -6   4  -6   54.47    2.24 
  -5   4  -6    5.17    0.92 
  -4   4  -6  108.60    2.94 
  -3   4  -6    0.11    0.59 
  -2   4  -6  110.75    2.61 
   0   4  -6  112.96    2.59 
   1   4  -6   20.83    1.03 
   2   4  -6  423.56    4.71 
   3   4  -6   33.50    1.21 
   4   4  -6  115.00    2.20 
   5   4  -6    3.46    0.57 
 -14   5  -6    2.63    1.21 
 -13   5  -6   13.67    1.77 
 -12   5  -6    0.89    1.14 
 -11   5  -6    0.08    1.01 
 -10   5  -6    0.26    0.94 
  -9   5  -6   -0.15    0.94 
  -8   5  -6   32.54    2.06 
  -7   5  -6  108.00    3.55 
  -6   5  -6   37.89    2.13 
  -5   5  -6   50.46    2.21 
  -4   5  -6   14.63    1.34 
  -3   5  -6   56.78    2.24 
   0   5  -6  429.05    5.50 
   1   5  -6   95.00    2.32 
   2   5  -6   35.03    1.35 
   3   5  -6  107.04    2.16 
   4   5  -6   91.72    1.95 
   5   5  -6    0.35    0.46 
 -12   6  -6    1.92    1.19 
 -11   6  -6   15.02    1.78 
 -10   6  -6    0.28    1.06 
  -9   6  -6    1.24    1.06 
  -8   6  -6   20.77    1.92 
  -7   6  -6   24.35    2.05 
  -6   6  -6   14.08    1.56 
  -5   6  -6   15.36    1.47 
  -4   6  -6   34.42    2.04 
   0   6  -6   14.79    1.11 
   1   6  -6    3.77    0.66 
   2   6  -6    5.67    0.68 
   3   6  -6   40.28    1.37 
 -13   7  -6    0.82    1.34 
 -12   7  -6    3.56    1.48 
 -11   7  -6    1.02    1.25 
 -10   7  -6    2.80    1.33 
  -9   7  -6    7.57    1.64 
  -8   7  -6   16.81    2.06 
  -7   7  -6    6.06    1.35 
  -6   7  -6   62.74    2.86 
  -5   7  -6    0.03    1.00 
  -4   7  -6    0.00    1.06 
   0   7  -6  164.47    3.49 
   1   7  -6    7.96    0.88 
 -12   8  -6    3.48    1.63 
 -11   8  -6    4.77    1.62 
 -10   8  -6    4.19    1.58 
  -9   8  -6    1.23    1.53 
  -8   8  -6    1.36    1.27 
  -7   8  -6   24.52    2.19 
  -6   8  -6    0.00    1.22 
  -5   8  -6    4.93    1.45 
 -11   9  -6   -0.30    1.46 
 -10   9  -6    5.49    1.81 
  -9   9  -6    5.08    1.98 
  -8   9  -6    2.14    1.41 
  -7   9  -6    0.17    1.17 
  -6   9  -6   13.99    2.04 
  -5   9  -6    7.81    1.74 
 -10  10  -6    2.02    1.82 
  -9  10  -6   -0.13    1.45 
  -8  10  -6    0.33    1.41 
  -7  10  -6    3.71    1.74 
  -6  10  -6   16.73    2.44 
  -5  10  -6   -0.41    1.53 
  -3  10  -6   18.24    1.90 
  -8  11  -6    5.71    1.92 
  -7  11  -6    0.37    1.68 
  -6  11  -6    4.38    2.06 
  -5  11  -6    0.75    1.98 
  -2  11  -6   -0.17    1.19 
  -2  12  -6   -0.61    1.31 
  -1  12  -6    2.62    1.35 
  -7 -11  -5    0.36    1.58 
  -6 -11  -5    1.55    1.51 
  -5 -11  -5    4.76    1.67 
  -9 -10  -5   -0.39    1.37 
  -8 -10  -5    2.36    1.54 
  -7 -10  -5    3.73    1.42 
  -6 -10  -5    0.90    1.25 
  -5 -10  -5    3.88    1.52 
  -4 -10  -5    2.27    1.27 
 -11  -9  -5    1.46    1.59 
 -10  -9  -5    0.30    1.28 
  -9  -9  -5    2.93    1.25 
  -8  -9  -5    4.86    1.47 
  -7  -9  -5    5.01    1.47 
  -6  -9  -5    7.04    1.54 
  -5  -9  -5   -0.29    0.93 
  -4  -9  -5    3.98    1.36 
  -3  -9  -5   15.53    1.96 
 -12  -8  -5    4.36    1.57 
 -11  -8  -5   -0.08    1.13 
 -10  -8  -5   -0.09    1.07 
  -9  -8  -5    0.63    1.08 
  -8  -8  -5   12.23    1.75 
  -7  -8  -5    0.87    0.97 
  -6  -8  -5    2.04    1.07 
  -5  -8  -5    2.92    1.18 
  -4  -8  -5    6.10    1.33 
  -3  -8  -5    2.83    1.14 
  -2  -8  -5    2.94    1.11 
 -13  -7  -5    0.79    1.13 
 -12  -7  -5    0.72    1.07 
 -11  -7  -5    1.77    1.06 
 -10  -7  -5    0.45    0.93 
  -9  -7  -5    1.27    0.94 
  -8  -7  -5    4.21    1.18 
  -7  -7  -5   12.79    1.62 
  -6  -7  -5   19.75    1.88 
  -5  -7  -5    7.85    1.30 
  -4  -7  -5   41.26    2.55 
  -3  -7  -5   49.25    2.65 
  -2  -7  -5    6.85    1.29 
  -1  -7  -5    4.81    1.13 
 -13  -6  -5    1.63    0.94 
 -12  -6  -5    3.15    1.02 
 -11  -6  -5   -0.05    0.69 
 -10  -6  -5    0.73    0.80 
  -9  -6  -5    0.99    0.79 
  -8  -6  -5   13.02    1.52 
  -7  -6  -5   24.62    1.93 
  -6  -6  -5    0.50    0.77 
  -5  -6  -5   64.92    2.80 
  -4  -6  -5   35.33    2.11 
  -3  -6  -5    6.16    1.11 
  -2  -6  -5    9.94    1.21 
  -1  -6  -5    1.47    0.78 
 -14  -5  -5    4.92    1.17 
 -13  -5  -5    0.19    0.74 
 -12  -5  -5    0.15    0.73 
 -11  -5  -5    0.40    0.69 
 -10  -5  -5    3.21    0.87 
  -9  -5  -5    5.13    0.99 
  -8  -5  -5   78.22    2.94 
  -7  -5  -5   25.88    1.69 
  -6  -5  -5    4.03    0.89 
  -5  -5  -5    0.39    0.66 
  -4  -5  -5   33.88    1.90 
  -3  -5  -5   75.07    2.69 
  -2  -5  -5   21.42    1.52 
  -1  -5  -5  293.61    5.21 
   0  -5  -5    8.19    1.06 
 -15  -4  -5    3.77    1.16 
 -14  -4  -5    0.39    0.86 
 -13  -4  -5    0.49    0.81 
 -12  -4  -5    1.22    0.79 
 -11  -4  -5    8.10    1.16 
 -10  -4  -5    2.55    0.80 
  -9  -4  -5    0.30    0.60 
  -8  -4  -5   25.78    1.66 
  -7  -4  -5    0.87    0.60 
  -6  -4  -5   -0.04    0.49 
  -5  -4  -5    1.79    0.37 
  -4  -4  -5   69.64    1.36 
  -3  -4  -5  195.42    2.95 
  -2  -4  -5    5.45    0.49 
  -1  -4  -5    5.55    0.83 
   0  -4  -5  140.02    3.37 
 -15  -3  -5    1.49    0.85 
 -14  -3  -5    0.81    0.76 
 -13  -3  -5    2.97    0.85 
 -12  -3  -5    2.72    0.78 
 -11  -3  -5    3.04    0.76 
 -10  -3  -5    8.81    1.02 
  -9  -3  -5    1.16    0.60 
  -8  -3  -5   66.80    2.41 
  -7  -3  -5   39.77    1.15 
  -6  -3  -5    0.61    0.36 
  -5  -3  -5   70.13    1.33 
  -4  -3  -5    4.26    0.40 
  -3  -3  -5   52.41    1.15 
  -2  -3  -5  276.53    3.36 
  -1  -3  -5  655.39    6.36 
   0  -3  -5   48.41    1.09 
 -15  -2  -5    1.88    1.04 
 -14  -2  -5    0.55    0.82 
 -13  -2  -5    0.47    0.72 
 -12  -2  -5   10.39    1.26 
 -11  -2  -5    0.90    0.66 
 -10  -2  -5    2.89    0.79 
  -9  -2  -5    0.38    0.56 
  -8  -2  -5    9.33    1.00 
  -7  -2  -5    7.45    0.93 
  -6  -2  -5   31.15    1.50 
  -5  -2  -5   37.68    1.00 
  -4  -2  -5  174.62    2.07 
  -3  -2  -5    0.87    0.29 
  -2  -2  -5    8.28    0.44 
  -1  -2  -5    5.74    1.02 
   0  -2  -5  490.20    3.48 
   1  -2  -5  352.13    2.95 
 -15  -1  -5    0.81    0.86 
 -14  -1  -5    1.25    0.79 
 -13  -1  -5    0.10    0.61 
 -12  -1  -5    0.29    0.58 
 -11  -1  -5   -0.09    0.55 
 -10  -1  -5   10.17    1.04 
  -9  -1  -5    0.47    0.56 
  -8  -1  -5    3.29    0.69 
  -7  -1  -5  284.52    4.44 
  -6  -1  -5   12.45    0.93 
  -5  -1  -5   70.93    1.94 
  -4  -1  -5   59.68    1.67 
  -3  -1  -5   86.19    1.39 
  -2  -1  -5  239.09    2.15 
  -1  -1  -5  379.10    2.71 
   0  -1  -5  358.14    2.65 
   1  -1  -5  245.80    2.16 
   2  -1  -5  745.53    6.64 
 -15   0  -5   14.95    1.56 
 -14   0  -5    0.19    0.67 
 -13   0  -5    4.02    0.95 
 -12   0  -5   -0.36    0.55 
 -11   0  -5   13.51    1.21 
 -10   0  -5    0.55    0.59 
  -9   0  -5  103.83    2.89 
  -8   0  -5    0.42    0.52 
  -7   0  -5    2.40    0.60 
  -6   0  -5    0.12    0.47 
  -5   0  -5  746.11    7.02 
  -4   0  -5    0.37    0.40 
  -3   0  -5    6.69    0.59 
  -2   0  -5    1.23    0.27 
  -1   0  -5  563.21    3.58 
   0   0  -5   -0.04    0.14 
   1   0  -5    0.48    0.19 
   2   0  -5    0.41    0.36 
   3   0  -5  443.55    4.80 
 -15   1  -5    0.23    0.72 
 -14   1  -5    1.38    0.72 
 -13   1  -5    0.50    0.71 
 -12   1  -5    0.52    0.67 
 -11   1  -5   -0.20    0.61 
 -10   1  -5    9.47    1.05 
  -9   1  -5    0.56    0.59 
  -8   1  -5    3.76    0.75 
  -7   1  -5  293.58    4.53 
  -6   1  -5   12.41    0.92 
  -5   1  -5   68.38    1.88 
  -4   1  -5   58.80    1.61 
  -3   1  -5   81.67    1.71 
  -2   1  -5  249.93    2.87 
  -1   1  -5  419.86    2.88 
   0   1  -5  365.68    2.47 
   1   1  -5  232.73    2.96 
   2   1  -5  706.96    6.01 
   3   1  -5  337.82    3.86 
 -15   2  -5    2.70    1.06 
 -14   2  -5    1.41    0.80 
 -13   2  -5   -0.28    0.62 
 -12   2  -5   11.58    1.29 
 -11   2  -5    0.28    0.70 
 -10   2  -5    3.35    0.86 
  -9   2  -5    0.03    0.64 
  -8   2  -5    8.88    0.99 
  -7   2  -5    6.41    0.87 
  -6   2  -5   34.59    1.57 
  -5   2  -5   35.18    1.38 
  -4   2  -5  162.98    2.84 
  -3   2  -5    0.54    0.38 
  -2   2  -5    9.20    0.65 
  -1   2  -5    8.83    0.46 
   0   2  -5  478.73    3.61 
   1   2  -5  343.52    3.85 
   2   2  -5   61.31    1.49 
   3   2  -5  198.19    2.79 
   4   2  -5   48.17    1.43 
 -15   3  -5    1.37    0.95 
 -14   3  -5    1.76    0.89 
 -13   3  -5    4.46    1.05 
 -12   3  -5    3.89    0.99 
 -11   3  -5    3.06    0.94 
 -10   3  -5   12.38    1.35 
  -9   3  -5    1.70    0.88 
  -8   3  -5   67.40    2.44 
  -7   3  -5   35.97    1.68 
  -6   3  -5    0.78    0.59 
  -5   3  -5   83.54    1.73 
  -4   3  -5    4.57    0.76 
  -3   3  -5   52.61    1.70 
  -2   3  -5  255.77    3.58 
  -1   3  -5  690.25    6.46 
   0   3  -5   52.62    1.57 
   1   3  -5   73.36    1.70 
   2   3  -5    0.34    0.30 
   3   3  -5  135.78    2.27 
   4   3  -5    0.99    0.44 
 -15   4  -5    4.61    1.24 
 -14   4  -5    1.53    1.02 
 -13   4  -5    0.73    0.94 
 -12   4  -5    1.91    0.99 
 -11   4  -5   12.54    1.57 
 -10   4  -5    2.64    0.96 
  -9   4  -5    0.47    0.81 
  -8   4  -5   31.95    1.90 
  -7   4  -5    0.62    0.75 
  -6   4  -5   -0.21    0.63 
  -5   4  -5    1.82    0.35 
  -4   4  -5   65.45    2.17 
  -3   4  -5  189.57    3.65 
   0   4  -5  135.62    2.67 
   1   4  -5  133.54    2.50 
   2   4  -5   24.55    0.99 
   3   4  -5   12.82    0.74 
   4   4  -5   45.66    1.29 
   5   4  -5   -0.41    0.45 
 -14   5  -5    6.12    1.35 
 -13   5  -5    0.40    1.07 
 -12   5  -5    0.47    1.11 
 -11   5  -5    0.86    0.89 
 -10   5  -5    4.08    1.16 
  -9   5  -5    6.88    1.22 
  -8   5  -5   96.09    3.50 
  -7   5  -5   33.32    2.13 
  -6   5  -5    4.59    1.01 
  -5   5  -5    0.80    0.38 
  -4   5  -5   34.80    1.85 
   1   5  -5   75.06    1.95 
   2   5  -5  118.96    2.27 
   3   5  -5   10.38    0.67 
   4   5  -5   52.18    1.33 
   5   5  -5   10.59    0.77 
 -14   6  -5    2.09    1.32 
 -13   6  -5    2.78    1.34 
 -12   6  -5    4.02    1.31 
 -11   6  -5    0.65    1.15 
 -10   6  -5    0.31    1.03 
  -9   6  -5    0.62    1.15 
  -8   6  -5   14.44    1.73 
  -7   6  -5   27.01    2.03 
  -6   6  -5    1.05    0.86 
  -5   6  -5   73.47    2.99 
  -4   6  -5   40.71    2.35 
   1   6  -5   53.29    1.80 
   2   6  -5   34.62    1.32 
   3   6  -5    0.36    0.39 
 -13   7  -5    2.01    1.24 
 -12   7  -5    0.20    1.24 
 -11   7  -5    1.73    1.27 
 -10   7  -5   -0.21    1.16 
  -9   7  -5    2.17    1.31 
  -8   7  -5    5.83    1.42 
  -7   7  -5   15.24    1.71 
  -6   7  -5   23.19    2.10 
  -5   7  -5    9.50    1.54 
  -4   7  -5   49.10    2.11 
   1   7  -5   44.84    1.74 
 -12   8  -5    6.14    1.65 
 -11   8  -5    1.12    1.38 
 -10   8  -5   -0.20    1.25 
  -9   8  -5    0.83    1.33 
  -8   8  -5   14.23    1.91 
  -7   8  -5    0.09    1.17 
  -6   8  -5    1.77    1.26 
  -5   8  -5    5.92    1.58 
  -4   8  -5    6.97    1.10 
 -11   9  -5    1.50    1.51 
 -10   9  -5   -0.26    1.49 
  -9   9  -5    4.40    1.60 
  -8   9  -5    6.48    1.59 
  -7   9  -5    6.75    1.72 
  -6   9  -5    7.22    1.69 
  -4   9  -5    3.25    1.08 
  -3   9  -5   17.53    1.64 
 -10  10  -5   -0.10    1.66 
  -9  10  -5    1.12    1.62 
  -8  10  -5    3.84    1.56 
  -6  10  -5    1.29    1.54 
  -3  10  -5    6.70    1.43 
  -8  11  -5   -0.86    1.50 
  -7  11  -5   -0.45    1.53 
  -6  11  -5    1.16    1.92 
  -3  11  -5    2.57    1.27 
  -2  11  -5    1.02    1.18 
  -6  12  -5    3.07    2.08 
  -2  12  -5    0.32    1.31 
  -1  12  -5    0.35    1.26 
   0  12  -5    7.56    1.67 
  -2  13  -5    0.79    1.30 
  -1  13  -5    1.08    1.39 
   0  13  -5    1.60    1.43 
  -8 -11  -4    1.07    1.59 
  -7 -11  -4    7.07    2.03 
  -6 -11  -4    0.83    1.39 
  -5 -11  -4   -0.53    1.33 
 -10 -10  -4    0.27    1.49 
  -9 -10  -4    0.51    1.35 
  -8 -10  -4    1.62    1.39 
  -7 -10  -4    2.47    1.36 
  -6 -10  -4    4.30    1.52 
  -5 -10  -4    2.92    1.30 
  -4 -10  -4    8.33    1.64 
 -11  -9  -4    7.49    1.87 
 -10  -9  -4    0.31    1.21 
  -9  -9  -4    1.10    1.17 
  -8  -9  -4    9.04    1.68 
  -7  -9  -4    7.52    1.61 
  -6  -9  -4    1.45    1.08 
  -5  -9  -4    0.15    0.97 
  -4  -9  -4   27.88    2.55 
  -3  -9  -4   17.85    1.97 
 -12  -8  -4   -0.48    1.21 
 -11  -8  -4   -0.14    1.08 
 -10  -8  -4    0.46    1.04 
  -9  -8  -4   15.33    1.35 
  -8  -8  -4   33.82    2.60 
  -7  -8  -4   15.70    1.84 
  -6  -8  -4   51.45    3.06 
  -5  -8  -4   32.04    2.46 
  -4  -8  -4    1.51    0.97 
  -3  -8  -4    3.54    1.17 
  -2  -8  -4   23.58    2.01 
 -13  -7  -4    1.84    1.20 
 -12  -7  -4    0.42    1.02 
 -11  -7  -4    0.41    0.89 
 -10  -7  -4    0.38    0.88 
  -9  -7  -4   -0.26    0.79 
  -8  -7  -4   19.33    1.36 
  -7  -7  -4    0.28    0.62 
  -6  -7  -4   12.29    1.08 
  -5  -7  -4    6.44    1.15 
  -4  -7  -4   71.93    3.25 
  -3  -7  -4    9.98    1.35 
  -2  -7  -4   25.67    2.05 
  -1  -7  -4    3.31    1.07 
 -14  -6  -4    0.32    0.99 
 -13  -6  -4    2.99    1.08 
 -12  -6  -4   -0.13    0.75 
 -11  -6  -4    3.80    0.98 
 -10  -6  -4    2.91    0.92 
  -9  -6  -4   17.03    1.63 
  -8  -6  -4   18.35    1.20 
  -7  -6  -4   22.31    1.29 
  -6  -6  -4   39.51    1.60 
  -5  -6  -4    2.58    0.57 
  -4  -6  -4    8.92    1.19 
  -3  -6  -4   34.25    2.08 
  -2  -6  -4   17.74    1.50 
  -1  -6  -4   61.54    2.68 
 -14  -5  -4   -0.20    0.80 
 -13  -5  -4    4.53    1.04 
 -12  -5  -4    1.85    0.84 
 -11  -5  -4    3.82    0.91 
 -10  -5  -4   29.73    1.91 
  -9  -5  -4    4.76    0.95 
  -8  -5  -4    1.93    0.51 
  -7  -5  -4    3.15    0.54 
  -6  -5  -4   46.84    1.56 
  -5  -5  -4   28.08    1.20 
  -4  -5  -4   77.32    2.82 
  -3  -5  -4    4.64    0.90 
  -2  -5  -4    3.15    0.79 
  -1  -5  -4  134.10    3.45 
   0  -5  -4   38.18    1.96 
 -15  -4  -4   -0.44    0.88 
 -14  -4  -4    1.67    0.92 
 -13  -4  -4    2.66    0.91 
 -12  -4  -4    4.96    1.01 
 -11  -4  -4    0.32    0.61 
 -10  -4  -4   14.18    1.36 
  -9  -4  -4    2.14    0.73 
  -8  -4  -4   18.55    0.96 
  -7  -4  -4    4.51    0.52 
  -6  -4  -4   36.49    1.22 
  -5  -4  -4    0.11    0.24 
  -4  -4  -4    5.39    0.42 
  -3  -4  -4   44.08    0.93 
  -2  -4  -4  179.57    3.66 
  -1  -4  -4   74.89    2.35 
   0  -4  -4  314.09    5.04 
 -15  -3  -4    2.33    0.90 
 -14  -3  -4    3.24    0.92 
 -13  -3  -4    0.22    0.63 
 -12  -3  -4   -0.20    0.58 
 -11  -3  -4   15.96    1.38 
 -10  -3  -4    3.79    0.79 
  -9  -3  -4    3.28    0.70 
  -8  -3  -4    2.98    0.68 
  -7  -3  -4   16.02    0.79 
  -6  -3  -4  110.84    1.93 
  -5  -3  -4    4.08    0.34 
  -4  -3  -4    7.10    0.44 
  -3  -3  -4   80.15    1.74 
  -2  -3  -4  107.37    1.48 
  -1  -3  -4   61.54    1.18 
   0  -3  -4  158.30    2.96 
 -16  -2  -4    0.73    1.01 
 -15  -2  -4    3.02    1.11 
 -14  -2  -4   -0.39    0.72 
 -13  -2  -4    3.11    0.87 
 -12  -2  -4    0.13    0.61 
 -11  -2  -4    9.38    1.10 
 -10  -2  -4    0.97    0.61 
  -9  -2  -4   42.65    1.92 
  -8  -2  -4    3.66    0.73 
  -7  -2  -4    5.10    0.46 
  -6  -2  -4   82.65    1.51 
  -5  -2  -4   19.25    0.72 
  -4  -2  -4  109.69    1.51 
  -3  -2  -4  168.29    1.80 
  -2  -2  -4   26.67    0.66 
  -1  -2  -4   14.92    0.52 
   0  -2  -4    0.10    0.20 
 -16  -1  -4    0.10    0.85 
 -15  -1  -4    1.12    0.85 
 -14  -1  -4    0.66    0.74 
 -13  -1  -4    2.29    0.77 
 -12  -1  -4    0.84    0.63 
 -11  -1  -4    1.23    0.64 
 -10  -1  -4    1.14    0.62 
  -9  -1  -4    6.48    0.88 
  -8  -1  -4    0.66    0.54 
  -7  -1  -4   37.81    1.55 
  -6  -1  -4  284.04    4.10 
  -5  -1  -4   -0.49    0.40 
  -4  -1  -4  851.68    7.29 
  -3  -1  -4   28.24    1.09 
  -2  -1  -4   95.40    7.09 
  -1  -1  -4   49.39    0.80 
   0  -1  -4  211.15    3.78 
   1  -1  -4   27.01    0.81 
 -16   0  -4    4.33    1.14 
 -15   0  -4    0.20    0.79 
 -14   0  -4    1.61    0.87 
 -13   0  -4    0.35    0.68 
 -12   0  -4    4.50    0.87 
 -11   0  -4   -0.01    0.56 
 -10   0  -4   12.25    1.16 
  -9   0  -4    0.28    0.56 
  -8   0  -4  120.31    3.00 
  -7   0  -4   -0.01    0.48 
  -6   0  -4  510.45    5.71 
  -5   0  -4    0.25    0.45 
  -4   0  -4  540.00    5.36 
  -3   0  -4    0.11    0.34 
  -2   0  -4  193.08    2.36 
  -1   0  -4    0.12    0.16 
   0   0  -4   37.10    0.58 
   1   0  -4    0.20    0.17 
   2   0  -4  626.17    5.44 
 -16   1  -4    1.20    0.99 
 -15   1  -4    1.32    0.85 
 -14   1  -4    1.54    0.81 
 -13   1  -4    1.59    0.85 
 -12   1  -4    0.07    0.64 
 -11   1  -4    0.99    0.67 
 -10   1  -4    0.70    0.51 
  -9   1  -4    6.30    0.89 
  -8   1  -4    0.61    0.54 
  -7   1  -4   37.66    1.58 
  -6   1  -4  288.67    4.18 
  -5   1  -4    0.04    0.41 
  -4   1  -4  864.24    7.34 
  -3   1  -4   30.50    1.12 
  -2   1  -4  135.28    2.07 
  -1   1  -4   51.09    0.80 
   0   1  -4  183.09    1.45 
   1   1  -4   26.22    0.85 
   2   1  -4   97.16    1.65 
   3   1  -4   11.21    0.73 
 -16   2  -4    1.53    1.01 
 -15   2  -4    2.93    1.03 
 -14   2  -4    0.55    0.75 
 -13   2  -4    3.67    0.91 
 -12   2  -4    0.01    0.67 
 -11   2  -4   10.99    1.24 
 -10   2  -4    0.58    0.67 
  -9   2  -4   48.44    2.11 
  -8   2  -4    3.10    0.78 
  -7   2  -4    4.14    0.73 
  -6   2  -4   68.11    1.99 
  -5   2  -4   19.65    1.12 
  -4   2  -4  115.10    1.27 
  -3   2  -4  170.51    2.77 
  -2   2  -4   26.14    1.02 
  -1   2  -4   14.02    0.73 
   0   2  -4    0.20    0.31 
   1   2  -4  284.55    3.19 
   2   2  -4   51.16    1.24 
   3   2  -4   65.50    1.40 
 -15   3  -4    2.89    0.97 
 -14   3  -4    4.21    1.09 
 -13   3  -4    0.42    0.77 
 -12   3  -4    0.27    0.73 
 -11   3  -4   19.53    1.64 
 -10   3  -4    4.89    1.09 
  -9   3  -4    3.63    0.88 
  -8   3  -4    3.62    0.82 
  -7   3  -4   16.00    1.24 
  -6   3  -4  109.75    2.89 
  -5   3  -4    4.03    0.34 
  -4   3  -4    8.09    0.46 
  -3   3  -4   69.09    1.87 
  -2   3  -4  109.44    2.42 
   1   3  -4  195.23    2.70 
   2   3  -4    8.34    0.53 
   3   3  -4   11.86    0.62 
   4   3  -4  652.19    5.65 
 -15   4  -4    0.42    1.00 
 -14   4  -4    3.03    1.08 
 -13   4  -4    2.64    1.05 
 -12   4  -4    6.52    1.28 
 -11   4  -4   -0.69    0.78 
 -10   4  -4   15.37    1.46 
  -9   4  -4    2.14    0.95 
  -8   4  -4   19.41    1.53 
  -7   4  -4    5.51    1.02 
  -6   4  -4   39.61    2.01 
  -5   4  -4    0.00    0.31 
  -4   4  -4    4.84    0.47 
  -3   4  -4   47.09    1.94 
   1   4  -4   28.87    1.12 
   2   4  -4   33.28    1.07 
   3   4  -4  135.83    2.06 
   4   4  -4   98.77    1.73 
 -14   5  -4    0.35    1.05 
 -13   5  -4    6.49    1.51 
 -12   5  -4    2.29    1.04 
 -11   5  -4    2.94    1.11 
 -10   5  -4   34.99    2.25 
  -9   5  -4    6.44    1.25 
  -8   5  -4    1.70    1.00 
  -7   5  -4    3.48    1.06 
  -6   5  -4   44.68    2.16 
  -5   5  -4   31.13    1.05 
  -4   5  -4   81.17    1.71 
   1   5  -4   28.57    1.17 
   2   5  -4  109.25    2.05 
   3   5  -4   -0.15    0.30 
   4   5  -4   28.85    0.93 
 -14   6  -4    1.24    1.37 
 -13   6  -4    3.29    1.26 
 -12   6  -4   -0.13    1.09 
 -11   6  -4    4.93    1.32 
 -10   6  -4    3.16    1.25 
  -9   6  -4   20.24    2.03 
  -8   6  -4   22.41    2.03 
  -7   6  -4   19.22    1.71 
  -6   6  -4   45.21    2.51 
  -5   6  -4    2.69    0.53 
  -4   6  -4    9.81    0.96 
   1   6  -4    3.70    0.59 
   2   6  -4    8.15    0.65 
 -13   7  -4    1.56    1.27 
 -12   7  -4    0.38    1.15 
 -11   7  -4    0.88    1.24 
 -10   7  -4    0.54    1.13 
  -9   7  -4   -1.02    1.10 
  -8   7  -4   17.51    1.87 
  -7   7  -4   -0.04    1.07 
  -6   7  -4   13.34    1.71 
  -5   7  -4    8.04    0.79 
  -4   7  -4   76.25    2.56 
   1   7  -4    3.27    0.66 
 -12   8  -4    0.08    1.29 
 -11   8  -4   -0.17    1.26 
 -10   8  -4    0.32    1.27 
  -9   8  -4   12.68    1.89 
  -8   8  -4   34.27    2.50 
  -7   8  -4   17.16    2.04 
  -6   8  -4   61.24    3.41 
  -5   8  -4   36.20    1.99 
  -4   8  -4    2.08    0.90 
  -3   8  -4    2.76    0.88 
 -11   9  -4    9.66    2.00 
 -10   9  -4    0.88    1.45 
  -9   9  -4    0.91    1.36 
  -8   9  -4    9.33    1.89 
  -7   9  -4    8.89    1.81 
  -6   9  -4    1.19    1.57 
  -4   9  -4   28.86    1.94 
  -3   9  -4   24.37    1.92 
 -10  10  -4    0.32    1.42 
  -9  10  -4   -0.09    1.31 
  -8  10  -4    1.88    1.72 
  -7  10  -4    2.51    1.72 
  -4  10  -4    9.64    1.48 
  -3  10  -4    2.22    1.12 
  -2  10  -4    0.23    0.94 
  -8  11  -4    0.90    1.62 
  -7  11  -4    8.36    2.24 
  -4  11  -4    2.06    1.22 
  -3  11  -4    1.67    1.13 
  -2  11  -4   20.59    2.07 
  -1  11  -4   10.47    1.68 
  -6  12  -4    0.72    1.80 
  -3  12  -4    0.02    1.17 
  -2  12  -4    1.92    1.25 
  -1  12  -4   13.27    1.93 
   0  12  -4    4.51    1.49 
  -3  13  -4    0.41    1.47 
  -2  13  -4    1.14    1.29 
  -1  13  -4    8.38    1.76 
   0  13  -4    4.96    1.68 
  -8 -11  -3    3.61    1.78 
  -7 -11  -3    0.23    1.45 
  -6 -11  -3    0.57    1.42 
 -10 -10  -3    0.48    1.40 
  -9 -10  -3    0.00    1.33 
  -8 -10  -3   -0.66    1.12 
  -7 -10  -3   -0.06    1.10 
  -6 -10  -3    7.31    1.75 
  -5 -10  -3   10.89    1.83 
  -4 -10  -3    2.13    1.33 
 -12  -9  -3    6.62    1.73 
 -11  -9  -3    1.15    1.28 
 -10  -9  -3    1.22    1.25 
  -9  -9  -3    8.12    1.14 
  -8  -9  -3   15.83    1.42 
  -7  -9  -3   -0.10    0.72 
  -6  -9  -3   -0.55    0.67 
  -5  -9  -3    6.93    1.48 
  -4  -9  -3   17.08    2.02 
  -3  -9  -3   -0.32    0.95 
 -13  -8  -3   -0.50    1.23 
 -12  -8  -3    1.11    1.16 
 -11  -8  -3    0.54    1.08 
 -10  -8  -3   15.71    1.96 
  -9  -8  -3   16.36    1.31 
  -8  -8  -3   18.91    1.39 
  -7  -8  -3   55.65    2.20 
  -6  -8  -3   23.96    1.50 
  -5  -8  -3    1.04    0.68 
  -4  -8  -3    0.54    0.89 
  -3  -8  -3    1.21    1.01 
  -2  -8  -3    0.09    0.88 
 -14  -7  -3    1.83    1.29 
 -13  -7  -3    0.65    0.97 
 -12  -7  -3    0.84    0.96 
 -11  -7  -3    3.23    1.16 
 -10  -7  -3    0.74    0.88 
  -9  -7  -3    0.37    0.61 
  -8  -7  -3    3.32    0.72 
  -7  -7  -3    6.94    0.86 
  -6  -7  -3    1.24    0.57 
  -5  -7  -3    2.85    0.65 
  -4  -7  -3   21.88    1.29 
  -3  -7  -3   31.75    2.09 
  -2  -7  -3    0.56    0.83 
 -14  -6  -3    2.67    1.14 
 -13  -6  -3    3.91    1.12 
 -12  -6  -3    6.53    1.18 
 -11  -6  -3    0.34    0.72 
 -10  -6  -3   -0.32    0.60 
  -9  -6  -3   13.80    1.08 
  -8  -6  -3   61.63    2.01 
  -7  -6  -3    7.67    0.82 
  -6  -6  -3    2.98    0.58 
  -5  -6  -3   25.46    1.21 
  -4  -6  -3   12.40    0.89 
  -3  -6  -3   11.67    0.88 
  -2  -6  -3    9.33    1.15 
  -1  -6  -3   43.54    2.27 
 -15  -5  -3   -0.03    1.00 
 -14  -5  -3   -0.08    0.86 
 -13  -5  -3    0.31    0.72 
 -12  -5  -3    1.88    0.82 
 -11  -5  -3    0.35    0.70 
 -10  -5  -3   15.53    1.43 
  -9  -5  -3    7.19    0.75 
  -8  -5  -3   40.62    1.50 
  -7  -5  -3    3.49    0.54 
  -6  -5  -3    7.84    0.70 
  -5  -5  -3    0.82    0.38 
  -4  -5  -3    9.48    0.72 
  -3  -5  -3    0.26    0.35 
  -2  -5  -3  568.31    7.59 
  -1  -5  -3  191.63    4.28 
 -15  -4  -3    1.25    0.99 
 -14  -4  -3   -0.21    0.70 
 -13  -4  -3    2.28    0.91 
 -12  -4  -3    0.72    0.73 
 -11  -4  -3    2.87    0.80 
 -10  -4  -3   27.35    1.77 
  -9  -4  -3    4.14    0.82 
  -8  -4  -3   17.51    0.93 
  -7  -4  -3    1.38    0.35 
  -6  -4  -3    0.71    0.34 
  -5  -4  -3   66.48    1.01 
  -4  -4  -3    5.25    0.32 
  -3  -4  -3   26.38    0.59 
  -2  -4  -3    2.96    0.66 
  -1  -4  -3   79.29    2.35 
   0  -4  -3   30.54    1.53 
 -16  -3  -3    0.50    0.91 
 -15  -3  -3    6.61    1.17 
 -14  -3  -3    3.66    1.00 
 -13  -3  -3    1.82    0.82 
 -12  -3  -3    1.06    0.71 
 -11  -3  -3    0.03    0.57 
 -10  -3  -3    0.16    0.52 
  -9  -3  -3    0.25    0.51 
  -8  -3  -3    2.66    0.40 
  -7  -3  -3    1.48    0.37 
  -6  -3  -3   88.99    1.72 
  -5  -3  -3   94.99    1.20 
  -4  -3  -3    9.91    0.39 
  -3  -3  -3    3.02    0.24 
  -2  -3  -3  503.51    8.72 
  -1  -3  -3    0.28    0.38 
   0  -3  -3 1614.95   12.49 
 -16  -2  -3    3.40    1.25 
 -15  -2  -3   -0.32    0.74 
 -14  -2  -3    2.16    0.89 
 -13  -2  -3   -0.02    0.63 
 -12  -2  -3    2.64    0.77 
 -11  -2  -3   -0.15    0.54 
 -10  -2  -3    2.96    0.73 
  -9  -2  -3    0.36    0.52 
  -8  -2  -3   16.84    1.18 
  -7  -2  -3   15.50    0.71 
  -6  -2  -3  127.57    1.94 
  -5  -2  -3   36.24    0.96 
  -4  -2  -3   61.07    1.14 
  -3  -2  -3   95.15    1.14 
  -2  -2  -3   25.39    0.58 
  -1  -2  -3    0.47    0.20 
   0  -2  -3  172.24    1.69 
 -16  -1  -3    5.53    1.19 
 -15  -1  -3    0.40    0.77 
 -14  -1  -3    3.03    0.88 
 -13  -1  -3    3.08    0.83 
 -12  -1  -3    0.07    0.57 
 -11  -1  -3   14.00    1.25 
 -10  -1  -3   -0.09    0.51 
  -9  -1  -3    2.87    0.72 
  -8  -1  -3    9.74    0.90 
  -7  -1  -3   47.12    1.14 
  -6  -1  -3   88.95    1.37 
  -5  -1  -3  258.56    2.43 
  -4  -1  -3    1.06    0.23 
  -3  -1  -3  108.61    1.97 
  -2  -1  -3    2.14    0.25 
  -1  -1  -3   68.90    1.26 
   0  -1  -3  428.39    2.67 
   1  -1  -3 1134.77    8.23 
 -16   0  -3   -0.26    0.78 
 -15   0  -3    2.42    0.98 
 -14   0  -3    0.44    0.75 
 -13   0  -3   23.58    1.67 
 -12   0  -3    0.15    0.56 
 -11   0  -3    8.42    1.07 
 -10   0  -3   -0.13    0.57 
  -9   0  -3    7.52    0.89 
  -8   0  -3   -0.05    0.46 
  -7   0  -3    8.33    0.79 
  -6   0  -3    0.22    0.24 
  -5   0  -3  743.58    6.62 
  -4   0  -3   -0.34    0.34 
  -2   0  -3   -0.45    0.30 
  -1   0  -3  321.35    3.04 
   0   0  -3    0.04    0.11 
   1   0  -3  101.65    1.51 
   2   0  -3    0.39    0.34 
 -16   1  -3    5.99    1.22 
 -15   1  -3    0.67    0.85 
 -14   1  -3    2.52    0.96 
 -13   1  -3    2.12    0.86 
 -12   1  -3   -0.02    0.60 
 -11   1  -3   12.39    1.20 
 -10   1  -3   -0.36    0.54 
  -9   1  -3    1.92    0.64 
  -8   1  -3    9.04    0.88 
  -7   1  -3   42.77    1.66 
  -6   1  -3   83.22    2.19 
  -5   1  -3  264.60    3.88 
  -4   1  -3    0.74    0.41 
  -3   1  -3   91.21    1.69 
  -2   1  -3    2.18    0.43 
  -1   1  -3   76.02    1.25 
   0   1  -3  397.33    7.85 
   1   1  -3 1127.70    7.92 
   2   1  -3   56.02    1.15 
 -16   2  -3    4.55    1.30 
 -15   2  -3    0.19    0.83 
 -14   2  -3    1.91    0.85 
 -13   2  -3   -0.03    0.73 
 -12   2  -3    3.36    0.87 
 -11   2  -3   -0.20    0.68 
 -10   2  -3    3.20    0.86 
  -9   2  -3    0.41    0.67 
  -8   2  -3   17.93    1.27 
  -7   2  -3   12.44    0.99 
  -6   2  -3  109.42    1.18 
  -5   2  -3   36.70    0.65 
  -4   2  -3   67.46    0.93 
  -3   2  -3   87.45    1.94 
  -2   2  -3   26.62    1.05 
   1   2  -3  269.13    2.86 
   2   2  -3  878.41    6.44 
   3   2  -3    2.29    0.39 
 -16   3  -3    1.30    1.02 
 -15   3  -3    7.77    1.35 
 -14   3  -3    5.74    1.13 
 -13   3  -3    2.39    0.92 
 -12   3  -3    0.99    0.81 
 -11   3  -3    0.44    0.79 
 -10   3  -3    0.04    0.74 
  -9   3  -3    0.52    0.67 
  -8   3  -3    3.34    0.78 
  -7   3  -3    2.20    0.71 
  -6   3  -3   98.27    1.43 
  -5   3  -3   97.83    1.35 
  -4   3  -3    9.75    0.46 
  -3   3  -3    2.88    0.63 
   1   3  -3  448.47    4.24 
   2   3  -3  280.26    2.79 
   3   3  -3   27.35    0.81 
 -15   4  -3    1.22    1.02 
 -14   4  -3    0.66    0.89 
 -13   4  -3    2.03    1.01 
 -12   4  -3    0.68    0.94 
 -11   4  -3    2.51    0.94 
 -10   4  -3   31.35    2.08 
  -9   4  -3    3.51    0.99 
  -8   4  -3   17.70    1.56 
  -7   4  -3    1.43    0.85 
  -6   4  -3    0.37    0.29 
  -5   4  -3   67.97    1.33 
  -4   4  -3    4.62    0.44 
   1   4  -3  742.38    6.09 
   2   4  -3  142.00    1.99 
   3   4  -3  107.99    1.64 
   4   4  -3   72.09    1.37 
 -15   5  -3    1.01    1.16 
 -14   5  -3    0.91    1.06 
 -13   5  -3    0.62    0.97 
 -12   5  -3    2.67    1.02 
 -11   5  -3    0.08    1.00 
 -10   5  -3   18.41    1.80 
  -9   5  -3    7.86    1.34 
  -8   5  -3   51.97    2.71 
  -7   5  -3    2.75    0.98 
  -6   5  -3    8.40    0.62 
  -5   5  -3    0.94    0.38 
  -4   5  -3    9.89    0.81 
   2   5  -3    1.40    0.39 
   3   5  -3   91.74    1.46 
   4   5  -3   34.68    0.92 
 -14   6  -3    6.17    1.52 
 -13   6  -3    4.52    1.32 
 -12   6  -3    7.71    1.50 
 -11   6  -3    1.06    1.14 
 -10   6  -3    0.12    1.14 
  -9   6  -3   16.43    1.92 
  -8   6  -3   66.03    3.02 
  -7   6  -3    8.78    1.34 
  -6   6  -3    3.24    0.55 
  -5   6  -3   32.19    1.53 
  -4   6  -3   15.04    1.09 
   2   6  -3    7.38    0.64 
 -13   7  -3   -0.37    1.11 
 -12   7  -3    0.14    1.19 
 -11   7  -3    2.12    1.28 
 -10   7  -3    0.25    1.24 
  -9   7  -3   -0.54    1.02 
  -8   7  -3    3.26    1.13 
  -7   7  -3    5.20    1.38 
  -6   7  -3    1.07    1.18 
  -5   7  -3    2.93    0.77 
  -4   7  -3   23.17    1.44 
  -3   7  -3   34.53    1.79 
 -13   8  -3   -0.02    1.36 
 -12   8  -3    1.99    1.46 
 -11   8  -3    1.25    1.30 
 -10   8  -3   12.58    2.00 
  -9   8  -3   17.68    1.99 
  -8   8  -3   22.78    2.38 
  -7   8  -3   65.07    3.50 
  -5   8  -3    0.75    0.79 
  -4   8  -3    0.27    0.74 
  -3   8  -3    0.75    0.74 
 -11   9  -3    2.03    1.65 
 -10   9  -3    1.91    1.35 
  -9   9  -3   10.38    1.73 
  -8   9  -3   17.29    2.31 
  -7   9  -3   -0.01    1.39 
  -5   9  -3    8.69    1.29 
  -4   9  -3   16.97    1.57 
  -3   9  -3    0.08    0.81 
  -2   9  -3    4.21    1.09 
 -10  10  -3   -0.77    1.40 
  -9  10  -3    0.75    1.42 
  -8  10  -3    0.03    1.36 
  -7  10  -3    2.55    1.67 
  -4  10  -3    2.53    1.12 
  -3  10  -3   -0.11    0.93 
  -2  10  -3   -0.44    0.88 
  -1  10  -3   15.43    1.72 
  -9  11  -3    0.22    1.63 
  -8  11  -3    4.34    1.85 
  -7  11  -3    1.07    1.77 
  -4  11  -3   -0.54    1.14 
  -3  11  -3    8.38    1.49 
  -2  11  -3    0.36    0.98 
  -1  11  -3    0.46    1.07 
   0  11  -3    1.84    1.23 
  -7  12  -3    1.09    2.02 
  -4  12  -3    0.38    1.31 
  -3  12  -3    0.86    1.39 
  -2  12  -3    2.26    1.26 
  -1  12  -3    2.06    1.30 
   0  12  -3    2.18    1.36 
   1  12  -3    2.46    1.35 
  -3  13  -3    2.91    1.47 
  -2  13  -3    1.68    1.36 
  -1  13  -3    0.35    1.18 
   0  13  -3    0.58    1.28 
   1  13  -3    0.36    1.28 
  -7 -12  -2    7.11    2.36 
  -9 -11  -2   -0.55    1.48 
  -8 -11  -2    2.72    1.74 
  -7 -11  -2    1.85    1.51 
  -6 -11  -2    2.64    1.48 
 -11 -10  -2    3.56    1.72 
 -10 -10  -2   -0.46    0.88 
  -9 -10  -2   -0.12    0.86 
  -8 -10  -2    0.59    0.81 
  -7 -10  -2   -0.06    0.75 
  -6 -10  -2    1.45    0.87 
  -5 -10  -2    1.38    1.17 
 -12  -9  -2   -0.01    1.28 
 -11  -9  -2   13.25    2.08 
 -10  -9  -2    2.84    0.90 
  -9  -9  -2   36.42    1.95 
  -8  -9  -2    3.72    0.90 
  -7  -9  -2    8.02    1.08 
  -6  -9  -2    2.00    0.77 
  -5  -9  -2    1.68    0.76 
  -4  -9  -2   17.74    1.37 
 -13  -8  -2    1.87    1.31 
 -12  -8  -2    8.21    1.68 
 -11  -8  -2    6.61    1.56 
 -10  -8  -2    1.49    0.81 
  -9  -8  -2    7.10    1.00 
  -8  -8  -2    2.73    0.77 
  -7  -8  -2   22.09    1.41 
  -6  -8  -2   41.41    1.84 
  -5  -8  -2   12.79    1.11 
  -4  -8  -2   42.15    1.84 
  -3  -8  -2    9.96    1.01 
 -14  -7  -2    1.39    1.15 
 -13  -7  -2    1.85    1.10 
 -12  -7  -2    1.45    1.08 
 -11  -7  -2    0.15    0.83 
 -10  -7  -2    4.39    0.84 
  -9  -7  -2    0.94    0.64 
  -8  -7  -2    0.42    0.61 
  -7  -7  -2   -0.04    0.53 
  -6  -7  -2   29.89    1.48 
  -5  -7  -2   25.29    1.31 
  -4  -7  -2    3.00    0.63 
  -3  -7  -2    3.16    0.61 
  -2  -7  -2   18.21    1.15 
 -15  -6  -2    0.25    1.02 
 -14  -6  -2    1.82    1.05 
 -13  -6  -2    2.58    1.03 
 -12  -6  -2   -0.01    0.73 
 -11  -6  -2    0.58    0.73 
 -10  -6  -2   17.44    1.59 
  -9  -6  -2   23.10    1.29 
  -8  -6  -2   15.65    1.06 
  -7  -6  -2   14.55    1.01 
  -6  -6  -2   44.56    1.65 
  -5  -6  -2   22.47    1.16 
  -4  -6  -2    0.92    0.44 
  -3  -6  -2    0.01    0.37 
  -2  -6  -2   14.81    0.95 
  -1  -6  -2   -0.12    0.37 
 -15  -5  -2    0.21    0.90 
 -14  -5  -2    4.07    1.08 
 -13  -5  -2   -0.12    0.74 
 -12  -5  -2    0.49    0.70 
 -11  -5  -2    6.44    1.04 
 -10  -5  -2    3.39    0.83 
  -9  -5  -2   37.16    1.44 
  -8  -5  -2    9.92    0.79 
  -7  -5  -2    1.08    0.40 
  -6  -5  -2    9.50    0.74 
  -5  -5  -2    0.51    0.34 
  -4  -5  -2    3.07    0.51 
  -3  -5  -2    6.51    0.61 
  -2  -5  -2   50.23    1.46 
  -1  -5  -2   61.26    1.64 
 -16  -4  -2    1.56    1.10 
 -15  -4  -2    0.06    0.82 
 -14  -4  -2    7.06    1.22 
 -13  -4  -2    3.01    0.95 
 -12  -4  -2    0.12    0.65 
 -11  -4  -2   -0.10    0.56 
 -10  -4  -2   -0.09    0.57 
  -9  -4  -2   -0.36    0.34 
  -8  -4  -2    1.94    0.43 
  -7  -4  -2    2.12    0.42 
  -6  -4  -2    2.37    0.42 
  -5  -4  -2   27.51    0.58 
  -4  -4  -2    0.16    0.30 
  -3  -4  -2    0.07    0.29 
  -2  -4  -2   97.80    1.78 
  -1  -4  -2   37.90    1.13 
   0  -4  -2   78.90    2.44 
 -16  -3  -2    5.97    1.26 
 -15  -3  -2    0.85    0.82 
 -14  -3  -2    3.10    0.94 
 -13  -3  -2    1.70    0.82 
 -12  -3  -2    3.83    0.86 
 -11  -3  -2    0.67    0.63 
 -10  -3  -2   16.18    1.37 
  -9  -3  -2    0.15    0.52 
  -8  -3  -2    1.00    0.35 
  -7  -3  -2   30.69    1.15 
  -6  -3  -2   26.09    0.96 
  -5  -3  -2   16.97    0.75 
  -4  -3  -2   10.19    0.37 
  -3  -3  -2    1.27    0.18 
  -2  -3  -2    7.53    0.49 
  -1  -3  -2  127.32    1.83 
   0  -3  -2 2008.50   14.28 
 -16  -2  -2   -0.39    0.88 
 -15  -2  -2    2.58    0.94 
 -14  -2  -2    4.06    1.02 
 -13  -2  -2    9.37    1.18 
 -12  -2  -2    6.80    0.98 
 -11  -2  -2    2.83    0.72 
 -10  -2  -2   38.71    1.83 
  -9  -2  -2   32.39    1.59 
  -8  -2  -2    5.16    0.49 
  -7  -2  -2   18.34    0.77 
  -6  -2  -2  110.87    1.76 
  -5  -2  -2   80.88    1.45 
  -4  -2  -2   31.07    0.81 
  -3  -2  -2  172.09    1.90 
  -2  -2  -2  368.91    2.14 
  -1  -2  -2  238.36    1.88 
   0  -2  -2  995.09    7.77 
 -16  -1  -2    1.29    0.90 
 -15  -1  -2    2.31    0.89 
 -14  -1  -2    6.81    1.09 
 -13  -1  -2    9.50    1.17 
 -12  -1  -2    4.46    0.89 
 -11  -1  -2    1.58    0.68 
 -10  -1  -2   -0.41    0.51 
  -9  -1  -2   36.13    1.65 
  -8  -1  -2    0.21    0.28 
  -7  -1  -2  109.27    2.33 
  -6  -1  -2    3.26    0.38 
  -5  -1  -2  171.80    1.87 
  -4  -1  -2 1211.80    6.36 
  -3  -1  -2    1.01    0.21 
  -2  -1  -2 1130.57    5.82 
  -1  -1  -2  851.29    6.24 
   0  -1  -2  147.48    1.82 
 -16   0  -2    7.01    1.30 
 -15   0  -2   -0.43    0.81 
 -14   0  -2   11.31    1.30 
 -13   0  -2    0.94    0.75 
 -12   0  -2    0.25    0.66 
 -11   0  -2   -0.39    0.60 
 -10   0  -2   13.74    1.18 
  -9   0  -2   -0.14    0.38 
  -8   0  -2   10.02    0.84 
  -7   0  -2   -0.37    0.27 
  -6   0  -2  864.02   16.34 
  -5   0  -2    0.30    0.23 
  -4   0  -2   49.81    0.75 
  -3   0  -2    0.05    0.34 
  -2   0  -2 1672.93   10.88 
  -1   0  -2    0.01    0.18 
   0   0  -2  424.99    3.58 
   1   0  -2    1.82    0.19 
 -16   1  -2    2.16    0.93 
 -15   1  -2    1.90    0.96 
 -14   1  -2    6.60    1.18 
 -13   1  -2   10.00    1.21 
 -12   1  -2    5.09    0.90 
 -11   1  -2    1.02    0.67 
 -10   1  -2   -0.29    0.55 
  -9   1  -2   35.85    1.73 
  -8   1  -2   -0.34    0.46 
  -7   1  -2  120.31    2.10 
  -6   1  -2    3.07    0.30 
  -5   1  -2  148.33    1.41 
  -4   1  -2 1173.99    9.08 
  -3   1  -2    1.56    0.44 
  -2   1  -2 1077.39    7.75 
  -1   1  -2  767.30    5.69 
   0   1  -2  148.36    1.74 
   1   1  -2  662.69    5.13 
   2   1  -2  239.08    2.48 
 -16   2  -2    0.93    0.98 
 -15   2  -2    2.05    0.97 
 -14   2  -2    3.57    1.02 
 -13   2  -2   10.41    1.27 
 -12   2  -2    7.73    1.16 
 -11   2  -2    1.81    0.82 
 -10   2  -2   44.50    2.14 
  -9   2  -2   41.12    2.03 
  -8   2  -2    4.09    0.70 
  -7   2  -2   16.77    0.57 
  -6   2  -2  100.48    1.23 
  -5   2  -2   74.61    1.03 
  -4   2  -2   30.52    0.61 
  -3   2  -2  160.42    1.61 
  -2   2  -2  384.65    4.31 
   1   2  -2  767.92    5.76 
   2   2  -2   49.57    0.90 
 -16   3  -2    7.05    1.36 
 -15   3  -2    0.73    0.96 
 -14   3  -2    3.13    1.12 
 -13   3  -2    2.03    0.95 
 -12   3  -2    5.52    1.12 
 -11   3  -2    0.67    0.81 
 -10   3  -2   16.27    1.38 
  -9   3  -2    0.39    0.74 
  -8   3  -2    1.20    0.71 
  -7   3  -2   31.79    0.86 
  -6   3  -2   28.96    0.81 
  -5   3  -2   17.12    0.59 
  -4   3  -2    9.40    0.47 
  -3   3  -2    1.17    0.32 
   1   3  -2  138.47    1.81 
   2   3  -2    0.78    0.22 
   3   3  -2   12.32    0.51 
 -15   4  -2    0.35    1.00 
 -14   4  -2   11.33    1.53 
 -13   4  -2    5.39    1.31 
 -12   4  -2    0.31    0.82 
 -11   4  -2   -0.53    0.79 
 -10   4  -2    0.24    0.79 
  -9   4  -2    0.25    0.86 
  -8   4  -2    1.57    0.88 
  -7   4  -2    1.71    0.75 
  -6   4  -2    2.47    0.40 
  -5   4  -2   28.22    0.90 
  -4   4  -2    0.47    0.36 
  -3   4  -2    0.07    0.36 
   2   4  -2   58.94    1.11 
   3   4  -2  169.75    1.88 
 -15   5  -2   -0.08    1.05 
 -14   5  -2    3.49    1.31 
 -13   5  -2    0.11    0.83 
 -12   5  -2    0.63    0.97 
 -11   5  -2    7.57    1.36 
 -10   5  -2    5.53    1.28 
  -9   5  -2   44.33    2.53 
  -8   5  -2   11.57    1.38 
  -7   5  -2    0.91    0.79 
  -6   5  -2   10.34    0.68 
  -5   5  -2    0.44    0.34 
  -4   5  -2    3.52    0.56 
  -3   5  -2    7.53    0.78 
   2   5  -2    1.75    0.34 
   3   5  -2    3.87    0.35 
 -14   6  -2    2.94    1.22 
 -13   6  -2    2.88    1.27 
 -12   6  -2    0.57    1.03 
 -11   6  -2    0.53    1.08 
 -10   6  -2   24.76    2.24 
  -9   6  -2   23.65    2.05 
  -8   6  -2   13.48    1.50 
  -7   6  -2   15.00    1.63 
  -6   6  -2   52.23    1.54 
  -5   6  -2   24.78    1.30 
  -4   6  -2    1.62    0.54 
  -3   6  -2    0.00    0.45 
   2   6  -2    5.85    0.56 
 -14   7  -2    4.51    1.59 
 -13   7  -2    1.72    1.31 
 -12   7  -2    1.24    1.20 
 -11   7  -2    0.78    1.16 
 -10   7  -2    4.69    1.39 
  -9   7  -2    0.44    1.03 
  -8   7  -2    0.14    1.13 
  -7   7  -2   -0.31    1.09 
  -6   7  -2   34.57    1.72 
  -5   7  -2   28.48    1.58 
  -4   7  -2    3.50    0.71 
  -3   7  -2    2.83    0.72 
 -13   8  -2    1.56    1.44 
 -12   8  -2   10.08    1.93 
 -11   8  -2    9.00    1.95 
 -10   8  -2    1.89    1.31 
  -9   8  -2    6.52    1.47 
  -8   8  -2    3.70    1.46 
  -7   8  -2   31.95    2.69 
  -6   8  -2   50.75    2.28 
  -5   8  -2   14.93    1.37 
  -4   8  -2   47.30    2.25 
  -3   8  -2   11.95    1.27 
  -2   8  -2  132.10    3.75 
 -12   9  -2   -0.72    1.39 
 -11   9  -2   15.74    2.29 
 -10   9  -2    3.03    1.41 
  -9   9  -2   43.52    3.31 
  -8   9  -2    4.17    1.58 
  -7   9  -2   11.82    2.15 
  -5   9  -2    1.99    0.94 
  -4   9  -2   21.31    1.76 
  -3   9  -2    8.87    1.24 
  -2   9  -2   11.46    1.41 
  -1   9  -2   46.94    2.51 
 -10  10  -2    0.54    1.21 
  -9  10  -2   -0.26    1.33 
  -8  10  -2   -0.07    1.46 
  -5  10  -2    2.29    1.00 
  -4  10  -2    4.68    1.23 
  -3  10  -2    0.18    0.86 
  -2  10  -2    0.53    0.91 
  -1  10  -2    3.09    1.12 
   0  10  -2    3.60    1.16 
  -9  11  -2   -0.10    1.57 
  -8  11  -2    4.18    1.82 
  -5  11  -2    2.17    1.12 
  -4  11  -2    0.77    1.04 
  -3  11  -2   -0.50    0.99 
  -2  11  -2   -0.23    0.95 
  -1  11  -2    1.76    1.12 
   0  11  -2   47.59    3.00 
   1  11  -2    0.14    1.09 
  -4  12  -2    0.82    1.14 
  -3  12  -2    5.67    1.60 
  -2  12  -2   -0.05    1.17 
  -1  12  -2    0.55    1.09 
   0  12  -2    8.04    1.60 
   1  12  -2    7.85    1.66 
   2  12  -2    0.39    1.23 
  -4  13  -2    1.16    1.31 
  -3  13  -2    0.78    1.30 
  -2  13  -2    0.57    1.36 
  -1  13  -2    1.40    1.31 
   0  13  -2   -0.59    1.07 
   1  13  -2    8.43    1.82 
  -9 -11  -1    5.64    1.25 
  -8 -11  -1    6.63    1.26 
  -7 -11  -1    8.67    1.28 
  -6 -11  -1    7.46    1.26 
 -11 -10  -1    7.23    1.93 
 -10 -10  -1    2.68    0.98 
  -9 -10  -1    1.21    0.88 
  -8 -10  -1   -0.14    0.73 
  -7 -10  -1    0.03    0.77 
  -6 -10  -1    2.06    0.84 
  -5 -10  -1   -0.36    0.66 
  -4 -10  -1    1.63    1.03 
 -12  -9  -1    2.31    1.38 
 -11  -9  -1    1.26    1.26 
 -10  -9  -1    6.43    1.08 
  -9  -9  -1    3.11    0.87 
  -8  -9  -1   10.24    1.17 
  -7  -9  -1    0.76    0.72 
  -6  -9  -1   32.07    1.74 
  -5  -9  -1   17.18    1.36 
  -4  -9  -1    6.24    0.94 
  -3  -9  -1    7.24    1.40 
  -2  -9  -1   51.51    3.02 
 -13  -8  -1    5.38    1.50 
 -12  -8  -1    7.19    1.60 
 -11  -8  -1    2.08    1.22 
 -10  -8  -1    9.39    1.10 
  -9  -8  -1    3.98    0.85 
  -8  -8  -1   48.16    2.04 
  -7  -8  -1   46.79    1.99 
  -6  -8  -1   76.52    2.49 
  -5  -8  -1   32.71    1.64 
  -4  -8  -1   11.34    1.06 
  -3  -8  -1   51.11    1.95 
  -2  -8  -1   42.66    2.59 
  -1  -8  -1   18.75    1.75 
 -14  -7  -1    0.10    1.03 
 -13  -7  -1    3.66    1.22 
 -12  -7  -1    1.26    0.97 
 -11  -7  -1    0.29    0.83 
 -10  -7  -1    0.12    0.59 
  -9  -7  -1   16.18    1.20 
  -8  -7  -1    2.64    0.69 
  -7  -7  -1    6.98    0.83 
  -6  -7  -1    3.48    0.66 
  -5  -7  -1   28.65    1.43 
  -4  -7  -1    3.15    0.66 
  -3  -7  -1   11.72    0.96 
  -2  -7  -1    4.78    0.69 
  -1  -7  -1  149.72    4.34 
 -15  -6  -1   -0.35    0.95 
 -14  -6  -1    2.94    1.08 
 -13  -6  -1    2.77    1.05 
 -12  -6  -1    1.56    0.88 
 -11  -6  -1    7.44    1.14 
 -10  -6  -1   29.02    1.42 
  -9  -6  -1    3.24    0.66 
  -8  -6  -1    1.42    0.54 
  -7  -6  -1    4.92    0.70 
  -6  -6  -1   19.64    1.11 
  -5  -6  -1    0.21    0.36 
  -4  -6  -1    7.47    0.70 
  -3  -6  -1   35.54    1.39 
  -2  -6  -1  155.34    3.22 
  -1  -6  -1   16.64    1.30 
   0  -6  -1   11.74    1.19 
 -15  -5  -1    0.41    0.89 
 -14  -5  -1    3.78    1.07 
 -13  -5  -1    9.81    1.37 
 -12  -5  -1    2.06    0.83 
 -11  -5  -1    2.58    0.82 
 -10  -5  -1    0.31    0.48 
  -9  -5  -1    1.45    0.49 
  -8  -5  -1    8.16    0.72 
  -7  -5  -1   11.49    0.79 
  -6  -5  -1   41.30    1.40 
  -5  -5  -1    1.97    0.42 
  -4  -5  -1   24.24    1.06 
  -3  -5  -1   78.63    1.81 
  -2  -5  -1    4.58    0.55 
  -1  -5  -1    0.94    0.37 
   0  -5  -1  158.41    3.70 
 -16  -4  -1    0.76    1.01 
 -15  -4  -1    2.19    0.97 
 -14  -4  -1    1.21    0.85 
 -13  -4  -1    1.53    0.79 
 -12  -4  -1    1.91    0.77 
 -11  -4  -1    3.30    0.82 
 -10  -4  -1    2.54    0.77 
  -9  -4  -1    0.64    0.42 
  -8  -4  -1    0.09    0.31 
  -7  -4  -1    0.20    0.30 
  -6  -4  -1    4.72    0.50 
  -5  -4  -1    0.87    0.34 
  -4  -4  -1    5.83    0.53 
  -3  -4  -1   51.72    1.34 
  -2  -4  -1    3.21    0.40 
  -1  -4  -1   96.21    1.78 
   0  -4  -1   72.11    2.21 
 -16  -3  -1    0.38    0.88 
 -15  -3  -1   -0.12    0.90 
 -14  -3  -1    1.05    0.92 
 -13  -3  -1    8.70    1.24 
 -12  -3  -1    0.08    0.64 
 -11  -3  -1   -0.75    0.64 
 -10  -3  -1    0.72    0.66 
  -9  -3  -1    0.78    0.39 
  -8  -3  -1    8.16    0.63 
  -7  -3  -1    3.66    0.44 
  -6  -3  -1   17.18    0.78 
  -5  -3  -1    0.67    0.30 
  -4  -3  -1   19.56    0.73 
  -3  -3  -1   22.18    0.76 
  -2  -3  -1  114.86    1.72 
  -1  -3  -1   43.08    1.05 
   0  -3  -1 1016.43   12.75 
 -16  -2  -1    4.13    1.12 
 -15  -2  -1    0.95    0.82 
 -14  -2  -1    0.79    0.77 
 -13  -2  -1    0.08    0.63 
 -12  -2  -1   -0.08    0.56 
 -11  -2  -1   10.18    1.09 
 -10  -2  -1   30.33    1.62 
  -9  -2  -1   25.49    0.97 
  -8  -2  -1    5.25    0.48 
  -7  -2  -1    8.76    0.56 
  -6  -2  -1   73.53    1.40 
  -5  -2  -1    3.77    0.40 
  -4  -2  -1   20.21    0.67 
  -3  -2  -1   10.30    0.48 
  -2  -2  -1   11.58    1.09 
  -1  -2  -1  137.67    2.25 
   0  -2  -1  705.14    4.29 
 -17  -1  -1    6.66    1.39 
 -16  -1  -1    1.45    0.93 
 -15  -1  -1    4.88    1.05 
 -14  -1  -1    8.53    1.20 
 -13  -1  -1    8.68    1.17 
 -12  -1  -1    3.62    0.85 
 -11  -1  -1    1.79    0.69 
 -10  -1  -1   11.54    1.05 
  -9  -1  -1   14.38    1.08 
  -8  -1  -1    1.44    0.33 
  -7  -1  -1   13.99    0.62 
  -6  -1  -1    1.09    0.31 
  -5  -1  -1   94.53    1.33 
  -4  -1  -1  420.98    3.00 
  -3  -1  -1   90.92    1.12 
  -2  -1  -1  552.73    8.50 
  -1  -1  -1   79.69    1.25 
   0  -1  -1   15.75    0.52 
 -17   0  -1    1.46    1.13 
 -16   0  -1    0.53    0.86 
 -15   0  -1    3.83    1.02 
 -14   0  -1    0.41    0.74 
 -13   0  -1   -0.26    0.67 
 -12   0  -1   -0.25    0.64 
 -11   0  -1    0.05    0.54 
 -10   0  -1    0.02    0.57 
  -9   0  -1    0.30    0.54 
  -8   0  -1    0.02    0.27 
  -7   0  -1   81.04    1.24 
  -6   0  -1    0.06    0.29 
  -5   0  -1   25.55    0.61 
  -4   0  -1   -0.14    0.20 
  -3   0  -1 1130.00   57.18 
  -2   0  -1    0.15    0.23 
  -1   0  -1  150.96    1.60 
 -17   1  -1    4.71    1.29 
 -16   1  -1    1.91    1.01 
 -15   1  -1    8.07    1.35 
 -14   1  -1   11.57    1.33 
 -13   1  -1    8.82    1.11 
 -12   1  -1    3.45    0.89 
 -11   1  -1    1.50    0.73 
 -10   1  -1   12.34    1.11 
  -9   1  -1   13.85    1.14 
  -8   1  -1    1.56    0.34 
  -7   1  -1   14.72    0.57 
  -6   1  -1    1.22    0.29 
  -5   1  -1   83.13    1.03 
  -4   1  -1  368.33    2.50 
  -3   1  -1   90.32    1.11 
  -2   1  -1  432.14    8.16 
 -16   2  -1    3.71    1.10 
 -15   2  -1    1.28    0.89 
 -14   2  -1    1.35    0.88 
 -13   2  -1    0.24    0.79 
 -12   2  -1   -0.08    0.72 
 -11   2  -1   11.70    1.29 
 -10   2  -1   37.73    2.07 
  -9   2  -1   24.19    1.46 
  -8   2  -1    5.54    0.88 
  -7   2  -1    8.72    0.50 
  -6   2  -1   73.57    1.16 
  -5   2  -1    2.88    0.32 
  -4   2  -1   22.64    0.93 
  -3   2  -1    9.98    0.39 
  -2   2  -1    7.89    0.43 
   1   2  -1    3.13    0.26 
 -16   3  -1   -0.44    0.84 
 -15   3  -1   -0.20    0.86 
 -14   3  -1    0.88    0.89 
 -13   3  -1    9.48    1.37 
 -12   3  -1    0.27    0.88 
 -11   3  -1   -0.01    0.72 
 -10   3  -1    0.58    0.80 
  -9   3  -1    0.69    0.74 
  -8   3  -1    8.22    1.08 
  -7   3  -1    4.40    0.45 
  -6   3  -1   20.13    1.02 
  -5   3  -1    1.11    0.30 
  -4   3  -1   19.88    0.66 
  -3   3  -1   23.19    0.86 
   2   3  -1   38.36    0.65 
 -16   4  -1    0.84    1.16 
 -15   4  -1    3.89    1.34 
 -14   4  -1   -0.19    1.04 
 -13   4  -1    2.43    1.06 
 -12   4  -1    1.30    0.88 
 -11   4  -1    3.40    1.05 
 -10   4  -1    4.08    1.09 
  -9   4  -1    0.77    0.84 
  -8   4  -1    0.29    0.87 
  -7   4  -1   -0.20    0.37 
  -6   4  -1    5.05    0.49 
  -5   4  -1    0.96    0.37 
  -4   4  -1    4.93    0.54 
  -3   4  -1   49.59    1.42 
   2   4  -1   31.92    0.68 
 -15   5  -1    1.42    1.38 
 -14   5  -1    3.67    1.24 
 -13   5  -1   11.52    1.50 
 -12   5  -1    2.41    1.12 
 -11   5  -1    1.73    1.08 
 -10   5  -1   -0.14    0.91 
  -9   5  -1    1.61    1.05 
  -8   5  -1    8.19    1.18 
  -7   5  -1   13.60    0.82 
  -6   5  -1   42.28    1.23 
  -5   5  -1    1.96    0.49 
  -4   5  -1   28.66    1.31 
  -3   5  -1   81.94    2.12 
  -2   5  -1    4.30    0.65 
   2   5  -1    6.09    0.44 
 -15   6  -1    0.17    1.10 
 -14   6  -1    3.29    1.33 
 -13   6  -1    4.59    1.33 
 -12   6  -1    1.59    1.16 
 -11   6  -1   10.63    1.63 
 -10   6  -1   38.64    2.72 
  -9   6  -1    2.55    1.10 
  -8   6  -1    1.33    1.04 
  -7   6  -1    4.95    0.69 
  -6   6  -1   20.66    1.22 
  -5   6  -1   -0.09    0.40 
  -4   6  -1    8.99    0.90 
  -3   6  -1   39.10    1.65 
  -2   6  -1  163.77    3.53 
 -14   7  -1    0.34    1.22 
 -13   7  -1    5.80    1.56 
 -12   7  -1    0.63    1.17 
 -11   7  -1   -1.01    1.14 
 -10   7  -1   -0.62    0.96 
  -9   7  -1   14.84    1.74 
  -8   7  -1    2.78    1.25 
  -7   7  -1    8.43    1.67 
  -6   7  -1    3.95    0.74 
  -5   7  -1   30.50    1.62 
  -4   7  -1    2.97    0.74 
  -3   7  -1   11.48    1.07 
  -2   7  -1    5.96    0.93 
 -13   8  -1    6.01    1.76 
 -12   8  -1    8.56    1.90 
 -11   8  -1    1.91    1.29 
 -10   8  -1    9.16    1.66 
  -9   8  -1    3.53    1.43 
  -8   8  -1   52.21    3.26 
  -6   8  -1   86.62    2.95 
  -5   8  -1   36.55    1.99 
  -4   8  -1   15.37    1.49 
  -3   8  -1   57.41    2.43 
  -2   8  -1   50.11    2.37 
  -1   8  -1   21.41    1.66 
 -12   9  -1    3.13    1.70 
 -11   9  -1    1.18    1.36 
 -10   9  -1    5.70    1.59 
  -9   9  -1    3.65    1.56 
  -8   9  -1   11.39    2.03 
  -6   9  -1   41.39    2.34 
  -5   9  -1   18.23    1.58 
  -4   9  -1    7.74    1.27 
  -3   9  -1   10.33    1.31 
  -2   9  -1   55.43    2.63 
  -1   9  -1    1.45    0.93 
   0   9  -1   11.77    1.45 
 -10  10  -1    2.39    1.52 
  -9  10  -1   -1.23    1.20 
  -8  10  -1    0.27    1.47 
  -6  10  -1    2.89    1.08 
  -5  10  -1   -0.11    0.81 
  -4  10  -1    2.00    0.98 
  -3  10  -1   18.91    1.82 
  -2  10  -1    2.19    0.98 
  -1  10  -1   -0.47    0.84 
   0  10  -1    3.38    1.14 
   1  10  -1   15.67    1.75 
  -9  11  -1    6.57    1.97 
  -8  11  -1    8.14    2.15 
  -5  11  -1    0.17    0.96 
  -4  11  -1    2.13    1.08 
  -3  11  -1   -0.07    1.05 
  -2  11  -1    0.13    0.97 
  -1  11  -1   22.97    2.13 
   0  11  -1    0.95    1.16 
   1  11  -1    0.73    1.10 
   2  11  -1   10.88    1.67 
  -5  12  -1   -0.03    1.15 
  -4  12  -1    6.47    1.48 
  -3  12  -1    0.76    1.12 
  -2  12  -1    4.28    1.42 
  -1  12  -1    1.37    1.13 
   0  12  -1    3.05    1.33 
   1  12  -1    0.20    1.14 
   2  12  -1    5.58    1.48 
   3  12  -1    4.95    1.46 
   4  12  -1   10.55    1.89 
  -4  13  -1    1.11    1.30 
  -3  13  -1   -0.22    1.17 
  -2  13  -1    0.77    1.25 
  -1  13  -1    3.16    1.53 
   0  13  -1    4.53    1.46 
   1  13  -1   -0.56    1.11 
  -8 -12   0    0.97    2.02 
  -6 -12   0    0.60    1.12 
 -10 -11   0    1.78    1.00 
  -9 -11   0   -0.32    0.84 
  -8 -11   0    2.40    0.96 
  -7 -11   0    1.57    0.90 
  -6 -11   0    5.21    1.49 
  -5 -11   0    3.88    1.34 
  -4 -11   0    3.22    1.22 
 -11 -10   0    1.36    0.96 
 -10 -10   0    2.03    0.94 
  -9 -10   0    0.42    0.80 
  -8 -10   0    4.91    1.02 
  -7 -10   0    7.70    1.16 
  -6 -10   0    0.81    0.74 
  -5 -10   0    5.33    1.00 
  -4 -10   0    3.12    1.10 
  -3 -10   0    0.53    0.91 
  -2 -10   0    2.85    1.10 
 -13  -9   0    0.01    1.33 
 -12  -9   0    2.50    1.38 
 -11  -9   0    2.12    0.96 
 -10  -9   0    0.66    0.82 
  -9  -9   0   23.89    1.63 
  -8  -9   0    0.18    0.73 
  -7  -9   0   26.98    1.68 
  -6  -9   0    6.48    1.01 
  -5  -9   0    0.49    0.67 
  -4  -9   0   13.08    1.17 
  -3  -9   0   10.30    1.47 
  -2  -9   0   29.96    2.30 
  -1  -9   0    4.29    1.16 
 -14  -8   0    0.56    1.27 
 -13  -8   0   -0.44    1.20 
 -12  -8   0   32.04    2.66 
 -11  -8   0    1.18    0.78 
 -10  -8   0    3.44    0.90 
  -9  -8   0    0.17    0.65 
  -8  -8   0    3.57    0.80 
  -7  -8   0   33.46    1.66 
  -6  -8   0    1.04    0.65 
  -5  -8   0    2.25    0.69 
  -4  -8   0    6.91    0.91 
  -3  -8   0    5.26    0.82 
  -2  -8   0   11.04    1.37 
  -1  -8   0    0.07    0.69 
   0  -8   0  143.71    4.51 
 -15  -7   0   -0.31    1.21 
 -14  -7   0    7.03    1.48 
 -13  -7   0    1.84    1.02 
 -12  -7   0    1.16    0.99 
 -11  -7   0    1.92    0.74 
 -10  -7   0    8.01    0.94 
  -9  -7   0    8.14    0.92 
  -8  -7   0   -0.15    0.51 
  -7  -7   0    0.89    0.55 
  -6  -7   0    9.16    0.89 
  -5  -7   0   -0.02    0.49 
  -4  -7   0    5.04    0.70 
  -3  -7   0    2.83    0.65 
  -2  -7   0   48.33    2.47 
  -1  -7   0    0.83    0.65 
   0  -7   0    0.77    0.69 
 -15  -6   0    0.16    0.94 
 -14  -6   0    0.48    0.90 
 -13  -6   0    0.87    0.91 
 -12  -6   0    0.12    0.75 
 -11  -6   0    2.49    0.83 
 -10  -6   0    1.06    0.54 
  -9  -6   0    0.42    0.51 
  -8  -6   0    4.65    0.70 
  -7  -6   0    7.38    0.79 
  -6  -6   0    3.99    0.61 
  -5  -6   0   -0.14    0.36 
  -4  -6   0   19.50    1.05 
  -3  -6   0   40.45    1.46 
  -2  -6   0   23.79    1.14 
  -1  -6   0    1.86    0.67 
   0  -6   0    0.39    0.53 
   1  -6   0    4.00    0.79 
 -16  -5   0    0.40    1.01 
 -15  -5   0    0.39    0.88 
 -14  -5   0    6.96    1.24 
 -13  -5   0    1.57    0.84 
 -12  -5   0    7.17    1.13 
 -11  -5   0    3.40    0.87 
 -10  -5   0    0.33    0.48 
  -9  -5   0    0.94    0.45 
  -8  -5   0    3.54    0.55 
  -7  -5   0   10.71    0.79 
  -6  -5   0   31.24    1.23 
  -5  -5   0    0.25    0.34 
  -4  -5   0    9.28    0.70 
  -3  -5   0  186.80    2.81 
  -2  -5   0   17.55    0.91 
  -1  -5   0   77.91    1.80 
   0  -5   0   -0.13    0.45 
   1  -5   0   80.69    2.59 
 -16  -4   0    3.82    1.20 
 -15  -4   0    1.08    0.88 
 -14  -4   0    0.11    0.75 
 -13  -4   0    5.24    1.02 
 -12  -4   0    4.15    0.88 
 -11  -4   0    3.85    0.86 
 -10  -4   0    5.35    0.65 
  -9  -4   0    2.55    0.50 
  -8  -4   0    2.13    0.43 
  -7  -4   0   72.15    1.70 
  -6  -4   0   35.02    1.15 
  -5  -4   0   26.61    0.99 
  -4  -4   0  120.13    2.06 
  -3  -4   0    0.25    0.31 
  -2  -4   0   13.87    0.71 
  -1  -4   0   14.79    0.76 
   0  -4   0 1078.03    9.84 
   1  -4   0   16.41    1.09 
 -17  -3   0    0.03    1.01 
 -16  -3   0   -0.10    0.85 
 -15  -3   0   -0.21    0.90 
 -14  -3   0   12.00    1.45 
 -13  -3   0    0.58    0.77 
 -12  -3   0    1.77    0.86 
 -11  -3   0   24.69    1.74 
 -10  -3   0   42.31    1.42 
  -9  -3   0   24.56    1.05 
  -8  -3   0    0.12    0.32 
  -7  -3   0    1.01    0.31 
  -6  -3   0   22.17    0.85 
  -5  -3   0    8.50    0.54 
  -4  -3   0   12.68    0.60 
  -3  -3   0   16.16    0.66 
  -2  -3   0   84.47    1.41 
  -1  -3   0   61.51    1.19 
   0  -3   0    0.18    0.31 
   1  -3   0   66.04    1.79 
 -17  -2   0    3.30    1.25 
 -16  -2   0    0.50    0.88 
 -15  -2   0    3.91    1.04 
 -14  -2   0    0.28    0.71 
 -13  -2   0    0.54    0.60 
 -12  -2   0    1.07    0.63 
 -11  -2   0   26.17    1.58 
 -10  -2   0    0.01    0.55 
  -9  -2   0   31.55    1.06 
  -8  -2   0    0.54    0.31 
  -7  -2   0   69.64    1.40 
  -6  -2   0    2.54    0.37 
  -5  -2   0   41.10    1.00 
  -4  -2   0  339.72    4.83 
  -3  -2   0  296.30    2.50 
  -2  -2   0  284.96    2.34 
  -1  -2   0  181.52    1.76 
   0  -2   0  119.14    1.97 
   1  -2   0  198.17    2.65 
 -17  -1   0    1.29    1.04 
 -16  -1   0    1.99    0.95 
 -15  -1   0    2.65    0.89 
 -14  -1   0   25.87    1.90 
 -13  -1   0    5.16    0.96 
 -12  -1   0    3.87    0.84 
 -11  -1   0   25.75    1.55 
 -10  -1   0   75.55    2.43 
  -9  -1   0    0.14    0.33 
  -8  -1   0    4.71    0.46 
  -7  -1   0   87.85    1.47 
  -6  -1   0    0.59    0.31 
  -5  -1   0  230.24    2.14 
  -4  -1   0    1.53    0.26 
  -3  -1   0  968.60    5.89 
  -2  -1   0  943.19   48.08 
  -1  -1   0    0.88    0.12 
   0  -1   0    0.23    0.10 
 -17   0   0    0.05    0.97 
 -16   0   0   11.96    1.54 
 -15   0   0    0.10    0.74 
 -14   0   0   31.69    2.05 
 -13   0   0   -0.17    0.63 
 -12   0   0    8.67    1.11 
 -11   0   0   -0.33    0.56 
 -10   0   0   27.48    1.49 
  -9   0   0   -0.05    0.34 
  -8   0   0   98.76    1.52 
  -7   0   0    0.11    0.33 
  -6   0   0  888.12    5.14 
  -5   0   0   -0.23    0.22 
  -4   0   0   86.44    1.06 
  -3   0   0    0.16    0.18 
  -2   0   0  576.81    6.54 
  -1   0   0    0.14    0.08 
 -17   1   0    0.33    1.06 
 -16   1   0    3.63    1.18 
 -15   1   0    3.50    1.03 
 -14   1   0   25.80    1.82 
 -13   1   0    4.57    0.96 
 -12   1   0    4.61    0.94 
 -11   1   0   30.90    1.78 
 -10   1   0   82.91    2.65 
  -9   1   0    0.12    0.59 
  -8   1   0    5.50    0.48 
  -7   1   0   83.77    1.29 
  -6   1   0    0.81    0.30 
  -5   1   0  218.18    1.93 
  -4   1   0    2.05    0.29 
  -3   1   0  820.54    8.86 
  -2   1   0 1038.59    6.50 
  -1   1   0    0.84    0.13 
 -17   2   0    3.67    1.31 
 -16   2   0    0.38    0.88 
 -15   2   0    3.57    1.09 
 -14   2   0    0.29    0.75 
 -13   2   0   -0.02    0.73 
 -12   2   0    1.26    0.79 
 -11   2   0   31.71    2.02 
 -10   2   0    0.07    0.69 
  -9   2   0   27.94    1.56 
  -8   2   0    0.24    0.47 
  -7   2   0   69.65    1.23 
  -6   2   0    3.14    0.41 
  -5   2   0   39.41    0.93 
  -4   2   0  345.21    6.04 
  -3   2   0  304.17    3.03 
  -2   2   0  284.24    2.85 
  -1   2   0  188.73    2.22 
 -16   3   0    0.62    0.94 
 -15   3   0    0.55    1.02 
 -14   3   0   11.72    1.50 
 -13   3   0    1.31    1.00 
 -12   3   0    2.46    0.91 
 -11   3   0   24.23    1.73 
 -10   3   0   40.60    2.10 
  -9   3   0   22.96    1.59 
  -8   3   0    0.42    0.38 
  -7   3   0    1.17    0.39 
  -6   3   0   21.03    0.74 
  -5   3   0    9.08    0.52 
  -4   3   0   12.95    0.66 
  -3   3   0   17.04    0.74 
  -2   3   0   81.16    1.60 
 -16   4   0    4.02    1.31 
 -15   4   0    1.00    1.11 
 -14   4   0    0.16    1.10 
 -13   4   0    6.37    1.27 
 -12   4   0    3.80    1.17 
 -11   4   0    4.99    1.11 
 -10   4   0    5.78    1.21 
  -9   4   0    3.23    1.04 
  -8   4   0    2.64    0.49 
  -7   4   0   85.92    1.96 
  -6   4   0   36.04    1.07 
  -5   4   0   25.29    1.02 
  -4   4   0  121.66    2.33 
  -3   4   0    0.08    0.34 
  -2   4   0   14.52    0.84 
 -15   5   0    1.44    1.36 
 -14   5   0    7.09    1.45 
 -13   5   0    1.12    1.14 
 -12   5   0    8.29    1.44 
 -11   5   0    3.60    1.22 
 -10   5   0    1.47    1.15 
  -9   5   0    0.71    0.91 
  -8   5   0    3.45    0.96 
  -7   5   0   10.34    0.72 
  -6   5   0   35.27    1.50 
  -5   5   0    0.11    0.40 
  -4   5   0    8.69    0.75 
  -3   5   0  202.88    3.52 
  -2   5   0   18.70    1.11 
 -15   6   0    0.56    1.21 
 -14   6   0    0.42    1.29 
 -13   6   0    1.62    1.22 
 -12   6   0    0.11    1.02 
 -11   6   0    3.27    1.26 
 -10   6   0    0.93    1.03 
  -9   6   0    0.12    0.90 
  -8   6   0    3.62    1.20 
  -7   6   0    9.59    0.81 
  -6   6   0    7.12    0.93 
  -5   6   0   -0.09    0.38 
  -4   6   0   21.48    1.27 
  -3   6   0   42.97    1.78 
  -2   6   0   27.30    1.46 
  -1   6   0    4.79    0.76 
 -14   7   0   11.19    1.85 
 -13   7   0    2.54    1.34 
 -12   7   0    0.56    1.16 
 -11   7   0    0.60    1.11 
 -10   7   0    8.20    1.50 
  -9   7   0    9.55    1.65 
  -8   7   0    0.13    1.10 
  -7   7   0    1.44    0.68 
  -6   7   0   11.31    1.14 
  -5   7   0   -0.38    0.47 
  -4   7   0    6.26    0.87 
  -3   7   0    1.63    0.66 
  -2   7   0   46.17    2.04 
  -1   7   0    1.10    0.69 
 -13   8   0   -0.06    1.36 
 -12   8   0   42.60    3.36 
 -11   8   0    0.59    1.16 
 -10   8   0    2.23    1.20 
  -9   8   0    0.29    1.13 
  -8   8   0    3.22    1.43 
  -7   8   0   38.74    1.95 
  -6   8   0    0.57    0.74 
  -5   8   0    2.74    0.82 
  -4   8   0    7.39    1.04 
  -3   8   0    6.44    1.07 
  -2   8   0   11.51    1.24 
  -1   8   0    0.45    0.76 
   0   8   0  166.42    4.30 
 -12   9   0    2.57    1.61 
 -11   9   0    1.29    1.34 
 -10   9   0    0.17    1.28 
  -9   9   0   24.91    2.59 
  -8   9   0   -0.44    1.27 
  -6   9   0    8.67    1.29 
  -5   9   0    0.53    0.78 
  -4   9   0   13.90    1.49 
  -3   9   0   13.52    1.53 
  -2   9   0   36.91    2.20 
  -1   9   0    7.00    1.20 
   0   9   0   -0.30    0.82 
   1   9   0    5.48    1.18 
 -10  10   0    1.12    1.44 
  -9  10   0    0.41    1.41 
  -6  10   0    1.37    1.06 
  -5  10   0    7.23    1.28 
  -4  10   0    4.12    1.09 
  -3  10   0    0.08    0.98 
  -2  10   0    3.56    1.07 
  -1  10   0   -0.50    0.79 
   0  10   0    0.12    0.86 
   1  10   0    0.34    0.93 
   2  10   0    2.55    1.10 
  -9  11   0    1.18    1.67 
  -6  11   0    8.03    1.54 
  -5  11   0    4.70    1.37 
  -4  11   0    3.67    1.20 
  -3  11   0    1.31    1.04 
  -2  11   0   10.84    1.66 
  -1  11   0    5.63    1.36 
   0  11   0    0.02    0.95 
   1  11   0    6.14    1.47 
   2  11   0    9.71    1.60 
   3  11   0    0.85    1.11 
  -5  12   0    0.57    1.24 
  -4  12   0    0.52    1.06 
  -3  12   0    4.76    1.41 
  -2  12   0    1.83    1.29 
  -1  12   0    1.90    1.22 
   0  12   0    0.03    1.02 
   1  12   0    1.86    1.17 
   2  12   0    1.13    1.23 
   3  12   0    4.50    1.44 
   4  12   0   -0.18    1.34 
   5  12   0    1.02    1.35 
   6  12   0    0.64    1.52 
  -4  13   0   -0.66    1.20 
  -3  13   0    0.15    1.24 
  -2  13   0    0.20    1.15 
  -1  13   0    2.89    1.46 
   0  13   0   -0.65    1.14 
   1  13   0    2.36    1.39 
  -6 -12   1    0.99    1.18 
  -5 -12   1    0.71    1.20 
  -4 -12   1    8.37    1.71 
 -10 -11   1    1.02    0.98 
  -9 -11   1    0.56    0.91 
  -8 -11   1    9.07    2.11 
  -7 -11   1    9.70    1.28 
  -6 -11   1    9.60    1.64 
  -5 -11   1    5.69    1.37 
  -4 -11   1    1.61    1.09 
  -3 -11   1    6.16    1.49 
  -2 -11   1    9.31    1.70 
 -11 -10   1    3.04    1.06 
 -10 -10   1    0.95    0.95 
  -9 -10   1   11.51    1.33 
  -8 -10   1   14.87    1.44 
  -7 -10   1   -0.36    0.79 
  -6 -10   1   -0.37    0.72 
  -5 -10   1    5.90    1.32 
  -4 -10   1    0.59    0.91 
  -3 -10   1   -0.20    0.75 
  -2 -10   1   -0.61    0.80 
  -1 -10   1   13.85    1.79 
 -13  -9   1   -0.39    1.22 
 -12  -9   1    3.09    1.45 
 -11  -9   1    6.95    1.18 
 -10  -9   1    3.17    0.91 
  -9  -9   1    3.64    0.91 
  -8  -9   1    7.22    1.05 
  -7  -9   1    1.04    0.70 
  -6  -9   1   23.98    1.54 
  -5  -9   1   32.90    1.75 
  -4  -9   1   28.76    2.31 
  -3  -9   1   26.72    2.13 
  -2  -9   1   50.59    2.81 
  -1  -9   1   -0.10    0.78 
   0  -9   1    9.99    1.44 
 -14  -8   1   -0.46    1.29 
 -13  -8   1   17.01    2.10 
 -12  -8   1    1.33    1.14 
 -11  -8   1    0.87    0.76 
 -10  -8   1    1.31    0.75 
  -9  -8   1   13.24    1.20 
  -8  -8   1    5.60    0.88 
  -7  -8   1   12.97    1.13 
  -6  -8   1    7.62    0.95 
  -5  -8   1   22.36    1.38 
  -4  -8   1   89.34    2.51 
  -3  -8   1    1.62    0.83 
  -2  -8   1   26.86    2.01 
  -1  -8   1  126.53    4.04 
   0  -8   1   12.86    1.46 
   1  -8   1   20.61    1.80 
 -15  -7   1    8.71    1.62 
 -14  -7   1   -0.03    1.03 
 -13  -7   1    0.90    0.98 
 -12  -7   1    0.89    0.98 
 -11  -7   1   19.44    1.34 
 -10  -7   1    0.94    0.67 
  -9  -7   1    1.95    0.67 
  -8  -7   1    1.93    0.65 
  -7  -7   1   20.96    1.24 
  -6  -7   1   11.60    0.95 
  -5  -7   1    0.73    0.52 
  -4  -7   1    0.76    0.54 
  -3  -7   1  248.81    3.91 
  -2  -7   1    4.38    0.91 
  -1  -7   1   25.03    1.79 
   0  -7   1    5.74    0.96 
   1  -7   1  160.34    4.38 
 -16  -6   1   -0.24    1.04 
 -15  -6   1    0.23    0.92 
 -14  -6   1    0.32    0.88 
 -13  -6   1    4.88    1.15 
 -12  -6   1   -0.04    0.76 
 -11  -6   1    0.26    0.51 
 -10  -6   1    1.52    0.57 
  -9  -6   1   -0.40    0.45 
  -8  -6   1    5.31    0.70 
  -7  -6   1   35.80    1.45 
  -6  -6   1   12.42    0.91 
  -5  -6   1    5.45    0.65 
  -4  -6   1    3.70    0.57 
  -3  -6   1   28.58    1.21 
  -2  -6   1   96.40    2.18 
  -1  -6   1   35.17    1.86 
   0  -6   1   11.84    1.19 
   1  -6   1   17.16    1.30 
 -16  -5   1    0.67    1.02 
 -15  -5   1    0.21    0.97 
 -14  -5   1    1.95    0.94 
 -13  -5   1    0.29    0.75 
 -12  -5   1    4.33    0.95 
 -11  -5   1   15.11    1.04 
 -10  -5   1    2.96    0.61 
  -9  -5   1    1.54    0.50 
  -8  -5   1    1.28    0.42 
  -7  -5   1    8.10    0.71 
  -6  -5   1    9.50    0.73 
  -5  -5   1   27.06    1.13 
  -4  -5   1    0.21    0.35 
  -3  -5   1    8.60    0.68 
  -2  -5   1    6.47    0.61 
  -1  -5   1   72.01    2.41 
   0  -5   1  143.93    3.31 
   1  -5   1    0.72    0.52 
   2  -5   1    3.73    0.73 
 -17  -4   1    1.66    1.22 
 -16  -4   1    0.33    0.91 
 -15  -4   1    1.53    0.91 
 -14  -4   1   -0.06    0.71 
 -13  -4   1    6.82    1.07 
 -12  -4   1    8.15    1.11 
 -11  -4   1   22.65    1.60 
 -10  -4   1    2.22    0.49 
  -9  -4   1   29.53    1.19 
  -8  -4   1   13.78    0.80 
  -7  -4   1   52.63    1.43 
  -6  -4   1   78.55    1.68 
  -5  -4   1    2.00    0.38 
  -4  -4   1   67.26    1.51 
  -3  -4   1  148.61    2.23 
  -2  -4   1   33.62    1.05 
  -1  -4   1   16.99    0.77 
   0  -4   1   74.90    2.21 
   1  -4   1   98.35    2.49 
   2  -4   1    2.88    0.58 
 -17  -3   1    0.39    1.03 
 -16  -3   1    2.03    1.04 
 -15  -3   1    0.80    0.91 
 -14  -3   1    0.34    0.79 
 -13  -3   1    0.93    0.79 
 -12  -3   1    0.46    0.71 
 -11  -3   1   26.81    1.77 
 -10  -3   1   18.55    0.98 
  -9  -3   1    1.23    0.37 
  -8  -3   1    6.03    0.57 
  -7  -3   1   16.43    0.77 
  -6  -3   1  152.22    2.17 
  -5  -3   1    3.25    0.39 
  -4  -3   1    2.74    0.35 
  -3  -3   1   15.82    0.64 
  -2  -3   1   39.82    0.96 
  -1  -3   1   14.09    0.64 
   0  -3   1  992.48    8.38 
   1  -3   1   44.01    1.43 
   2  -3   1  113.67    2.27 
 -17  -2   1    0.13    0.97 
 -16  -2   1    1.25    0.91 
 -15  -2   1    0.49    0.82 
 -14  -2   1    1.39    0.74 
 -13  -2   1    2.66    0.78 
 -12  -2   1    2.81    0.77 
 -11  -2   1    9.13    1.03 
 -10  -2   1    1.65    0.44 
  -9  -2   1   -0.26    0.32 
  -8  -2   1   59.19    1.35 
  -7  -2   1   20.05    0.77 
  -6  -2   1   13.54    0.61 
  -5  -2   1    4.72    0.39 
  -4  -2   1  339.12    2.75 
  -3  -2   1    0.05    0.20 
  -2  -2   1  188.23    2.17 
  -1  -2   1    3.27    0.31 
   0  -2   1  769.36    6.44 
   1  -2   1  140.87    2.08 
 -17  -1   1    0.35    0.94 
 -16  -1   1    3.49    1.02 
 -15  -1   1    6.17    1.15 
 -14  -1   1    9.85    1.28 
 -13  -1   1    2.63    0.83 
 -12  -1   1    1.23    0.69 
 -11  -1   1   40.38    1.88 
 -10  -1   1   42.17    1.24 
  -9  -1   1    1.09    0.40 
  -8  -1   1   21.34    0.78 
  -7  -1   1    9.96    0.57 
  -6  -1   1    8.54    0.52 
  -5  -1   1  174.48    1.89 
  -4  -1   1   76.59    1.10 
  -3  -1   1   23.78    0.58 
  -2  -1   1  538.77    7.05 
  -1  -1   1    6.99    0.37 
   0  -1   1   16.64    0.51 
   1  -1   1   84.05    1.20 
 -17   0   1    3.19    1.18 
 -16   0   1    0.18    0.90 
 -15   0   1    0.22    0.69 
 -14   0   1    0.38    0.76 
 -13   0   1    6.62    1.09 
 -12   0   1   -0.48    0.61 
 -11   0   1   19.08    1.36 
 -10   0   1   -0.13    0.55 
  -9   0   1    1.93    0.43 
  -8   0   1   -0.26    0.29 
  -7   0   1   55.09    1.12 
  -6   0   1   -0.19    0.25 
  -5   0   1  257.88    3.42 
  -4   0   1   -0.32    0.22 
  -3   0   1    1.98    0.23 
  -2   0   1    0.13    0.10 
 -17   1   1    0.36    1.04 
 -16   1   1    5.91    1.26 
 -15   1   1    5.87    1.13 
 -14   1   1    9.99    1.25 
 -13   1   1    2.68    0.86 
 -12   1   1    0.69    0.70 
 -11   1   1   42.77    2.05 
 -10   1   1   42.26    1.96 
  -9   1   1    1.42    0.42 
  -8   1   1   22.75    0.80 
  -7   1   1   10.15    0.57 
  -6   1   1    8.05    0.47 
  -5   1   1  168.44    1.78 
  -4   1   1   72.06    1.08 
  -3   1   1   20.84    0.53 
  -2   1   1  699.46    5.41 
  -1   1   1    7.68    0.34 
   0   1   1   14.33    0.41 
 -17   2   1    0.80    1.09 
 -16   2   1    0.51    0.92 
 -15   2   1    0.84    0.83 
 -14   2   1    1.06    0.81 
 -13   2   1    3.71    0.94 
 -12   2   1    3.56    0.99 
 -11   2   1   12.80    1.42 
 -10   2   1    2.92    0.79 
  -9   2   1    0.12    0.37 
  -8   2   1   66.46    1.36 
  -7   2   1   20.31    0.75 
  -6   2   1   14.16    0.63 
  -5   2   1    5.00    0.41 
  -4   2   1  400.68   15.07 
  -3   2   1    0.29    0.24 
  -2   2   1  172.76    2.10 
  -1   2   1    3.71    0.37 
   0   2   1  679.27    5.38 
 -16   3   1    1.30    1.03 
 -15   3   1    1.51    1.08 
 -14   3   1    0.23    0.90 
 -13   3   1    0.88    0.95 
 -12   3   1   -0.10    0.77 
 -11   3   1   27.20    1.89 
 -10   3   1   17.99    1.52 
  -9   3   1    0.93    0.83 
  -8   3   1    6.03    0.57 
  -7   3   1   17.88    0.76 
  -6   3   1  157.98    2.07 
  -5   3   1    3.32    0.39 
  -4   3   1    3.45    0.44 
  -3   3   1   15.56    0.73 
  -2   3   1   36.06    1.09 
  -1   3   1   12.36    0.68 
 -16   4   1    0.13    1.09 
 -15   4   1    1.57    1.22 
 -14   4   1    0.81    0.99 
 -13   4   1    7.68    1.25 
 -12   4   1    9.86    1.38 
 -11   4   1   27.52    2.04 
 -10   4   1    2.05    1.03 
  -9   4   1   28.97    1.95 
  -8   4   1   14.32    0.79 
  -7   4   1   56.99    1.38 
  -6   4   1   86.77    2.05 
  -5   4   1    2.74    0.55 
  -4   4   1   66.75    1.73 
  -3   4   1  140.46    2.53 
  -2   4   1   31.75    1.21 
  -1   4   1   17.63    0.96 
 -16   5   1    0.32    1.41 
 -15   5   1    0.53    1.07 
 -14   5   1    1.54    1.12 
 -13   5   1    0.74    0.99 
 -12   5   1    5.91    1.39 
 -11   5   1   16.79    1.79 
 -10   5   1    3.76    1.23 
  -9   5   1    1.39    0.91 
  -8   5   1    0.78    0.48 
  -7   5   1    9.34    0.72 
  -6   5   1   11.22    0.91 
  -5   5   1   32.39    1.47 
  -4   5   1   -0.23    0.40 
  -3   5   1    9.78    0.82 
  -2   5   1    5.91    0.69 
  -1   5   1   74.03    2.15 
 -15   6   1    0.18    1.18 
 -14   6   1    0.36    1.19 
 -13   6   1    6.74    1.59 
 -12   6   1    0.56    1.15 
 -11   6   1   -0.12    1.14 
 -10   6   1    2.27    1.10 
  -9   6   1    0.40    1.07 
  -8   6   1    5.07    0.67 
  -7   6   1   42.39    1.85 
  -6   6   1   13.47    1.07 
  -5   6   1    5.18    0.72 
  -4   6   1    3.63    0.63 
  -3   6   1   32.75    1.63 
  -2   6   1  103.88    2.72 
  -1   6   1   36.77    1.71 
   0   6   1   12.10    1.09 
 -14   7   1   -0.23    1.23 
 -13   7   1    0.15    1.37 
 -12   7   1    0.94    1.28 
 -11   7   1   21.11    2.10 
 -10   7   1    0.84    1.01 
  -9   7   1    1.21    1.10 
  -8   7   1    2.12    0.70 
  -7   7   1   27.61    1.76 
  -6   7   1   12.35    1.16 
  -5   7   1    0.04    0.53 
  -4   7   1    1.30    0.58 
  -3   7   1  285.54    5.25 
  -2   7   1    5.42    0.88 
  -1   7   1   28.59    1.68 
   0   7   1    5.67    0.99 
 -13   8   1   22.09    2.48 
 -12   8   1    1.39    1.36 
 -11   8   1   -0.86    0.99 
 -10   8   1    1.70    1.31 
  -9   8   1   16.17    2.12 
  -8   8   1    7.83    1.66 
  -7   8   1   14.34    1.39 
  -6   8   1    7.79    1.30 
  -5   8   1   26.51    1.76 
  -4   8   1   98.43    3.16 
  -3   8   1    0.89    0.81 
  -2   8   1   30.68    1.88 
  -1   8   1  156.77    4.08 
   0   8   1   16.12    1.51 
   1   8   1   22.23    1.73 
 -12   9   1    3.77    1.54 
 -11   9   1    7.54    1.61 
 -10   9   1    2.30    1.39 
  -9   9   1    4.60    1.61 
  -7   9   1    1.72    0.88 
  -6   9   1   34.26    2.37 
  -5   9   1   38.06    2.25 
  -4   9   1   33.68    2.10 
  -3   9   1   36.40    2.25 
  -2   9   1   67.40    2.97 
  -1   9   1    0.17    0.79 
   0   9   1   11.52    1.41 
   1   9   1    0.27    0.91 
   2   9   1   52.76    2.72 
 -11  10   1    2.96    1.60 
 -10  10   1    0.45    1.55 
  -9  10   1   12.95    2.35 
  -7  10   1   -0.04    0.85 
  -6  10   1    1.46    1.26 
  -5  10   1    8.07    1.37 
  -4  10   1   -0.12    0.87 
  -3  10   1   -0.26    0.81 
  -2  10   1    0.23    0.97 
  -1  10   1   17.50    1.80 
   0  10   1    2.36    1.00 
   1  10   1   -0.46    0.84 
   2  10   1    2.85    1.10 
   3  10   1   18.94    1.91 
  -9  11   1    0.79    1.69 
  -6  11   1   16.38    2.06 
  -5  11   1   10.32    1.59 
  -4  11   1    2.08    1.11 
  -3  11   1    9.10    1.51 
  -2  11   1   14.03    1.94 
  -1  11   1   -0.18    0.97 
   0  11   1    0.31    0.95 
   1  11   1   22.63    2.10 
   2  11   1   -0.63    0.93 
   3  11   1    0.01    1.15 
   4  11   1    1.85    1.26 
   5  11   1    0.94    1.14 
   6  11   1    8.30    1.69 
  -6  12   1    0.46    1.51 
  -5  12   1    0.03    1.10 
  -4  12   1   11.71    1.83 
  -3  12   1    5.22    1.44 
  -2  12   1    3.64    1.27 
  -1  12   1    1.57    1.26 
   0  12   1    3.56    1.39 
   1  12   1    0.94    1.06 
   2  12   1    3.34    1.28 
   3  12   1    1.05    1.25 
   4  12   1    6.75    1.66 
   5  12   1    0.77    1.35 
   6  12   1    3.76    1.70 
  -4  13   1    2.15    1.49 
  -3  13   1   -0.70    1.13 
  -2  13   1    1.04    1.29 
  -1  13   1   -0.25    1.26 
   0  13   1    5.13    1.67 
  -6 -12   2   -0.01    1.01 
  -5 -12   2    8.15    1.75 
  -4 -12   2    1.06    1.26 
  -3 -12   2    0.70    1.14 
 -10 -11   2    0.39    1.22 
  -9 -11   2    2.91    1.38 
  -8 -11   2    4.30    1.10 
  -7 -11   2    2.19    0.93 
  -6 -11   2    7.07    1.51 
  -5 -11   2   -0.08    0.86 
  -4 -11   2    5.28    1.33 
  -3 -11   2   10.28    1.65 
  -2 -11   2    1.39    1.06 
  -1 -11   2    0.47    1.00 
 -12 -10   2    1.64    1.28 
 -11 -10   2    1.87    1.17 
 -10 -10   2    8.96    1.25 
  -9 -10   2    0.60    0.77 
  -8 -10   2    4.90    1.01 
  -7 -10   2    5.48    1.04 
  -6 -10   2    1.15    0.75 
  -5 -10   2    7.79    1.50 
  -4 -10   2    5.43    1.35 
  -3 -10   2   18.46    1.91 
  -2 -10   2   19.97    1.96 
  -1 -10   2    0.07    0.88 
   0 -10   2    4.87    1.26 
 -12  -9   2   -0.03    0.82 
 -11  -9   2   -0.18    0.72 
 -10  -9   2   -0.06    0.69 
  -9  -9   2   -0.24    0.68 
  -8  -9   2    0.44    0.69 
  -7  -9   2   16.83    1.33 
  -6  -9   2    9.54    1.12 
  -5  -9   2    0.83    0.65 
  -4  -9   2    2.25    0.96 
  -3  -9   2   53.46    2.97 
  -2  -9   2    3.92    1.07 
  -1  -9   2    2.55    0.93 
   0  -9   2   10.66    1.44 
   1  -9   2   41.66    2.64 
 -14  -8   2    6.24    1.59 
 -13  -8   2    1.67    1.23 
 -12  -8   2    0.49    0.73 
 -11  -8   2    1.04    0.77 
 -10  -8   2   20.67    1.41 
  -9  -8   2    0.19    0.62 
  -8  -8   2   -0.06    0.59 
  -7  -8   2    1.52    0.67 
  -6  -8   2    0.59    0.57 
  -5  -8   2   43.94    1.83 
  -4  -8   2    7.92    0.92 
  -3  -8   2    1.98    0.84 
  -2  -8   2    6.78    1.15 
  -1  -8   2    5.09    1.09 
   0  -8   2   15.26    1.50 
   1  -8   2    1.85    0.84 
 -15  -7   2    1.63    1.20 
 -14  -7   2    0.44    1.00 
 -13  -7   2    1.15    1.05 
 -12  -7   2   20.41    1.40 
 -11  -7   2    0.36    0.61 
 -10  -7   2    8.83    0.97 
  -9  -7   2    5.66    0.84 
  -8  -7   2   60.60    2.04 
  -7  -7   2   12.69    1.01 
  -6  -7   2    4.51    0.73 
  -5  -7   2    6.85    0.80 
  -4  -7   2    0.15    0.50 
  -3  -7   2    2.76    0.61 
  -2  -7   2    9.37    1.19 
  -1  -7   2    4.83    0.91 
   0  -7   2  103.23    3.47 
   1  -7   2   11.89    1.24 
   2  -7   2   20.37    1.60 
 -16  -6   2    0.26    1.07 
 -15  -6   2    1.87    1.07 
 -14  -6   2    8.81    1.41 
 -13  -6   2    0.82    0.90 
 -12  -6   2    0.04    0.69 
 -11  -6   2    2.86    0.65 
 -10  -6   2    3.25    0.65 
  -9  -6   2   24.92    1.29 
  -8  -6   2   26.45    1.31 
  -7  -6   2   16.94    1.06 
  -6  -6   2    6.15    0.71 
  -5  -6   2   26.10    1.21 
  -4  -6   2    6.00    0.66 
  -3  -6   2    9.50    0.79 
  -2  -6   2    6.70    0.94 
  -1  -6   2   42.28    2.07 
   0  -6   2   17.33    1.34 
   1  -6   2   -0.64    0.49 
   2  -6   2   13.75    1.22 
 -16  -5   2    0.77    0.99 
 -15  -5   2   -0.01    0.93 
 -14  -5   2    5.56    1.20 
 -13  -5   2   -0.34    0.69 
 -12  -5   2   15.57    1.46 
 -11  -5   2    6.67    0.75 
 -10  -5   2   14.36    0.95 
  -9  -5   2    2.17    0.52 
  -8  -5   2    9.74    0.77 
  -7  -5   2   -0.04    0.32 
  -6  -5   2    1.03    0.39 
  -5  -5   2    0.84    0.37 
  -4  -5   2   52.95    1.48 
  -3  -5   2    3.45    0.49 
  -2  -5   2    4.31    0.55 
  -1  -5   2   33.04    1.67 
   0  -5   2   28.84    1.55 
   1  -5   2   58.92    2.12 
   2  -5   2   51.30    1.95 
 -17  -4   2   -0.48    1.09 
 -16  -4   2   -0.40    0.96 
 -15  -4   2    0.54    0.84 
 -14  -4   2    4.55    1.01 
 -13  -4   2    2.30    0.78 
 -12  -4   2   26.61    1.75 
 -11  -4   2   18.35    1.07 
 -10  -4   2    7.07    0.68 
  -9  -4   2    3.61    0.51 
  -8  -4   2   13.20    0.79 
  -7  -4   2   32.16    1.11 
  -6  -4   2   14.99    0.78 
  -5  -4   2  100.88    1.89 
  -4  -4   2    0.11    0.30 
  -3  -4   2  160.40    3.07 
  -2  -4   2   59.54    1.36 
  -1  -4   2    7.61    0.84 
   0  -4   2   76.12    2.23 
   1  -4   2   38.97    1.57 
   2  -4   2  101.82    2.39 
 -17  -3   2   -0.28    0.99 
 -16  -3   2   -0.34    1.03 
 -15  -3   2    0.71    0.88 
 -14  -3   2    1.70    0.91 
 -13  -3   2    0.46    0.80 
 -12  -3   2    4.29    0.96 
 -11  -3   2    9.21    0.78 
 -10  -3   2   -0.45    0.39 
  -9  -3   2   17.26    0.89 
  -8  -3   2   58.49    1.44 
  -7  -3   2    1.15    0.33 
  -6  -3   2  487.62    8.19 
  -5  -3   2  146.25    2.23 
  -4  -3   2    6.19    0.44 
  -3  -3   2   11.20    0.56 
  -2  -3   2    0.43    0.25 
  -1  -3   2  133.26    2.55 
   0  -3   2 2243.76   15.55 
   1  -3   2  128.79    2.40 
   2  -3   2    0.09    0.25 
 -17  -2   2    0.19    1.02 
 -16  -2   2    0.71    0.93 
 -15  -2   2    2.09    0.92 
 -14  -2   2    3.10    0.85 
 -13  -2   2    7.58    1.07 
 -12  -2   2    0.90    0.68 
 -11  -2   2   15.02    1.23 
 -10  -2   2    0.16    0.37 
  -9  -2   2    8.01    0.59 
  -8  -2   2    1.75    0.37 
  -7  -2   2   15.99    0.70 
  -6  -2   2   52.41    1.15 
  -5  -2   2   79.45    1.41 
  -4  -2   2   93.59    1.33 
  -3  -2   2  327.07    3.87 
  -2  -2   2   32.35    4.06 
  -1  -2   2  750.34   22.89 
   0  -2   2 1154.03    8.73 
   2  -2   2  398.44    3.87 
 -17  -1   2    1.61    1.02 
 -16  -1   2    5.03    1.10 
 -15  -1   2    1.99    0.90 
 -14  -1   2    0.86    0.75 
 -13  -1   2   -0.08    0.62 
 -12  -1   2   33.42    1.77 
 -11  -1   2   75.61    2.51 
 -10  -1   2    1.28    0.44 
  -9  -1   2   58.41    1.42 
  -8  -1   2   40.08    1.09 
  -7  -1   2   17.77    0.69 
  -6  -1   2   36.66    0.93 
  -5  -1   2    0.98    0.29 
  -4  -1   2   83.95    1.20 
  -3  -1   2    6.30    1.51 
  -2  -1   2  251.77    4.02 
  -1  -1   2  681.61    5.36 
   0  -1   2  136.25    1.68 
   1  -1   2  608.53    5.17 
 -17   0   2    0.53    0.99 
 -16   0   2    0.46    0.84 
 -15   0   2    0.32    0.83 
 -14   0   2   22.75    1.78 
 -13   0   2   -0.16    0.65 
 -12   0   2   13.10    1.24 
 -11   0   2    0.09    0.68 
 -10   0   2   35.72    1.23 
  -9   0   2   -0.54    0.34 
  -8   0   2    8.99    0.57 
  -7   0   2   -0.22    0.29 
  -6   0   2  295.22    2.67 
  -5   0   2   -0.24    0.25 
  -4   0   2   62.01    0.95 
  -3   0   2   -0.04    0.21 
  -2   0   2   70.57    4.21 
  -1   0   2    0.17    0.13 
 -17   1   2    2.77    1.14 
 -16   1   2    6.95    1.31 
 -15   1   2    2.63    0.92 
 -14   1   2    0.39    0.78 
 -13   1   2    0.07    0.75 
 -12   1   2   37.38    2.03 
 -11   1   2   83.41    2.78 
 -10   1   2    1.50    0.48 
  -9   1   2   54.77    1.31 
  -8   1   2   39.52    1.05 
  -7   1   2   18.24    0.71 
  -6   1   2   36.59    0.91 
  -5   1   2    0.93    0.34 
  -4   1   2   70.54    2.12 
  -3   1   2    8.77    0.44 
  -2   1   2  212.09    2.26 
  -1   1   2  637.28    4.79 
   0   1   2  144.00    1.59 
 -17   2   2    0.50    0.96 
 -16   2   2    0.90    0.94 
 -15   2   2    2.48    0.99 
 -14   2   2    2.70    0.97 
 -13   2   2    8.26    1.27 
 -12   2   2    1.21    0.95 
 -11   2   2   18.70    1.49 
 -10   2   2   -0.17    0.71 
  -9   2   2    9.02    0.64 
  -8   2   2    2.46    0.47 
  -7   2   2   16.63    0.74 
  -6   2   2   52.96    1.23 
  -5   2   2   75.69    1.36 
  -4   2   2   93.54    1.71 
  -3   2   2  345.82    3.50 
  -2   2   2   43.56    1.04 
  -1   2   2  778.93    5.95 
   0   2   2 1008.78    7.28 
   1   2   2  227.27    2.66 
 -17   3   2    0.09    1.14 
 -16   3   2    0.32    1.03 
 -15   3   2    0.32    0.89 
 -14   3   2    1.73    1.07 
 -13   3   2    0.57    0.82 
 -12   3   2    4.43    1.05 
 -11   3   2    8.95    1.26 
 -10   3   2    0.40    0.81 
  -9   3   2   17.08    0.83 
  -8   3   2   62.31    1.43 
  -7   3   2    0.88    0.41 
  -6   3   2  506.67    4.08 
  -5   3   2  187.24    3.11 
  -4   3   2    7.05    0.60 
  -3   3   2   10.79    0.63 
  -2   3   2    1.03    0.32 
  -1   3   2  148.07    2.40 
   0   3   2 1996.17   13.22 
 -16   4   2    0.29    1.17 
 -15   4   2    1.13    1.16 
 -14   4   2    5.81    1.25 
 -13   4   2    3.23    1.16 
 -12   4   2   33.05    2.20 
 -11   4   2   20.82    1.89 
 -10   4   2    8.98    1.38 
  -9   4   2    4.44    0.60 
  -8   4   2   14.16    0.83 
  -7   4   2   37.28    1.17 
  -6   4   2   13.31    0.86 
  -5   4   2  114.63    2.50 
  -4   4   2    0.58    0.40 
  -3   4   2  163.32    2.80 
  -2   4   2   56.58    1.61 
  -1   4   2    7.00    0.67 
   0   4   2   68.62    1.86 
 -16   5   2    1.54    1.59 
 -15   5   2    0.74    1.06 
 -14   5   2    7.62    1.52 
 -13   5   2    0.17    1.00 
 -12   5   2   20.46    1.99 
 -11   5   2    9.48    1.50 
 -10   5   2   17.00    1.73 
  -9   5   2    2.40    0.59 
  -8   5   2   12.36    0.84 
  -7   5   2    0.28    0.43 
  -6   5   2    1.78    0.57 
  -5   5   2    1.48    0.48 
  -4   5   2   49.00    1.68 
  -3   5   2    3.58    0.57 
  -2   5   2    1.69    0.55 
  -1   5   2   30.55    1.39 
   0   5   2   29.38    1.41 
   1   5   2   62.51    2.03 
 -15   6   2    1.94    1.44 
 -14   6   2   11.00    1.75 
 -13   6   2    1.74    1.37 
 -12   6   2   -0.77    1.07 
 -11   6   2    3.94    1.28 
 -10   6   2    3.16    1.11 
  -9   6   2   27.93    2.24 
  -8   6   2   30.52    1.33 
  -7   6   2   19.27    1.30 
  -6   6   2    7.68    0.98 
  -5   6   2   32.45    1.66 
  -4   6   2    5.12    0.75 
  -3   6   2    9.34    0.91 
  -2   6   2    8.34    0.93 
  -1   6   2   44.26    1.80 
   0   6   2   18.89    1.30 
   1   6   2   -0.47    0.61 
 -14   7   2    2.13    1.50 
 -13   7   2    0.30    1.32 
 -12   7   2   23.08    2.46 
 -11   7   2   -0.16    1.09 
 -10   7   2    9.78    1.65 
  -9   7   2    4.78    1.36 
  -8   7   2   74.05    2.65 
  -7   7   2   14.80    1.36 
  -6   7   2    5.00    0.85 
  -5   7   2    7.49    0.96 
  -4   7   2   -0.35    0.56 
  -3   7   2    3.48    0.78 
  -2   7   2    9.81    1.14 
  -1   7   2    6.55    0.95 
   0   7   2  106.00    3.10 
   1   7   2   12.78    1.31 
 -13   8   2    1.04    1.64 
 -12   8   2    0.48    1.34 
 -11   8   2    0.26    1.10 
 -10   8   2   24.99    2.42 
  -9   8   2   -0.35    1.17 
  -8   8   2   -0.39    0.79 
  -7   8   2    0.57    0.89 
  -6   8   2    0.86    0.71 
  -5   8   2   44.30    2.16 
  -4   8   2    9.05    1.16 
  -3   8   2    2.01    0.78 
  -2   8   2   10.25    1.31 
  -1   8   2    3.88    0.93 
   0   8   2   19.17    1.55 
   1   8   2    1.75    0.93 
   2   8   2  129.28    3.88 
 -12   9   2    0.85    1.32 
 -11   9   2    0.35    1.31 
 -10   9   2    0.30    1.24 
  -9   9   2    0.89    1.33 
  -8   9   2   -0.51    0.90 
  -7   9   2   25.33    2.07 
  -6   9   2   11.15    1.35 
  -5   9   2    0.86    0.84 
  -4   9   2    2.09    0.92 
  -3   9   2   62.16    2.79 
  -2   9   2    4.89    1.16 
  -1   9   2    2.93    0.99 
   0   9   2   13.01    1.47 
   1   9   2   44.67    2.48 
   2   9   2   10.70    1.45 
   3   9   2    9.90    1.41 
   4   9   2   20.45    1.87 
 -11  10   2    2.29    1.73 
 -10  10   2   13.29    2.21 
  -9  10   2    1.72    1.66 
  -7  10   2    7.48    1.43 
  -6  10   2    1.30    0.99 
  -5  10   2   10.36    1.49 
  -4  10   2    7.30    1.34 
  -3  10   2   24.45    1.97 
  -2  10   2   23.61    1.98 
  -1  10   2    0.38    0.91 
   0  10   2    5.25    1.18 
   1  10   2    2.88    1.05 
   2  10   2    0.39    0.91 
   3  10   2    0.82    1.01 
   4  10   2    4.67    1.38 
   5  10   2    1.48    1.18 
   6  10   2    1.47    1.17 
  -9  11   2    3.11    1.86 
  -7  11   2    2.85    1.32 
  -6  11   2    9.44    1.58 
  -5  11   2   -1.20    0.87 
  -4  11   2    9.04    1.56 
  -3  11   2   13.58    1.70 
  -2  11   2    0.26    1.00 
  -1  11   2    0.07    1.06 
   0  11   2   46.22    2.91 
   1  11   2    2.45    1.12 
   2  11   2   -0.02    1.03 
   3  11   2   -0.11    1.03 
   4  11   2    1.18    1.18 
   5  11   2    0.91    1.14 
   6  11   2    2.84    1.41 
   7  11   2    3.23    1.50 
   8  11   2    3.10    1.58 
   9  11   2   -0.02    1.46 
  -6  12   2    0.41    1.05 
  -5  12   2    9.91    1.83 
  -4  12   2    1.24    1.20 
  -3  12   2    0.91    1.25 
  -2  12   2    0.42    1.06 
  -1  12   2    7.76    1.52 
   0  12   2    7.11    1.68 
   1  12   2    1.22    1.16 
   2  12   2    0.15    1.03 
   3  12   2    2.79    1.43 
   4  12   2    1.54    1.29 
   5  12   2    2.33    1.44 
   6  12   2    1.40    1.54 
  -4  13   2    4.92    1.57 
  -3  13   2   -0.17    1.28 
  -2  13   2    0.97    1.24 
  -6 -12   3    4.81    1.47 
  -5 -12   3    0.50    1.00 
  -4 -12   3    7.33    1.64 
  -3 -12   3   -0.08    1.14 
  -2 -12   3   17.88    2.26 
  -9 -11   3    1.73    1.14 
  -8 -11   3   -0.09    0.97 
  -7 -11   3    0.00    1.05 
  -6 -11   3    2.31    1.17 
  -5 -11   3    8.32    1.61 
  -4 -11   3    5.45    1.40 
  -3 -11   3   -0.08    0.91 
  -2 -11   3    3.82    1.23 
  -1 -11   3   23.19    2.41 
   0 -11   3    2.30    1.18 
 -12 -10   3   -0.36    1.17 
 -11 -10   3    1.02    1.11 
 -10 -10   3    2.32    1.22 
  -9 -10   3    0.18    0.99 
  -8 -10   3    0.67    0.81 
  -7 -10   3    0.90    0.77 
  -6 -10   3    0.82    0.85 
  -5 -10   3    0.26    0.89 
  -4 -10   3   -0.50    0.79 
  -3 -10   3   40.98    2.85 
  -2 -10   3    7.14    1.38 
  -1 -10   3   10.66    1.55 
   0 -10   3    3.55    1.15 
   1 -10   3   12.29    1.68 
 -12  -9   3    0.58    1.09 
 -11  -9   3    1.62    1.10 
 -10  -9   3    0.36    0.71 
  -9  -9   3    1.47    0.75 
  -8  -9   3    4.52    0.88 
  -7  -9   3   -0.16    0.63 
  -6  -9   3   -0.05    0.59 
  -5  -9   3    0.52    0.66 
  -4  -9   3   21.86    1.95 
  -3  -9   3    4.19    1.09 
  -2  -9   3    3.81    1.02 
  -1  -9   3    0.71    0.84 
   0  -9   3   46.18    2.63 
   1  -9   3   10.32    1.51 
 -12  -8   3    0.17    0.76 
 -11  -8   3   18.13    1.37 
 -10  -8   3    3.54    0.84 
  -9  -8   3   20.51    1.38 
  -8  -8   3    0.43    0.63 
  -7  -8   3   27.49    1.54 
  -6  -8   3    0.89    0.62 
  -5  -8   3   -0.61    0.52 
  -4  -8   3   28.12    2.07 
  -3  -8   3    3.80    0.98 
  -2  -8   3   44.88    2.53 
  -1  -8   3   16.70    1.59 
   0  -8   3   24.80    1.94 
   1  -8   3  125.24    3.95 
   2  -8   3   -0.53    0.64 
 -13  -7   3   27.02    2.23 
 -12  -7   3    0.92    0.67 
 -11  -7   3    4.49    0.82 
 -10  -7   3    1.86    0.67 
  -9  -7   3   37.61    1.71 
  -8  -7   3    6.42    0.86 
  -7  -7   3    0.24    0.53 
  -6  -7   3    9.05    0.92 
  -5  -7   3   36.67    1.52 
  -4  -7   3    5.85    0.79 
  -3  -7   3    5.76    1.04 
  -2  -7   3   15.31    1.43 
  -1  -7   3   24.40    1.77 
   0  -7   3    0.02    0.60 
   1  -7   3   41.11    2.21 
   2  -7   3    0.76    0.63 
 -15  -6   3    0.77    1.05 
 -14  -6   3    0.28    0.88 
 -13  -6   3    3.60    1.04 
 -12  -6   3   -0.03    0.52 
 -11  -6   3    3.54    0.68 
 -10  -6   3    0.07    0.46 
  -9  -6   3    0.24    0.49 
  -8  -6   3   11.23    0.88 
  -7  -6   3    8.47    0.80 
  -6  -6   3   98.61    2.30 
  -5  -6   3   10.04    0.81 
  -4  -6   3   50.20    1.60 
  -3  -6   3    0.25    0.44 
  -2  -6   3    6.70    0.97 
  -1  -6   3   92.77    3.00 
   0  -6   3   33.81    1.84 
   1  -6   3   42.93    2.00 
   2  -6   3   10.44    1.06 
   3  -6   3   13.89    1.22 
 -16  -5   3    0.37    0.96 
 -15  -5   3    5.22    1.26 
 -14  -5   3    1.26    0.85 
 -13  -5   3    0.60    0.77 
 -12  -5   3    2.46    0.63 
 -11  -5   3    0.17    0.48 
 -10  -5   3    1.32    0.52 
  -9  -5   3    6.09    0.66 
  -8  -5   3   17.77    0.96 
  -7  -5   3    3.99    0.54 
  -6  -5   3   63.23    1.68 
  -5  -5   3    1.62    0.42 
  -4  -5   3   35.33    1.59 
  -3  -5   3   99.47    2.05 
  -2  -5   3    1.34    0.61 
  -1  -5   3  106.16    2.99 
   0  -5   3   22.55    1.41 
   1  -5   3  188.99    3.91 
   2  -5   3  571.84    7.04 
   3  -5   3    0.44    0.44 
 -17  -4   3    1.39    1.16 
 -16  -4   3    1.34    1.07 
 -15  -4   3   -0.11    0.77 
 -14  -4   3    0.13    0.70 
 -13  -4   3    4.86    0.93 
 -12  -4   3    0.07    0.49 
 -11  -4   3   26.38    1.24 
 -10  -4   3   37.29    1.39 
  -9  -4   3    2.62    0.50 
  -8  -4   3   10.01    0.69 
  -7  -4   3    0.73    0.34 
  -6  -4   3   28.52    1.00 
  -5  -4   3    3.96    0.48 
  -4  -4   3   59.86    2.63 
  -3  -4   3  100.68    2.72 
  -2  -4   3  137.67    3.03 
  -1  -4   3  757.19    7.76 
   0  -4   3   34.78    1.53 
   1  -4   3   86.58    2.30 
   2  -4   3    1.41    0.47 
   3  -4   3   25.09    1.19 
 -17  -3   3    0.79    1.15 
 -16  -3   3    1.31    1.04 
 -15  -3   3    0.24    0.86 
 -14  -3   3    1.25    0.86 
 -13  -3   3   14.43    1.45 
 -12  -3   3    0.26    0.71 
 -11  -3   3    1.38    0.51 
 -10  -3   3    4.28    0.57 
  -9  -3   3    2.87    0.49 
  -8  -3   3    7.01    0.57 
  -7  -3   3  122.17    1.93 
  -6  -3   3    3.81    0.44 
  -5  -3   3  165.96    6.88 
  -4  -3   3    4.29    0.86 
  -3  -3   3   26.71    0.80 
  -2  -3   3  310.34    3.61 
  -1  -3   3  423.02    4.93 
   0  -3   3 1559.20   11.60 
   1  -3   3    0.16    0.42 
   2  -3   3  501.75    5.15 
   3  -3   3    3.00    0.49 
 -17  -2   3    0.70    0.97 
 -16  -2   3    1.21    0.89 
 -15  -2   3    0.49    0.76 
 -14  -2   3    2.90    0.84 
 -13  -2   3    0.73    0.67 
 -12  -2   3    2.94    0.84 
 -11  -2   3   -0.53    0.42 
 -10  -2   3   18.36    0.89 
  -9  -2   3   14.80    0.76 
  -8  -2   3   37.41    1.06 
  -7  -2   3   28.93    0.99 
  -6  -2   3   36.69    0.94 
  -5  -2   3  241.75   18.33 
  -4  -2   3   16.29    0.79 
  -3  -2   3    2.84    0.30 
  -2  -2   3  883.55    4.95 
  -1  -2   3  263.48    3.23 
   0  -2   3  186.49    2.57 
   1  -2   3    2.09    0.35 
   2  -2   3   35.72    0.99 
   3  -2   3   92.72    1.50 
 -17  -1   3    3.80    1.17 
 -16  -1   3    7.68    1.24 
 -15  -1   3    2.47    0.95 
 -14  -1   3    2.68    0.85 
 -13  -1   3    5.47    0.97 
 -12  -1   3   68.75    2.54 
 -11  -1   3   39.86    1.36 
 -10  -1   3    0.04    0.40 
  -9  -1   3   54.17    1.34 
  -8  -1   3  235.29    6.54 
  -7  -1   3   -0.02    0.30 
  -6  -1   3   55.44    1.10 
  -5  -1   3   27.59    0.72 
  -4  -1   3   90.07    6.43 
  -3  -1   3    7.38    0.33 
  -2  -1   3   58.75    0.88 
  -1  -1   3 1163.93    8.31 
   0  -1   3  258.50    2.82 
   1  -1   3   85.19    1.28 
   2  -1   3    2.92    0.29 
 -17   0   3    1.40    1.02 
 -16   0   3    0.35    0.87 
 -15   0   3    0.55    0.85 
 -14   0   3   -0.36    0.67 
 -13   0   3    9.36    1.15 
 -12   0   3   -0.70    0.62 
 -11   0   3  252.00    3.31 
 -10   0   3    0.06    0.41 
  -9   0   3   25.26    0.95 
  -8   0   3   -0.25    0.30 
  -7   0   3    3.81    0.45 
  -6   0   3   -0.30    0.26 
  -5   0   3  351.43    3.84 
  -4   0   3   -0.01    0.22 
  -3   0   3   78.46    1.10 
  -2   0   3    0.27    0.20 
  -1   0   3   97.44    1.46 
   0   0   3    0.09    0.13 
   1   0   3  288.82    2.64 
 -17   1   3    5.07    1.34 
 -16   1   3    8.96    1.39 
 -15   1   3    2.42    0.92 
 -14   1   3    3.09    0.97 
 -13   1   3    5.65    1.02 
 -12   1   3   71.47    2.71 
 -11   1   3   39.21    1.98 
 -10   1   3    0.61    0.49 
  -9   1   3   52.97    1.31 
  -8   1   3  230.67    2.67 
  -7   1   3    1.87    0.52 
  -6   1   3   57.74    1.18 
  -5   1   3   32.68    0.85 
  -4   1   3  116.10    1.46 
  -3   1   3    7.42    0.57 
  -1   1   3 1236.56    8.48 
   0   1   3  477.38    3.95 
   2   1   3    2.35    0.28 
   3   1   3  104.05    1.40 
 -17   2   3    0.35    0.99 
 -16   2   3    1.45    1.04 
 -15   2   3    0.93    0.95 
 -14   2   3    2.92    0.98 
 -13   2   3    1.08    0.80 
 -12   2   3    4.06    1.11 
 -11   2   3   -0.12    0.69 
 -10   2   3   19.98    0.94 
  -9   2   3   15.69    0.82 
  -8   2   3   42.65    1.19 
  -7   2   3   30.85    0.98 
  -6   2   3   37.72    0.99 
  -5   2   3  350.57    4.34 
  -4   2   3   23.48    0.92 
  -3   2   3    2.57    0.46 
  -2   2   3  930.27    7.16 
  -1   2   3  222.46    2.53 
   0   2   3  169.01    2.19 
   1   2   3    1.13    0.33 
   2   2   3   14.82    0.65 
 -17   3   3    1.05    1.15 
 -16   3   3    1.31    1.05 
 -15   3   3   -0.07    0.94 
 -14   3   3    1.26    1.12 
 -13   3   3   15.13    1.53 
 -12   3   3    0.26    0.92 
 -11   3   3    1.22    0.84 
 -10   3   3    5.66    0.67 
  -9   3   3    2.11    0.51 
  -8   3   3    7.01    0.62 
  -7   3   3  139.38    2.18 
  -6   3   3    3.83    0.52 
  -5   3   3  208.97    3.14 
  -4   3   3    6.80    0.60 
  -3   3   3   29.96    1.15 
  -2   3   3  333.87    3.98 
  -1   3   3  392.36    4.12 
   0   3   3 1596.05   11.29 
   1   3   3    0.55    0.38 
   2   3   3  485.30    4.98 
 -16   4   3    0.80    1.19 
 -15   4   3    0.34    1.05 
 -14   4   3    0.48    0.90 
 -13   4   3    6.08    1.31 
 -12   4   3    0.48    0.89 
 -11   4   3   32.69    2.22 
 -10   4   3   40.27    2.45 
  -9   4   3    2.55    0.57 
  -8   4   3   12.26    0.80 
  -7   4   3    0.89    0.43 
  -6   4   3   38.65    1.65 
  -5   4   3    3.81    0.56 
  -4   4   3   77.87    2.11 
  -3   4   3  119.27    2.62 
  -2   4   3  147.11    2.71 
  -1   4   3  732.13    6.81 
   0   4   3   30.23    1.25 
   1   4   3   83.65    2.06 
   2   4   3    1.95    0.61 
 -16   5   3    0.46    1.31 
 -15   5   3    5.59    1.41 
 -14   5   3    1.22    1.21 
 -13   5   3   -0.09    1.05 
 -12   5   3    1.16    1.13 
 -11   5   3   -0.27    1.09 
 -10   5   3    1.16    0.97 
  -9   5   3    7.54    0.80 
  -8   5   3   20.12    1.04 
  -7   5   3    4.70    0.81 
  -6   5   3   66.48    2.07 
  -5   5   3    1.91    0.58 
  -4   5   3   31.63    1.42 
  -3   5   3  106.00    2.57 
  -2   5   3    1.57    0.50 
  -1   5   3  110.46    2.72 
   0   5   3   21.40    1.22 
   1   5   3  190.38    3.57 
   2   5   3  590.12    6.82 
 -15   6   3    1.90    1.44 
 -14   6   3    1.15    1.33 
 -13   6   3    5.31    1.56 
 -12   6   3    0.52    1.27 
 -11   6   3    3.57    1.23 
 -10   6   3    0.48    1.04 
  -9   6   3   -0.26    0.58 
  -8   6   3   13.60    1.06 
  -7   6   3    9.65    1.00 
  -6   6   3  111.81    3.03 
  -5   6   3    9.98    0.94 
  -4   6   3   49.78    1.93 
  -3   6   3    0.36    0.47 
  -2   6   3    6.80    0.81 
  -1   6   3  113.06    3.06 
   0   6   3   32.68    1.64 
   1   6   3   48.63    2.03 
   2   6   3   11.60    1.15 
 -14   7   3    0.55    1.39 
 -13   7   3   34.39    2.92 
 -12   7   3    0.23    1.25 
 -11   7   3    4.16    1.28 
 -10   7   3    1.89    1.30 
  -9   7   3   43.47    1.75 
  -8   7   3    6.54    0.99 
  -7   7   3    0.02    0.70 
  -6   7   3   11.74    1.26 
  -5   7   3   41.70    1.97 
  -4   7   3    7.37    0.97 
  -3   7   3    5.19    0.87 
  -2   7   3   17.58    1.35 
  -1   7   3   30.96    1.84 
   0   7   3    0.30    0.66 
   1   7   3   43.01    2.04 
   2   7   3    0.13    0.73 
   3   7   3   33.62    1.96 
 -13   8   3   -0.70    1.40 
 -12   8   3   -0.18    1.19 
 -11   8   3   20.69    2.42 
 -10   8   3    4.01    1.49 
  -8   8   3    0.40    0.78 
  -7   8   3   33.52    2.08 
  -6   8   3    1.57    0.76 
  -5   8   3    0.22    0.86 
  -4   8   3   34.68    2.00 
  -3   8   3    2.46    0.83 
  -2   8   3   50.09    2.34 
  -1   8   3   20.76    1.69 
   0   8   3   28.52    1.87 
   1   8   3  145.85    3.98 
   2   8   3   -0.02    0.77 
   3   8   3    1.16    0.88 
   4   8   3    0.78    0.84 
 -12   9   3   -1.06    1.25 
 -11   9   3   -0.16    1.48 
 -10   9   3    0.13    1.40 
  -8   9   3    6.41    1.30 
  -7   9   3   -0.15    0.89 
  -6   9   3   -0.36    0.69 
  -5   9   3    0.60    0.94 
  -4   9   3   28.71    1.99 
  -3   9   3    5.50    1.08 
  -2   9   3    4.38    1.05 
  -1   9   3    1.66    0.94 
   0   9   3   56.70    2.75 
   1   9   3   10.85    1.39 
   2   9   3    4.73    1.13 
   3   9   3   -0.29    0.86 
   4   9   3   17.23    1.74 
   5   9   3    9.24    1.44 
   6   9   3    0.03    0.93 
   7   9   3    0.31    1.05 
 -11  10   3    0.98    1.58 
 -10  10   3    3.90    1.67 
  -8  10   3    0.45    1.07 
  -7  10   3    1.56    1.19 
  -6  10   3    1.05    0.96 
  -5  10   3    0.74    1.06 
  -4  10   3    0.24    0.90 
  -3  10   3   48.48    2.67 
  -2  10   3   11.41    1.49 
  -1  10   3   15.15    1.74 
   0  10   3    4.58    1.32 
   1  10   3   14.74    1.70 
   2  10   3   -0.51    0.87 
   3  10   3   -0.37    0.84 
   4  10   3    2.10    1.12 
   5  10   3   11.69    1.71 
   6  10   3    6.46    1.44 
   7  10   3    0.34    1.28 
   8  10   3    0.30    1.21 
   9  10   3    1.70    1.47 
  -7  11   3   -0.29    1.13 
  -5  11   3   14.72    1.95 
  -4  11   3    6.82    1.40 
  -3  11   3    0.16    0.97 
  -2  11   3    6.58    1.37 
  -1  11   3   28.29    2.29 
   0  11   3    2.76    1.23 
   1  11   3    1.54    1.11 
   2  11   3    0.70    1.10 
   3  11   3    7.35    1.45 
   4  11   3   -0.09    1.03 
   5  11   3    0.09    1.06 
   6  11   3    0.46    1.25 
   7  11   3    0.52    1.38 
   8  11   3    4.03    1.74 
   9  11   3    0.21    1.51 
  -7  12   3    0.15    1.35 
  -6  12   3    5.78    1.44 
  -5  12   3    3.06    1.63 
  -4  12   3    8.07    1.63 
  -3  12   3    0.23    1.20 
  -2  12   3   27.29    2.49 
  -1  12   3    3.60    1.38 
   0  12   3    2.42    1.18 
   1  12   3    2.84    1.32 
   2  12   3    1.60    1.40 
   3  12   3    2.11    1.36 
   4  12   3    0.02    1.31 
   5  12   3    0.13    1.33 
   6  12   3   11.54    2.05 
  -6 -12   4    3.63    1.41 
  -5 -12   4    0.11    1.13 
  -4 -12   4    0.94    1.16 
  -3 -12   4   17.05    2.11 
  -2 -12   4    2.66    1.37 
  -1 -12   4    0.52    1.24 
  -9 -11   4    0.87    1.03 
  -8 -11   4    0.81    0.96 
  -7 -11   4    3.17    1.22 
  -6 -11   4    4.61    1.35 
  -5 -11   4   11.96    1.86 
  -4 -11   4    0.38    1.06 
  -3 -11   4    1.64    1.13 
  -2 -11   4   10.21    1.63 
  -1 -11   4    2.30    1.09 
   0 -11   4    0.56    1.08 
 -12 -10   4    2.36    1.23 
 -11 -10   4    1.45    1.10 
 -10 -10   4    2.82    1.17 
  -9 -10   4    2.29    1.09 
  -8 -10   4    8.18    1.51 
  -7 -10   4    0.17    0.85 
  -6 -10   4    0.95    0.97 
  -5 -10   4    0.50    0.90 
  -4 -10   4    2.72    1.09 
  -3 -10   4    4.23    1.15 
  -2 -10   4    6.08    1.41 
  -1 -10   4   10.19    1.53 
   0 -10   4   16.80    1.82 
   1 -10   4    2.52    1.07 
 -13  -9   4    1.49    1.21 
 -12  -9   4    0.42    0.98 
 -11  -9   4    3.09    1.21 
 -10  -9   4    0.32    0.93 
  -9  -9   4   13.64    1.79 
  -8  -9   4    0.74    0.90 
  -7  -9   4    3.76    0.86 
  -6  -9   4    0.31    0.63 
  -5  -9   4   16.85    1.80 
  -4  -9   4   19.19    1.85 
  -3  -9   4    4.31    1.13 
  -2  -9   4    8.99    1.36 
  -1  -9   4   79.39    3.48 
   0  -9   4    5.84    1.19 
   1  -9   4    0.26    0.74 
   2  -9   4    3.11    1.07 
 -13  -8   4    0.18    1.08 
 -12  -8   4    7.37    1.47 
 -11  -8   4    6.08    1.43 
 -10  -8   4   23.21    1.51 
  -9  -8   4    1.80    0.71 
  -8  -8   4   25.12    1.51 
  -7  -8   4    0.49    0.62 
  -6  -8   4    3.19    0.74 
  -5  -8   4    0.16    0.56 
  -4  -8   4   25.03    1.99 
  -3  -8   4   15.46    1.58 
  -2  -8   4    6.25    1.12 
  -1  -8   4    1.31    0.79 
   0  -8   4   15.17    1.51 
   1  -8   4   35.61    2.20 
   2  -8   4   24.38    1.80 
   3  -8   4    4.06    0.99 
 -13  -7   4    0.93    1.12 
 -12  -7   4   12.67    1.72 
 -11  -7   4    1.04    0.70 
 -10  -7   4   45.41    1.87 
  -9  -7   4    1.30    0.61 
  -8  -7   4    1.34    0.60 
  -7  -7   4   49.73    1.81 
  -6  -7   4   85.72    2.34 
  -5  -7   4    4.84    0.77 
  -4  -7   4    4.24    0.70 
  -3  -7   4   10.41    1.26 
  -2  -7   4   78.12    3.10 
  -1  -7   4    3.58    0.84 
   0  -7   4   23.25    1.72 
   1  -7   4    2.93    0.81 
   2  -7   4   25.31    1.72 
   3  -7   4   12.51    1.33 
 -13  -6   4    6.50    1.16 
 -12  -6   4    7.25    0.84 
 -11  -6   4    0.60    0.54 
 -10  -6   4    1.02    0.56 
  -9  -6   4    0.49    0.50 
  -8  -6   4    0.07    0.45 
  -7  -6   4    1.68    0.52 
  -6  -6   4    5.05    0.66 
  -5  -6   4   33.57    1.34 
  -4  -6   4    3.16    0.56 
  -3  -6   4   40.37    2.10 
  -2  -6   4    9.52    1.13 
  -1  -6   4    4.17    0.83 
   0  -6   4  127.04    3.48 
   1  -6   4   64.01    2.49 
   2  -6   4   17.85    1.36 
   3  -6   4   38.35    1.84 
 -15  -5   4    0.04    0.85 
 -14  -5   4    0.32    0.77 
 -13  -5   4    2.05    0.83 
 -12  -5   4    0.32    0.51 
 -11  -5   4   17.90    1.06 
 -10  -5   4    7.45    0.74 
  -9  -5   4   19.23    1.04 
  -8  -5   4    5.96    0.64 
  -7  -5   4    0.46    0.39 
  -6  -5   4   73.42    1.78 
  -5  -5   4   44.82    2.06 
  -4  -5   4   19.91    3.45 
  -3  -5   4    0.16    0.35 
  -2  -5   4  104.21    2.92 
  -1  -5   4   29.11    1.61 
   0  -5   4   40.66    1.85 
   1  -5   4  139.51    3.28 
   2  -5   4    3.68    0.75 
   3  -5   4    2.20    0.55 
 -16  -4   4    1.48    1.09 
 -15  -4   4    2.95    1.00 
 -14  -4   4   11.83    1.34 
 -13  -4   4    0.80    0.75 
 -12  -4   4   14.97    0.98 
 -11  -4   4    3.11    0.61 
 -10  -4   4   47.55    1.52 
  -9  -4   4   -0.18    0.39 
  -8  -4   4   38.87    1.26 
  -7  -4   4    4.02    0.47 
  -6  -4   4    0.12    0.24 
  -5  -4   4    2.06    0.39 
  -4  -4   4  102.51    2.67 
  -3  -4   4  138.15    2.09 
  -2  -4   4   34.56    1.56 
  -1  -4   4   26.61    1.37 
   0  -4   4  296.78    4.43 
   1  -4   4   86.13    2.34 
   3  -4   4   45.43    1.63 
 -17  -3   4    0.49    1.00 
 -16  -3   4    1.05    1.03 
 -15  -3   4    1.33    1.03 
 -14  -3   4    1.88    0.94 
 -13  -3   4    5.52    1.05 
 -12  -3   4    9.66    0.86 
 -11  -3   4    5.49    0.70 
 -10  -3   4    2.87    0.52 
  -9  -3   4    0.32    0.42 
  -8  -3   4    3.15    0.46 
  -7  -3   4   36.96    1.08 
  -6  -3   4    6.63    1.15 
  -5  -3   4    6.43    0.48 
  -4  -3   4  638.23    8.07 
  -3  -3   4   12.13    0.56 
  -2  -3   4   10.29    0.52 
  -1  -3   4  194.29    3.21 
   0  -3   4  175.24    2.95 
   1  -3   4   24.18    1.04 
   2  -3   4  117.99    2.27 
   3  -3   4   79.79    1.76 
 -17  -2   4    0.35    0.94 
 -16  -2   4    0.11    0.82 
 -15  -2   4    0.37    0.73 
 -14  -2   4    5.15    1.01 
 -13  -2   4   -0.02    0.64 
 -12  -2   4    9.38    0.78 
 -11  -2   4   -0.32    0.40 
 -10  -2   4   19.00    0.91 
  -9  -2   4    0.98    0.39 
  -8  -2   4   16.77    0.79 
  -7  -2   4    2.95    0.40 
  -6  -2   4    8.29    1.76 
  -5  -2   4  104.14    3.63 
  -4  -2   4    0.06    0.21 
  -3  -2   4   65.55    1.04 
  -2  -2   4   53.58    0.89 
  -1  -2   4  277.70    3.36 
   0  -2   4    0.42    0.37 
   1  -2   4   15.23    0.72 
   2  -2   4   30.68    0.94 
   3  -2   4  180.79    2.23 
 -18  -1   4    3.28    1.28 
 -17  -1   4   -0.46    0.92 
 -16  -1   4    0.94    0.93 
 -15  -1   4    1.93    0.95 
 -14  -1   4    0.08    0.63 
 -13  -1   4    6.75    1.06 
 -12  -1   4   70.76    2.59 
 -11  -1   4   32.03    1.19 
 -10  -1   4   19.33    0.96 
  -9  -1   4    5.12    0.58 
  -8  -1   4    9.83    0.60 
  -7  -1   4   23.75    0.81 
  -6  -1   4   80.82    2.07 
  -5  -1   4   79.83    1.22 
  -4  -1   4   29.75    0.67 
  -3  -1   4   10.18    0.35 
  -2  -1   4   97.36    1.82 
  -1  -1   4   27.86    0.92 
   0  -1   4   65.10    1.29 
   1  -1   4   59.57    1.14 
   2  -1   4  145.11    1.75 
 -18   0   4    1.34    1.21 
 -17   0   4    0.06    0.94 
 -16   0   4    1.41    0.95 
 -15   0   4   -0.84    0.75 
 -14   0   4    3.51    0.92 
 -13   0   4    0.06    0.72 
 -12   0   4   11.19    1.22 
 -11   0   4   -0.04    0.47 
 -10   0   4   28.04    1.07 
  -9   0   4   -0.20    0.38 
  -8   0   4   28.25    0.97 
  -7   0   4   -0.21    0.33 
  -6   0   4    9.33    0.51 
  -5   0   4   -0.05    0.20 
  -4   0   4   11.92    0.50 
  -3   0   4    0.16    0.27 
  -2   0   4  589.40    5.11 
  -1   0   4    0.39    0.37 
   0   0   4   16.21    0.57 
   1   0   4    0.21    0.30 
   2   0   4  191.27    1.95 
 -18   1   4    4.22    1.45 
 -17   1   4    0.33    1.05 
 -16   1   4    1.00    0.89 
 -15   1   4    2.00    0.92 
 -14   1   4   -0.11    0.73 
 -13   1   4    8.78    1.21 
 -12   1   4   68.52    2.65 
 -11   1   4   36.17    1.30 
 -10   1   4   18.51    0.91 
  -9   1   4    3.97    0.53 
  -8   1   4    9.43    0.64 
  -7   1   4   23.65    0.85 
  -6   1   4   86.03    2.03 
  -5   1   4   72.57    1.21 
  -4   1   4   26.23    0.75 
  -3   1   4    9.84    0.67 
  -2   1   4   98.54    1.70 
  -1   1   4   27.45    0.85 
   0   1   4  238.74    2.72 
   1   1   4   23.42    0.69 
   2   1   4  103.41    1.36 
   3   1   4   24.05    0.65 
   4   1   4  875.34    6.33 
   5   1   4    0.91    0.33 
 -17   2   4   -0.57    1.00 
 -16   2   4    0.61    0.99 
 -15   2   4    0.93    0.89 
 -14   2   4    5.31    1.13 
 -13   2   4    0.48    0.89 
 -12   2   4   10.35    1.30 
 -11   2   4    0.14    0.50 
 -10   2   4   21.19    0.97 
  -9   2   4    1.17    0.48 
  -8   2   4   17.92    0.89 
  -7   2   4    3.16    0.48 
  -6   2   4   13.42    0.68 
  -5   2   4  105.97    2.22 
  -4   2   4    0.56    0.40 
  -3   2   4   61.68    1.47 
  -2   2   4   46.29    1.23 
  -1   2   4  295.42    3.32 
   0   2   4    0.48    0.30 
   1   2   4   13.47    0.67 
   3   2   4  157.68    2.18 
   4   2   4  110.22    1.87 
 -17   3   4    0.03    1.13 
 -16   3   4    1.41    1.10 
 -15   3   4    1.16    1.08 
 -14   3   4    0.93    1.00 
 -13   3   4    4.20    1.04 
 -12   3   4   10.43    1.40 
 -11   3   4    6.41    1.21 
 -10   3   4    3.33    0.63 
  -9   3   4    0.68    0.48 
  -8   3   4    3.87    0.52 
  -7   3   4   45.43    1.28 
  -6   3   4   11.47    0.92 
  -5   3   4    7.89    0.72 
  -4   3   4  599.70    5.75 
  -3   3   4   12.73    0.77 
  -2   3   4   10.41    0.73 
  -1   3   4  187.92    2.82 
   0   3   4  163.62    2.57 
   1   3   4   56.31    1.47 
   2   3   4  101.87    2.02 
   3   3   4   76.26    1.77 
   4   3   4    3.31    0.54 
 -16   4   4    2.62    1.31 
 -15   4   4    4.80    1.31 
 -14   4   4   12.86    1.56 
 -13   4   4    0.67    0.99 
 -12   4   4   18.83    1.86 
 -11   4   4    4.28    1.23 
 -10   4   4   50.74    1.58 
  -9   4   4    0.22    0.48 
  -8   4   4   42.11    1.37 
  -7   4   4    4.08    0.72 
  -6   4   4    0.34    0.50 
  -5   4   4    2.64    0.54 
  -4   4   4  110.43    2.51 
  -3   4   4  127.18    2.52 
  -2   4   4   37.64    1.47 
  -1   4   4   26.08    1.17 
   0   4   4  296.81    4.01 
   1   4   4   78.29    2.01 
   2   4   4  174.21    3.01 
   3   4   4   44.56    1.61 
   4   4   4    4.72    0.72 
 -16   5   4    2.95    1.44 
 -15   5   4    0.68    1.17 
 -14   5   4    0.74    1.07 
 -13   5   4    2.36    1.26 
 -12   5   4    0.34    1.08 
 -11   5   4   23.32    2.05 
 -10   5   4    8.90    0.86 
  -9   5   4   21.01    1.10 
  -8   5   4    5.59    0.70 
  -7   5   4    0.68    0.58 
  -6   5   4   89.94    2.48 
  -5   5   4   54.08    1.99 
  -4   5   4   29.45    1.39 
  -3   5   4    0.14    0.49 
  -2   5   4  115.23    2.72 
  -1   5   4   28.42    1.35 
   0   5   4   41.80    1.74 
   1   5   4  140.07    3.04 
   2   5   4    3.81    0.73 
   3   5   4    5.33    0.84 
   4   5   4   76.28    2.40 
 -15   6   4    4.85    1.58 
 -14   6   4    1.27    1.31 
 -13   6   4    7.49    1.63 
 -12   6   4    9.67    1.75 
 -11   6   4    0.27    1.00 
 -10   6   4    1.33    0.65 
  -9   6   4    0.75    0.65 
  -8   6   4    0.19    0.61 
  -7   6   4    2.16    0.68 
  -6   6   4    3.97    0.79 
  -5   6   4   42.21    1.98 
  -4   6   4    4.13    0.76 
  -3   6   4   40.25    1.75 
  -2   6   4    9.71    0.93 
  -1   6   4    3.45    0.70 
   0   6   4  147.15    3.51 
   1   6   4   66.99    2.32 
   2   6   4   18.39    1.29 
   3   6   4   41.47    1.97 
   4   6   4    9.83    1.15 
   5   6   4    3.03    0.86 
 -14   7   4    7.80    1.93 
 -13   7   4    1.96    1.53 
 -12   7   4   16.88    2.07 
 -11   7   4    1.42    1.21 
 -10   7   4   47.50    2.99 
  -9   7   4    1.34    0.72 
  -8   7   4    2.50    0.85 
  -7   7   4   53.69    2.29 
  -6   7   4  103.74    3.24 
  -5   7   4    4.60    0.86 
  -4   7   4    5.12    1.02 
  -3   7   4   14.70    1.27 
  -2   7   4   85.58    2.77 
  -1   7   4    2.72    0.80 
   0   7   4   26.69    1.75 
   1   7   4    2.75    0.84 
   2   7   4   25.43    1.63 
   3   7   4   12.46    1.29 
   4   7   4   75.77    2.85 
   5   7   4    7.68    1.23 
   6   7   4   12.88    1.46 
 -13   8   4   -0.61    1.25 
 -12   8   4    8.70    1.75 
 -11   8   4    5.44    1.72 
 -10   8   4   25.41    2.50 
  -9   8   4    1.19    1.03 
  -8   8   4   30.81    2.00 
  -7   8   4    0.33    0.88 
  -6   8   4    2.74    0.97 
  -5   8   4   -0.05    0.62 
  -4   8   4   31.20    1.89 
  -3   8   4   19.61    1.58 
  -2   8   4    7.67    1.10 
  -1   8   4    0.99    0.76 
   0   8   4   15.69    1.57 
   1   8   4   40.44    2.23 
   2   8   4   26.50    1.82 
   3   8   4    3.34    0.95 
   4   8   4    2.34    0.96 
   5   8   4   30.58    2.09 
   6   8   4   55.53    2.77 
   7   8   4   17.89    1.78 
   8   8   4   39.50    2.45 
   9   8   4   14.58    1.72 
 -12   9   4   -0.04    1.33 
 -11   9   4    3.82    1.73 
 -10   9   4    0.00    1.41 
  -9   9   4   18.95    1.94 
  -8   9   4    1.06    0.91 
  -7   9   4    4.98    1.16 
  -6   9   4    0.58    0.91 
  -5   9   4   21.99    1.86 
  -4   9   4   23.48    1.85 
  -3   9   4    5.61    1.13 
  -2   9   4    9.51    1.35 
  -1   9   4   90.47    3.40 
   0   9   4    5.99    1.26 
   1   9   4    0.12    0.83 
   2   9   4    4.20    1.09 
   3   9   4   21.28    1.82 
   4   9   4   27.93    2.06 
   5   9   4   -0.32    0.89 
   6   9   4    0.88    0.99 
   7   9   4    8.53    1.51 
   8   9   4    8.76    1.65 
   9   9   4    0.92    1.22 
 -11  10   4    1.40    1.76 
 -10  10   4    5.61    2.06 
  -8  10   4   12.30    1.62 
  -7  10   4   -0.02    0.96 
  -6  10   4    1.45    0.95 
  -5  10   4    0.87    0.94 
  -4  10   4    1.95    1.01 
  -3  10   4    4.56    1.19 
  -2  10   4    7.99    1.31 
  -1  10   4   11.72    1.52 
   0  10   4   23.02    1.97 
   1  10   4    2.23    1.12 
   2  10   4    0.77    0.98 
   3  10   4    0.96    1.00 
   4  10   4    8.73    1.44 
   5  10   4    3.61    1.19 
   6  10   4    4.12    1.31 
   7  10   4    1.49    1.19 
   8  10   4    2.01    1.41 
   9  10   4   -0.74    1.35 
  -8  11   4    0.96    1.22 
  -7  11   4    5.62    1.47 
  -6  11   4    8.30    1.49 
  -5  11   4   17.15    1.99 
  -4  11   4   -0.38    1.15 
  -3  11   4    2.50    1.20 
  -2  11   4   12.83    1.73 
  -1  11   4    3.33    1.20 
   0  11   4    1.89    1.05 
   1  11   4    8.88    1.58 
   2  11   4   20.15    2.25 
   3  11   4    1.20    1.12 
   4  11   4    0.95    1.21 
   5  11   4    0.31    1.14 
   6  11   4    0.58    1.28 
   7  11   4    8.52    1.78 
   8  11   4    1.52    1.41 
   9  11   4   -0.48    1.40 
  -7  12   4    1.65    1.34 
  -6  12   4    5.35    1.55 
  -5  12   4    0.07    0.98 
  -4  12   4    0.35    1.27 
  -3  12   4   20.19    2.13 
  -2  12   4    3.89    1.33 
  -1  12   4    1.01    1.13 
   0  12   4    6.42    1.51 
   1  12   4   11.03    1.81 
   2  12   4    3.16    1.49 
   3  12   4    0.78    1.45 
   4  12   4    1.76    1.45 
   5  12   4    6.56    1.80 
   6  12   4    0.27    1.49 
  -6 -12   5    0.06    1.20 
  -5 -12   5    0.31    1.33 
  -4 -12   5   11.88    2.03 
  -3 -12   5    0.83    1.14 
  -2 -12   5    0.15    1.03 
  -1 -12   5   11.62    1.99 
   0 -12   5    6.14    1.63 
  -9 -11   5    1.66    1.15 
  -8 -11   5    0.53    1.00 
  -7 -11   5    2.70    1.18 
  -6 -11   5    0.81    1.04 
  -5 -11   5    1.70    1.09 
  -4 -11   5    2.98    1.22 
  -3 -11   5    3.99    1.39 
  -2 -11   5   -0.24    0.94 
   0 -11   5    0.93    0.99 
   1 -11   5   14.31    1.94 
 -11 -10   5    3.56    1.24 
  -9 -10   5    2.72    1.16 
  -8 -10   5    0.71    0.91 
  -7 -10   5    0.02    0.85 
  -6 -10   5    1.07    0.90 
  -5 -10   5    2.06    1.00 
  -4 -10   5    1.16    1.06 
  -3 -10   5    1.69    1.06 
  -2 -10   5    0.39    0.86 
  -1 -10   5    6.74    1.40 
   0 -10   5   10.11    1.48 
   1 -10   5    2.21    1.02 
   2 -10   5    2.57    1.06 
 -13  -9   5    0.50    1.05 
 -12  -9   5    0.84    1.07 
 -11  -9   5    0.36    1.04 
 -10  -9   5    6.35    1.38 
  -9  -9   5    1.46    1.01 
  -8  -9   5    0.12    0.82 
  -7  -9   5    2.75    1.03 
  -6  -9   5    1.00    0.92 
  -5  -9   5    5.70    1.21 
  -4  -9   5   12.38    1.58 
  -3  -9   5    6.34    1.22 
  -2  -9   5    6.14    1.25 
  -1  -9   5    7.88    1.29 
   0  -9   5    6.57    1.25 
   1  -9   5   11.74    1.48 
   2  -9   5    2.46    0.92 
 -13  -8   5    3.88    1.37 
 -11  -8   5   12.40    1.73 
 -10  -8   5    1.27    0.97 
  -9  -8   5    1.91    0.96 
  -8  -8   5    0.58    0.88 
  -7  -8   5   34.17    1.66 
  -6  -8   5   -0.12    0.62 
  -5  -8   5    0.82    0.82 
  -4  -8   5   12.80    1.50 
  -3  -8   5    2.56    0.90 
  -2  -8   5   12.23    1.45 
  -1  -8   5    0.25    0.70 
   0  -8   5    4.01    1.01 
   1  -8   5   10.65    1.35 
   2  -8   5    3.10    0.88 
   3  -8   5    2.77    0.94 
 -13  -7   5    3.95    1.23 
 -12  -7   5    0.19    0.85 
 -11  -7   5    7.31    1.28 
 -10  -7   5    1.60    0.83 
  -9  -7   5   11.74    1.01 
  -8  -7   5    0.68    0.53 
  -7  -7   5    0.15    0.48 
  -6  -7   5   10.25    1.90 
  -5  -7   5   16.31    3.63 
  -4  -7   5    6.95    1.13 
  -3  -7   5   32.57    2.10 
  -2  -7   5    2.83    0.84 
  -1  -7   5   40.58    2.25 
   0  -7   5   24.72    1.73 
   1  -7   5    6.74    1.08 
   2  -7   5    7.95    1.17 
   3  -7   5   50.93    2.33 
 -13  -6   5    2.58    1.02 
 -12  -6   5   -0.26    0.81 
 -11  -6   5   17.01    1.14 
 -10  -6   5    3.77    0.70 
  -9  -6   5    5.59    0.76 
  -8  -6   5    0.81    0.51 
  -7  -6   5    1.52    0.47 
  -6  -6   5    5.65    0.66 
  -5  -6   5   12.99    0.88 
  -4  -6   5   24.40    1.23 
  -3  -6   5    0.12    0.58 
  -2  -6   5   34.13    1.93 
  -1  -6   5   51.14    2.32 
   0  -6   5    5.39    0.86 
   1  -6   5    1.61    0.64 
   2  -6   5   10.81    1.14 
   3  -6   5    1.12    0.47 
   4  -6   5   38.29    1.89 
 -13  -5   5    1.68    0.61 
 -12  -5   5    0.17    0.52 
 -11  -5   5    0.25    0.52 
 -10  -5   5    1.25    0.53 
  -9  -5   5    0.75    0.46 
  -8  -5   5    3.62    1.01 
  -7  -5   5    1.68    0.44 
  -6  -5   5   65.59    2.48 
  -5  -5   5   11.47    0.77 
  -4  -5   5   54.79    1.55 
  -3  -5   5   11.04    1.10 
  -2  -5   5  124.24    3.29 
  -1  -5   5   73.55    2.44 
   0  -5   5    9.37    1.00 
   1  -5   5  303.25    4.94 
   2  -5   5   20.57    1.30 
   3  -5   5   80.87    2.43 
   4  -5   5   35.49    1.62 
 -14  -4   5    1.03    0.78 
 -13  -4   5   26.78    1.32 
 -12  -4   5    2.11    0.58 
 -11  -4   5    0.21    0.46 
 -10  -4   5    0.99    0.49 
  -9  -4   5    9.19    0.73 
  -8  -4   5   10.35    2.22 
  -7  -4   5    0.73    0.34 
  -6  -4   5  123.98    2.84 
  -5  -4   5   -0.29    0.32 
  -4  -4   5   49.77    1.36 
  -3  -4   5   15.38    0.95 
  -2  -4   5   25.26    1.34 
  -1  -4   5  128.08    2.95 
   0  -4   5  135.94    2.99 
   1  -4   5    4.91    0.66 
   2  -4   5    5.32    0.71 
   3  -4   5  192.83    3.37 
   4  -4   5   69.44    1.88 
 -16  -3   5    0.78    0.99 
 -15  -3   5    4.11    1.16 
 -14  -3   5    0.34    0.86 
 -13  -3   5    8.64    1.20 
 -12  -3   5    5.75    0.71 
 -11  -3   5   78.31    1.97 
 -10  -3   5   -0.22    0.42 
  -9  -3   5   -0.17    0.37 
  -8  -3   5    0.56    0.27 
  -7  -3   5    8.15    0.56 
  -6  -3   5  194.36    6.84 
  -5  -3   5   88.13    2.00 
  -4  -3   5    0.73    0.32 
  -3  -3   5  146.09    2.82 
  -2  -3   5    0.19    0.43 
  -1  -3   5   75.63    1.99 
   0  -3   5   56.12    1.69 
   2  -3   5  267.78    3.56 
   3  -3   5   57.83    1.57 
   4  -3   5    4.57    0.54 
 -17  -2   5    3.85    1.19 
 -16  -2   5    1.96    0.94 
 -15  -2   5    4.11    0.97 
 -14  -2   5    0.64    0.68 
 -13  -2   5    0.79    0.67 
 -12  -2   5    4.77    0.65 
 -11  -2   5    5.11    0.64 
 -10  -2   5   11.47    0.80 
  -9  -2   5   21.16    0.91 
  -8  -2   5   57.88    2.00 
  -7  -2   5    5.04    0.46 
  -6  -2   5    3.67    0.40 
  -5  -2   5  133.99    3.13 
  -4  -2   5   51.62    1.15 
  -3  -2   5  207.36    2.30 
  -2  -2   5   55.27    1.54 
  -1  -2   5  349.98    4.09 
   0  -2   5  474.98    4.58 
   1  -2   5    9.72    0.64 
   2  -2   5    9.22    0.59 
   3  -2   5    1.43    0.34 
   4  -2   5  182.78    2.10 
 -18  -1   5   -0.09    1.02 
 -17  -1   5   -0.24    0.90 
 -16  -1   5    0.09    0.90 
 -15  -1   5    3.75    0.99 
 -14  -1   5    1.11    0.71 
 -13  -1   5    7.40    1.02 
 -12  -1   5    6.00    0.71 
 -11  -1   5   18.23    0.99 
 -10  -1   5   85.31    1.84 
  -9  -1   5   37.46    1.13 
  -8  -1   5    1.74    0.41 
  -7  -1   5    8.20    1.72 
  -6  -1   5  425.84    4.81 
  -5  -1   5  199.83    1.98 
  -4  -1   5  120.91    1.83 
  -3  -1   5  361.77    8.85 
  -1  -1   5  249.77    3.15 
   1  -1   5  469.04    4.23 
   2  -1   5  291.31    2.92 
   3  -1   5   91.41    1.27 
 -18   0   5    0.36    1.22 
 -17   0   5    4.69    1.26 
 -16   0   5    0.86    0.93 
 -15   0   5    0.12    0.83 
 -14   0   5   -0.08    0.67 
 -13   0   5   77.39    2.75 
 -12   0   5    0.67    0.55 
 -11   0   5   -0.33    0.49 
 -10   0   5    0.10    0.43 
  -9   0   5   55.93    1.41 
  -8   0   5    0.36    0.40 
  -7   0   5  207.70    2.40 
  -6   0   5   -0.14    0.24 
  -5   0   5  325.49    3.00 
  -4   0   5    0.17    0.30 
  -3   0   5  404.54    5.15 
  -2   0   5    0.66    0.47 
  -1   0   5    0.67    0.43 
   0   0   5    0.31    0.33 
   1   0   5  522.87    4.30 
   2   0   5    0.11    0.31 
   3   0   5    6.31    0.39 
 -18   1   5    0.85    1.28 
 -17   1   5    0.22    1.01 
 -16   1   5    0.44    0.94 
 -15   1   5    4.12    1.05 
 -14   1   5    2.91    0.91 
 -13   1   5    9.36    1.23 
 -12   1   5    6.76    1.13 
 -11   1   5   20.03    1.07 
 -10   1   5   83.32    1.80 
  -9   1   5   45.48    1.36 
  -8   1   5    2.65    0.48 
  -7   1   5   14.23    0.73 
  -6   1   5  438.39    3.62 
  -5   1   5  216.86    3.31 
  -4   1   5  112.65    2.15 
  -3   1   5  331.19    3.82 
  -2   1   5  753.00    6.27 
  -1   1   5  244.07    2.91 
   0   1   5  349.13    3.41 
   1   1   5  242.30    2.81 
   2   1   5  238.21    2.47 
   3   1   5   83.53    1.35 
   4   1   5   64.83    1.19 
   5   1   5   65.49    1.11 
   6   1   5   12.80    0.55 
 -17   2   5    5.46    1.40 
 -16   2   5    2.22    1.05 
 -15   2   5    3.73    1.11 
 -14   2   5    0.86    0.89 
 -13   2   5    1.64    1.03 
 -12   2   5    5.66    1.07 
 -11   2   5    6.99    0.76 
 -10   2   5   11.65    0.82 
  -9   2   5   22.42    1.01 
  -8   2   5   75.24    1.71 
  -7   2   5    4.80    0.52 
  -6   2   5    2.99    0.46 
  -5   2   5  116.60    2.42 
  -4   2   5   47.72    1.46 
  -3   2   5  192.46    2.82 
  -2   2   5   61.86    1.54 
  -1   2   5  340.25    3.70 
   0   2   5  503.94    4.70 
   1   2   5    6.64    0.49 
   2   2   5    4.10    0.38 
   3   2   5    1.04    0.35 
   4   2   5  164.02    2.27 
   5   2   5   38.99    1.13 
   6   2   5   30.36    1.00 
 -17   3   5    1.66    1.27 
 -16   3   5    0.47    1.16 
 -15   3   5    3.90    1.27 
 -14   3   5    0.03    0.86 
 -13   3   5    9.08    1.30 
 -12   3   5    5.76    1.17 
 -11   3   5   87.90    2.11 
 -10   3   5    0.27    0.60 
  -9   3   5    0.25    0.48 
  -8   3   5    1.62    0.47 
  -7   3   5    9.10    0.70 
  -6   3   5  207.69    3.51 
  -5   3   5   87.64    2.13 
  -4   3   5    0.69    0.47 
  -3   3   5  123.73    2.37 
  -2   3   5    0.78    0.42 
  -1   3   5   74.37    1.78 
   0   3   5   56.78    1.65 
   1   3   5  626.07    5.84 
   2   3   5  248.61    3.30 
   3   3   5   28.81    1.14 
   4   3   5    4.26    0.59 
   5   3   5   71.64    1.76 
   6   3   5    0.20    0.50 
   7   3   5   45.47    1.57 
 -17   4   5    2.21    1.45 
 -16   4   5    4.30    1.57 
 -15   4   5    1.41    1.12 
 -14   4   5    2.90    1.22 
 -13   4   5   30.27    2.23 
 -12   4   5    2.34    1.15 
 -11   4   5    0.35    0.66 
 -10   4   5    0.93    0.58 
  -9   4   5   10.33    0.83 
  -8   4   5   17.00    0.97 
  -7   4   5   -0.04    0.53 
  -6   4   5  127.24    2.82 
  -5   4   5    0.63    0.56 
  -4   4   5   48.39    1.67 
  -3   4   5   12.44    0.92 
  -2   4   5   24.01    1.13 
  -1   4   5  121.23    2.48 
   0   4   5  134.22    2.66 
   1   4   5    4.34    0.65 
   2   4   5    6.14    0.74 
   3   4   5  176.90    3.12 
   4   4   5   64.84    1.88 
   5   4   5    0.30    0.37 
   6   4   5   -0.87    0.60 
   7   4   5    0.58    0.76 
 -16   5   5    0.96    1.34 
 -15   5   5    1.89    1.32 
 -13   5   5    2.74    1.32 
 -12   5   5   -0.02    1.16 
 -11   5   5   -0.08    1.06 
 -10   5   5    1.23    0.71 
  -9   5   5    0.76    0.60 
  -8   5   5    7.01    0.97 
  -7   5   5    2.97    0.73 
  -6   5   5   79.20    2.51 
  -5   5   5   10.93    0.96 
  -4   5   5   61.75    2.14 
  -3   5   5    9.56    0.85 
  -2   5   5  128.75    2.92 
  -1   5   5   78.55    2.28 
   0   5   5    7.66    0.86 
   1   5   5  310.00    4.62 
   2   5   5   25.13    1.41 
   3   5   5   74.84    2.24 
   4   5   5   32.82    1.57 
   5   5   5    0.16    0.67 
   6   5   5    5.02    1.03 
   7   5   5   15.16    1.28 
 -15   6   5    1.03    1.37 
 -14   6   5    0.18    1.31 
 -13   6   5    2.39    1.42 
 -12   6   5   -0.20    1.12 
 -11   6   5   16.20    1.76 
 -10   6   5    4.52    0.80 
  -9   6   5    6.87    0.90 
  -8   6   5    0.96    0.69 
  -7   6   5    2.82    0.74 
  -6   6   5    6.00    0.89 
  -5   6   5   12.26    1.15 
  -4   6   5   26.90    1.52 
  -3   6   5    0.53    0.60 
  -2   6   5   32.73    1.63 
  -1   6   5   51.34    2.00 
   0   6   5    7.49    0.97 
   1   6   5    1.08    0.71 
   2   6   5   12.15    1.14 
   3   6   5    7.57    0.98 
   4   6   5   38.09    1.86 
   5   6   5   71.49    2.56 
   6   6   5    0.64    0.76 
   7   6   5   27.83    1.84 
   8   6   5    8.38    1.24 
 -14   7   5    2.46    1.57 
 -13   7   5    2.50    1.54 
 -12   7   5    0.28    1.17 
 -11   7   5    8.75    1.78 
 -10   7   5    1.75    0.76 
  -9   7   5   15.10    1.48 
  -8   7   5    0.93    0.92 
  -7   7   5    0.10    0.69 
  -6   7   5   15.78    1.43 
  -5   7   5   29.12    1.87 
  -4   7   5    6.69    0.95 
  -3   7   5   37.00    1.87 
  -2   7   5    3.02    0.83 
  -1   7   5   40.87    1.97 
   0   7   5   30.94    1.79 
   1   7   5    6.09    1.02 
   2   7   5    7.20    1.08 
   3   7   5   52.01    2.28 
   4   7   5   42.09    2.13 
   5   7   5    8.43    1.18 
   6   7   5   23.69    1.74 
   7   7   5   16.40    1.56 
   8   7   5    5.55    1.17 
 -13   8   5    5.22    1.69 
 -12   8   5    0.58    1.31 
 -11   8   5   15.68    2.20 
 -10   8   5    3.00    1.50 
  -9   8   5    2.15    0.96 
  -8   8   5    0.41    0.75 
  -7   8   5   42.56    2.27 
  -6   8   5    0.16    0.78 
  -5   8   5    0.80    0.78 
  -4   8   5   19.65    1.74 
  -3   8   5    3.81    0.95 
  -2   8   5   16.33    1.51 
  -1   8   5    1.47    0.81 
   0   8   5    5.04    1.03 
   1   8   5   11.19    1.39 
   2   8   5    3.44    1.00 
   3   8   5    2.54    0.90 
   4   8   5    7.59    1.19 
   5   8   5    5.88    1.14 
   6   8   5    1.16    0.92 
   7   8   5   -0.54    0.90 
   8   8   5   13.60    1.70 
 -12   9   5   -1.18    1.43 
 -11   9   5    0.23    1.48 
 -10   9   5   11.01    2.31 
  -9   9   5    1.58    1.21 
  -8   9   5   -0.03    0.91 
  -7   9   5    3.44    1.09 
  -6   9   5    1.70    0.98 
  -5   9   5    6.50    1.17 
  -4   9   5   19.89    1.92 
  -3   9   5    6.43    1.16 
  -2   9   5    7.10    1.26 
  -1   9   5   10.63    1.35 
   0   9   5    8.28    1.27 
   1   9   5   14.77    1.64 
   2   9   5    2.65    1.10 
   3   9   5   17.50    1.72 
   4   9   5    2.89    1.04 
   5   9   5   -0.09    0.83 
   6   9   5    6.31    1.35 
   7   9   5    5.48    1.38 
   8   9   5    6.28    1.38 
 -11  10   5    4.14    1.87 
 -10  10   5   -0.05    1.63 
  -9  10   5    2.02    1.22 
  -8  10   5    1.84    1.09 
  -7  10   5   -0.36    1.00 
  -6  10   5    2.12    1.11 
  -5  10   5    3.88    1.10 
  -4  10   5    1.85    1.16 
  -3  10   5    0.92    0.92 
  -2  10   5    0.62    0.91 
  -1  10   5    8.30    1.33 
   0  10   5   12.04    1.60 
   1  10   5    2.64    1.07 
   2  10   5    4.25    1.26 
   3  10   5    6.59    1.38 
   4  10   5    3.30    1.21 
   5  10   5    4.08    1.33 
   6  10   5    2.26    1.23 
   7  10   5    4.93    1.41 
   8  10   5    2.90    1.41 
  -8  11   5    0.52    1.08 
  -7  11   5    3.46    1.41 
  -6  11   5    0.57    1.18 
  -5  11   5    1.52    1.02 
  -4  11   5    3.42    1.35 
  -3  11   5    5.50    1.30 
  -2  11   5    0.69    1.04 
  -1  11   5    1.45    1.05 
   0  11   5    2.49    1.06 
   1  11   5   18.11    1.99 
   2  11   5    0.11    1.06 
   3  11   5    3.49    1.37 
   4  11   5    0.11    1.22 
   5  11   5    3.91    1.45 
   6  11   5    1.09    1.37 
   7  11   5    0.25    1.35 
   8  11   5    0.49    1.54 
  -7  12   5    2.11    1.44 
  -6  12   5    1.05    1.23 
  -5  12   5   -0.99    1.02 
  -3  12   5    1.20    1.26 
  -2  12   5    0.49    1.13 
  -1  12   5   15.96    2.03 
   0  12   5    6.98    1.49 
   1  12   5   -0.14    1.20 
   2  12   5   -0.05    1.11 
   3  12   5    5.69    1.66 
   4  12   5    5.43    1.81 
   5  12   5    1.31    1.70 
  -5 -12   6    9.63    1.94 
  -4 -12   6    0.07    1.28 
  -3 -12   6    0.34    1.24 
  -2 -12   6    6.97    1.61 
  -1 -12   6    3.59    1.40 
   0 -12   6    4.45    1.57 
  -9 -11   6    0.82    1.05 
  -8 -11   6    0.84    1.01 
  -7 -11   6    4.06    1.31 
  -6 -11   6   13.23    1.99 
  -5 -11   6    0.40    1.10 
  -4 -11   6    6.24    1.47 
  -3 -11   6    3.33    1.22 
  -2 -11   6    0.07    1.04 
  -1 -11   6    0.17    0.95 
   0 -11   6    5.00    1.39 
   1 -11   6    3.56    1.32 
 -11 -10   6   -0.08    0.99 
 -10 -10   6    1.35    1.10 
  -9 -10   6    0.74    0.94 
  -8 -10   6   -0.03    0.89 
  -7 -10   6    0.82    0.95 
  -6 -10   6    0.72    0.88 
  -5 -10   6    2.25    1.07 
  -4 -10   6    0.77    0.87 
  -3 -10   6    0.04    0.90 
  -2 -10   6   21.25    2.10 
  -1 -10   6    1.64    0.98 
   0 -10   6    4.54    1.23 
   1 -10   6    3.97    1.17 
   2 -10   6   14.69    1.84 
 -13  -9   6    0.73    1.14 
 -12  -9   6   -0.23    1.04 
 -11  -9   6    6.87    1.48 
 -10  -9   6   -0.16    0.85 
  -9  -9   6    5.58    1.34 
  -8  -9   6    0.60    0.87 
  -7  -9   6   12.96    1.68 
  -6  -9   6    1.47    1.00 
  -5  -9   6    0.00    0.79 
  -4  -9   6   23.63    2.10 
  -3  -9   6   19.63    1.91 
  -2  -9   6    0.63    0.90 
  -1  -9   6    5.01    1.16 
   0  -9   6    6.02    1.18 
   1  -9   6   25.25    2.09 
   2  -9   6    0.00    0.73 
   3  -9   6    0.17    0.87 
 -14  -8   6    1.03    1.10 
 -13  -8   6    3.91    1.26 
 -12  -8   6    3.14    1.14 
 -11  -8   6    1.55    0.99 
 -10  -8   6    5.43    1.29 
  -9  -8   6    3.77    1.13 
  -8  -8   6   15.35    1.73 
  -7  -8   6    2.73    0.98 
  -6  -8   6   17.90    1.81 
  -5  -8   6   24.44    2.04 
  -4  -8   6   62.41    3.12 
  -3  -8   6    1.95    0.88 
  -2  -8   6   94.14    3.67 
  -1  -8   6    6.88    1.15 
   0  -8   6    0.29    0.69 
   1  -8   6   10.15    1.30 
   2  -8   6   14.57    1.54 
   3  -8   6   21.44    1.73 
 -14  -7   6    0.93    0.98 
 -13  -7   6    2.29    1.09 
 -12  -7   6    2.38    1.04 
 -11  -7   6    0.25    0.80 
 -10  -7   6   39.30    2.48 
  -9  -7   6    7.25    1.20 
  -8  -7   6   40.47    2.43 
  -7  -7   6   11.83    1.40 
  -6  -7   6   13.99    1.04 
  -5  -7   6    0.42    0.52 
  -4  -7   6   56.21    2.68 
  -3  -7   6   15.50    1.52 
  -2  -7   6   19.01    1.64 
  -1  -7   6    8.15    1.12 
   0  -7   6  157.23    4.32 
   1  -7   6   11.11    1.25 
   2  -7   6   11.91    1.26 
   3  -7   6    4.05    0.98 
   4  -7   6    0.41    0.80 
 -14  -6   6   -0.06    0.93 
 -13  -6   6    8.75    1.49 
 -12  -6   6    3.81    1.19 
 -11  -6   6    7.95    1.29 
 -10  -6   6    0.32    0.74 
  -9  -6   6    4.90    1.04 
  -8  -6   6    6.08    0.74 
  -7  -6   6    3.11    0.61 
  -6  -6   6    6.93    0.73 
  -5  -6   6   10.62    0.88 
  -4  -6   6   22.95    1.70 
  -3  -6   6   37.08    2.00 
  -2  -6   6    5.41    0.91 
  -1  -6   6    3.95    0.84 
   0  -6   6   17.12    1.40 
   1  -6   6    6.51    0.94 
   2  -6   6   46.92    2.09 
   3  -6   6   89.31    2.83 
   4  -6   6   31.47    1.67 
 -13  -5   6    6.23    1.26 
 -12  -5   6   10.19    1.37 
 -11  -5   6   22.16    1.76 
 -10  -5   6    2.83    0.67 
  -9  -5   6   36.19    1.36 
  -8  -5   6   -0.02    0.43 
  -7  -5   6    0.82    0.45 
  -6  -5   6    0.69    0.43 
  -5  -5   6    1.07    0.42 
  -4  -5   6  104.22    4.92 
  -3  -5   6  111.22    3.24 
  -2  -5   6   33.38    1.75 
  -1  -5   6   92.35    2.81 
   0  -5   6  414.02    5.97 
   1  -5   6    6.72    0.86 
   2  -5   6    0.25    0.30 
   3  -5   6   59.97    2.13 
   4  -5   6   14.66    1.09 
 -13  -4   6    0.48    0.83 
 -12  -4   6   15.13    1.03 
 -11  -4   6    0.03    0.49 
 -10  -4   6   37.99    2.07 
  -9  -4   6   -0.04    0.40 
  -8  -4   6    2.68    0.47 
  -7  -4   6    4.32    0.50 
  -6  -4   6   55.80    1.84 
  -5  -4   6    3.58    0.45 
  -4  -4   6  126.91    2.70 
  -3  -4   6   33.04    1.60 
  -2  -4   6  429.89    5.80 
  -1  -4   6   23.05    1.29 
   0  -4   6  110.67    2.74 
   1  -4   6   48.94    1.75 
   2  -4   6  116.32    2.70 
   3  -4   6    0.01    0.47 
   4  -4   6  109.67    2.44 
 -14  -3   6    2.27    0.93 
 -13  -3   6   10.53    0.94 
 -12  -3   6   29.90    1.34 
 -11  -3   6   -0.05    0.52 
 -10  -3   6   16.86    1.39 
  -9  -3   6   56.45    2.93 
  -8  -3   6    2.14    0.37 
  -7  -3   6    5.98    0.51 
  -6  -3   6  121.05    3.90 
  -5  -3   6    2.19    0.35 
  -4  -3   6   91.66    4.01 
  -3  -3   6    0.69    0.33 
  -2  -3   6  129.87    2.81 
  -1  -3   6   42.07    1.56 
   0  -3   6  215.11    3.42 
   1  -3   6   72.73    1.87 
   2  -3   6    6.47    0.68 
   3  -3   6  204.18    3.08 
   4  -3   6   15.71    0.86 
 -15  -2   6    0.48    0.75 
 -14  -2   6    1.21    0.75 
 -13  -2   6   35.48    1.37 
 -12  -2   6    6.75    0.73 
 -11  -2   6   40.22    1.36 
 -10  -2   6    6.95    0.65 
  -9  -2   6    4.99    0.58 
  -8  -2   6    5.04    0.52 
  -7  -2   6  108.71    1.78 
  -6  -2   6   97.83    1.57 
  -5  -2   6   80.55    1.47 
  -4  -2   6    3.15    0.29 
  -3  -2   6   19.71    0.53 
  -2  -2   6    0.94    0.50 
  -1  -2   6   78.83    1.89 
   0  -2   6   21.75    0.96 
   1  -2   6   19.45    0.85 
   2  -2   6  137.06    2.18 
   3  -2   6  114.97    1.87 
   4  -2   6   49.39    1.07 
 -16  -1   6    1.32    0.93 
 -15  -1   6    0.14    0.82 
 -14  -1   6    0.60    0.69 
 -13  -1   6   26.32    1.70 
 -12  -1   6    0.26    0.54 
 -11  -1   6   13.97    0.96 
 -10  -1   6   66.19    1.60 
  -9  -1   6    0.19    0.35 
  -8  -1   6    7.87    0.56 
  -7  -1   6   26.94    0.87 
  -6  -1   6   68.98    1.25 
  -5  -1   6  173.96    2.22 
  -4  -1   6   42.53    0.77 
  -3  -1   6   10.48    0.80 
  -2  -1   6   27.19    1.12 
  -1  -1   6    4.95    0.58 
   1  -1   6    2.11    0.42 
   2  -1   6   15.00    0.69 
   3  -1   6   15.03    0.59 
 -18   0   6    2.26    1.25 
 -17   0   6    0.22    0.92 
 -16   0   6    4.25    1.21 
 -15   0   6   -0.48    0.80 
 -14   0   6    0.76    0.74 
 -13   0   6    0.06    0.80 
 -12   0   6    2.89    0.64 
 -11   0   6   -0.11    0.50 
 -10   0   6   99.40    1.98 
  -9   0   6   -0.39    0.40 
  -8   0   6  160.89   11.85 
  -7   0   6    0.10    0.35 
  -6   0   6    1.36    0.40 
  -5   0   6   -0.24    0.30 
  -4   0   6  214.21    2.01 
  -3   0   6    0.17    0.46 
  -2   0   6  518.03    5.17 
  -1   0   6    0.11    0.42 
   0   0   6   85.37    1.69 
   1   0   6    0.03    0.36 
   2   0   6  405.38    3.61 
   3   0   6    0.03    0.30 
   4   0   6   12.77    0.54 
 -18   1   6    0.53    1.26 
 -17   1   6    5.85    1.40 
 -16   1   6    1.12    0.90 
 -15   1   6   -0.06    0.84 
 -14   1   6    0.30    0.77 
 -13   1   6   27.95    1.87 
 -12   1   6    0.55    0.59 
 -11   1   6   15.97    0.99 
 -10   1   6   65.13    1.60 
  -9   1   6    0.04    0.44 
  -8   1   6   10.33    0.72 
  -7   1   6   28.69    0.99 
  -6   1   6   68.94    1.98 
  -5   1   6  164.82    2.01 
  -4   1   6   37.03    1.33 
  -3   1   6    9.62    0.73 
  -2   1   6   29.34    1.13 
  -1   1   6    6.54    0.62 
   0   1   6  174.30    2.44 
   1   1   6    0.91    0.28 
   2   1   6   12.20    0.62 
   3   1   6   12.72    0.57 
   4   1   6   20.53    0.69 
   5   1   6  106.21    1.54 
 -17   2   6    4.16    1.32 
 -16   2   6    0.98    1.13 
 -15   2   6   -0.05    0.88 
 -14   2   6    1.43    1.05 
 -13   2   6   43.63    2.48 
 -12   2   6    7.40    0.82 
 -11   2   6   46.49    1.55 
 -10   2   6    7.52    0.74 
  -9   2   6    7.77    0.73 
  -8   2   6    5.68    0.62 
  -7   2   6  107.86    1.96 
  -6   2   6   96.89    2.27 
  -5   2   6   71.83    2.00 
  -4   2   6    3.01    0.57 
  -3   2   6   18.39    0.95 
  -2   2   6    1.08    0.43 
  -1   2   6   89.94    2.03 
   0   2   6   20.61    0.88 
   1   2   6   19.51    0.87 
   2   2   6   78.48    1.65 
   3   2   6   95.12    1.71 
   4   2   6   40.56    1.11 
   5   2   6   75.84    1.56 
   6   2   6    3.70    0.48 
 -17   3   6    0.76    1.26 
 -16   3   6   15.16    1.88 
 -15   3   6    8.73    1.66 
 -14   3   6    2.50    1.10 
 -13   3   6   11.06    1.50 
 -12   3   6   32.22    2.10 
 -11   3   6   -0.24    0.62 
 -10   3   6   22.40    1.20 
  -9   3   6   64.70    1.67 
  -8   3   6    2.71    0.55 
  -7   3   6    5.93    0.65 
  -6   3   6  122.87    2.74 
  -5   3   6    1.81    0.57 
  -4   3   6   86.18    2.12 
  -3   3   6    1.23    0.53 
  -2   3   6  130.00    2.49 
  -1   3   6   41.53    1.43 
   0   3   6  216.06    3.24 
   1   3   6  105.92    2.23 
   2   3   6    5.86    0.61 
   4   3   6   14.64    0.84 
   5   3   6   35.24    1.25 
   6   3   6   65.66    1.78 
 -17   4   6    0.22    1.31 
 -16   4   6    1.21    1.34 
 -15   4   6    0.53    1.01 
 -14   4   6   10.93    1.62 
 -13   4   6    1.30    1.00 
 -12   4   6   17.18    1.89 
 -11   4   6    1.01    0.71 
 -10   4   6   44.37    1.54 
  -9   4   6    0.03    0.50 
  -8   4   6    3.51    0.64 
  -7   4   6    4.98    0.80 
  -6   4   6   55.74    1.93 
  -5   4   6    4.19    0.68 
  -4   4   6  115.84    2.56 
  -3   4   6   35.96    1.49 
  -2   4   6  495.05    5.94 
  -1   4   6   21.85    1.12 
   0   4   6  107.18    2.41 
   1   4   6   50.92    1.68 
   2   4   6  102.26    2.31 
   3   4   6    0.41    0.48 
   4   4   6   88.56    2.31 
   5   4   6    2.52    0.66 
   6   4   6   54.19    1.83 
   7   4   6    2.18    0.76 
 -16   5   6    0.53    1.24 
 -15   5   6    0.45    1.25 
 -14   5   6    0.15    1.16 
 -13   5   6    8.15    1.55 
 -12   5   6   14.98    1.96 
 -11   5   6   26.76    1.37 
 -10   5   6    5.57    0.82 
  -9   5   6   42.10    1.59 
  -8   5   6    0.33    0.68 
  -7   5   6   -0.21    0.60 
  -6   5   6    1.23    0.68 
  -5   5   6    0.75    0.52 
  -4   5   6   99.80    2.74 
  -3   5   6  124.33    3.07 
  -2   5   6   30.40    1.38 
  -1   5   6   95.15    2.54 
   0   5   6  417.84    5.49 
   1   5   6    6.07    0.78 
   2   5   6   -0.14    0.51 
   3   5   6   57.18    2.03 
   4   5   6   13.90    1.13 
   5   5   6   53.76    2.00 
   7   5   6   99.43    2.76 
 -15   6   6    0.15    1.35 
 -14   6   6    0.37    1.32 
 -13   6   6   13.74    2.13 
 -12   6   6    5.53    1.43 
 -11   6   6    9.97    1.05 
 -10   6   6    0.68    0.68 
  -9   6   6    6.38    0.87 
  -8   6   6    6.20    1.04 
  -7   6   6    4.06    0.95 
  -6   6   6    7.39    0.94 
  -5   6   6   10.38    1.11 
  -4   6   6   26.15    1.57 
  -3   6   6   36.46    1.73 
  -2   6   6    6.99    1.01 
  -1   6   6    4.48    0.82 
   0   6   6   15.69    1.22 
   1   6   6    7.19    0.92 
   2   6   6   46.54    1.96 
   3   6   6  118.25    3.31 
   4   6   6   33.26    1.78 
   5   6   6   14.24    1.30 
   6   6   6   13.16    1.29 
   7   6   6   17.76    1.40 
 -14   7   6    1.63    1.60 
 -13   7   6    3.94    1.57 
 -12   7   6    2.71    1.30 
 -11   7   6    0.76    1.28 
 -10   7   6   56.43    2.10 
  -9   7   6    9.29    1.24 
  -8   7   6   52.15    2.39 
  -7   7   6   14.40    1.31 
  -6   7   6   14.09    1.32 
  -5   7   6    0.09    0.70 
  -4   7   6   70.13    2.74 
  -3   7   6   17.90    1.48 
  -2   7   6   20.73    1.51 
  -1   7   6    9.50    1.16 
   0   7   6  167.17    3.99 
   1   7   6   10.56    1.23 
   2   7   6   12.34    1.25 
   3   7   6    4.94    1.02 
   4   7   6    0.84    0.76 
   5   7   6   -0.31    0.70 
   6   7   6   69.18    2.74 
   7   7   6    5.00    1.06 
 -13   8   6    4.81    1.75 
 -12   8   6    3.57    1.54 
 -11   8   6    2.03    1.39 
 -10   8   6    6.84    1.05 
  -9   8   6    3.32    1.08 
  -8   8   6   22.33    1.97 
  -7   8   6    3.00    0.94 
  -6   8   6   21.41    1.75 
  -5   8   6   28.68    2.04 
  -4   8   6   70.50    2.85 
  -3   8   6    4.31    1.09 
  -2   8   6  102.74    3.35 
  -1   8   6    9.04    1.24 
   0   8   6    0.72    0.77 
   1   8   6   11.58    1.31 
   2   8   6   15.38    1.48 
   3   8   6   24.79    1.92 
   4   8   6   48.52    2.57 
   5   8   6    5.17    1.15 
   6   8   6   -0.44    0.84 
   7   8   6   24.56    1.94 
   8   8   6    1.56    1.12 
 -12   9   6    0.66    1.73 
 -11   9   6    7.85    1.97 
 -10   9   6    0.01    0.87 
  -9   9   6    8.51    1.52 
  -8   9   6    0.79    0.89 
  -7   9   6   17.59    1.71 
  -6   9   6    1.33    0.95 
  -5   9   6    0.07    0.90 
  -4   9   6   23.46    1.78 
  -3   9   6   29.80    2.21 
  -2   9   6    1.79    0.92 
  -1   9   6    5.23    1.16 
   0   9   6    6.44    1.17 
   1   9   6   27.83    2.03 
   2   9   6    0.45    0.84 
   3   9   6   -0.09    0.87 
   4   9   6   20.38    1.95 
   5   9   6    6.47    1.40 
   6   9   6   12.91    1.64 
   7   9   6    0.18    1.00 
   8   9   6    2.52    1.27 
  -9  10   6    1.74    1.35 
  -8  10   6    0.31    0.95 
  -7  10   6    0.67    0.96 
  -6  10   6   -0.03    1.02 
  -5  10   6    5.19    1.41 
  -4  10   6    0.05    0.83 
  -3  10   6    0.15    1.00 
  -2  10   6   24.32    2.03 
  -1  10   6    1.85    0.98 
   0  10   6    5.02    1.22 
   1  10   6    2.46    1.07 
   2  10   6   16.79    1.78 
   3  10   6   15.31    1.78 
   4  10   6   16.46    1.94 
   5  10   6   -0.27    1.09 
   6  10   6   18.04    2.08 
   7  10   6    3.83    1.38 
   8  10   6   -0.22    1.20 
  -9  11   6    2.42    1.48 
  -8  11   6    0.05    1.03 
  -7  11   6    4.74    1.41 
  -6  11   6   16.14    2.01 
  -5  11   6    0.68    1.07 
  -4  11   6    6.04    1.34 
  -3  11   6    6.24    1.60 
  -2  11   6   -1.15    0.88 
  -1  11   6    0.75    0.96 
   0  11   6    8.44    1.53 
   1  11   6    4.30    1.30 
   2  11   6    0.23    1.06 
   3  11   6    2.33    1.24 
   4  11   6    7.61    1.60 
   5  11   6    0.13    1.19 
   6  11   6    6.72    1.84 
   7  11   6    0.13    1.45 
   8  11   6    8.13    1.98 
  -7  12   6    4.19    1.48 
  -6  12   6    3.15    1.38 
  -5  12   6   11.39    1.98 
  -4  12   6    0.72    1.08 
  -3  12   6    1.31    1.26 
  -2  12   6    7.73    1.59 
  -1  12   6    5.68    1.46 
   0  12   6    6.26    1.66 
   1  12   6    3.26    1.43 
   2  12   6    0.33    1.22 
   3  12   6    8.41    1.83 
   4  12   6    6.94    1.85 
   5  12   6    0.23    1.39 
  -5 -12   7   -0.65    1.22 
  -4 -12   7    2.61    1.41 
  -3 -12   7    4.26    1.57 
  -2 -12   7    4.64    1.63 
  -1 -12   7   -0.06    1.10 
   0 -12   7   -0.09    1.27 
   1 -12   7    3.78    1.46 
  -8 -11   7    0.37    1.04 
  -7 -11   7    8.82    1.62 
  -6 -11   7    0.65    1.10 
  -5 -11   7    4.87    1.45 
  -4 -11   7    4.24    1.42 
  -3 -11   7    0.72    1.00 
  -2 -11   7    8.92    1.72 
  -1 -11   7   -0.27    1.05 
   0 -11   7    5.15    1.37 
   1 -11   7    4.15    1.31 
   2 -11   7    2.21    1.23 
 -11 -10   7    0.82    1.06 
 -10 -10   7    0.23    1.05 
  -9 -10   7    1.01    1.01 
  -8 -10   7    0.43    0.90 
  -7 -10   7    0.31    0.89 
  -6 -10   7    0.72    0.91 
  -5 -10   7    4.79    1.29 
  -4 -10   7   -0.05    0.83 
  -3 -10   7    7.34    1.41 
  -2 -10   7    5.89    1.36 
  -1 -10   7    1.68    0.95 
   0 -10   7    9.53    1.55 
   1 -10   7    0.64    0.89 
   2 -10   7    1.42    0.95 
 -13  -9   7   -0.15    1.06 
 -12  -9   7    1.10    1.10 
 -11  -9   7    0.77    1.00 
 -10  -9   7    1.73    1.08 
  -9  -9   7    0.63    0.90 
  -8  -9   7    3.84    1.18 
  -7  -9   7    2.61    1.09 
  -6  -9   7    7.84    1.44 
  -5  -9   7   10.44    1.57 
  -4  -9   7   22.47    2.04 
  -3  -9   7    1.97    1.00 
  -2  -9   7    1.50    0.91 
  -1  -9   7    1.14    0.89 
   0  -9   7   10.98    1.49 
   1  -9   7    5.49    1.17 
   2  -9   7   13.73    1.68 
   3  -9   7   11.20    1.47 
 -14  -8   7    0.09    1.01 
 -13  -8   7    2.17    1.18 
 -12  -8   7    2.89    1.11 
 -11  -8   7    0.37    0.89 
 -10  -8   7    2.84    1.07 
  -9  -8   7    5.26    1.19 
  -8  -8   7    1.16    0.91 
  -7  -8   7    3.07    0.99 
  -6  -8   7    0.35    0.76 
  -5  -8   7   21.90    1.93 
  -4  -8   7    5.76    1.17 
  -3  -8   7    2.56    0.97 
  -2  -8   7    0.80    0.77 
  -1  -8   7    4.26    1.04 
   0  -8   7    1.04    0.82 
   1  -8   7    6.90    1.18 
   2  -8   7   15.17    1.54 
   3  -8   7    1.80    0.80 
 -14  -7   7   -0.51    0.85 
 -12  -7   7    2.37    1.02 
 -11  -7   7   15.01    1.72 
 -10  -7   7    0.55    0.82 
  -9  -7   7    2.44    0.98 
  -8  -7   7    8.86    1.37 
  -7  -7   7   29.14    2.11 
  -6  -7   7    0.82    0.82 
  -5  -7   7    3.57    0.94 
  -4  -7   7    6.92    1.14 
  -3  -7   7   23.30    1.78 
  -2  -7   7   15.37    1.50 
  -1  -7   7    6.99    1.12 
   0  -7   7    0.13    0.61 
   1  -7   7    4.75    0.91 
   2  -7   7   18.81    1.58 
   3  -7   7    0.05    0.52 
 -14  -6   7    4.35    1.25 
 -13  -6   7    0.16    0.91 
 -12  -6   7   -0.62    0.72 
 -11  -6   7    1.26    0.96 
 -10  -6   7   16.93    1.67 
  -9  -6   7   -0.14    0.76 
  -8  -6   7    2.19    0.91 
  -7  -6   7    1.52    0.70 
  -6  -6   7   -0.34    0.61 
  -5  -6   7   22.39    1.69 
  -4  -6   7  116.79    3.61 
  -3  -6   7   21.34    1.65 
  -2  -6   7    1.45    0.66 
  -1  -6   7    9.45    1.08 
   0  -6   7    1.31    0.65 
   1  -6   7   57.42    2.44 
   2  -6   7   18.94    1.51 
   3  -6   7    0.59    0.68 
 -14  -5   7   -0.83    0.85 
 -13  -5   7    4.42    1.11 
 -12  -5   7    5.93    1.19 
 -11  -5   7   10.87    1.42 
 -10  -5   7    2.31    0.87 
  -9  -5   7    0.39    0.77 
  -8  -5   7   22.29    1.66 
  -7  -5   7   12.24    1.27 
  -6  -5   7    0.84    0.43 
  -5  -5   7    0.57    0.43 
  -4  -5   7   68.45    2.59 
  -3  -5   7    2.91    0.72 
  -2  -5   7   59.75    2.37 
  -1  -5   7    6.43    0.89 
   0  -5   7   66.58    2.36 
   1  -5   7   78.02    2.48 
   2  -5   7    0.78    0.55 
   3  -5   7   39.41    1.76 
   4  -5   7   57.60    2.03 
 -14  -4   7    1.48    0.95 
 -13  -4   7    0.30    0.82 
 -12  -4   7    0.62    0.84 
 -11  -4   7   62.75    2.74 
 -10  -4   7    4.05    0.97 
  -9  -4   7    3.59    0.88 
  -8  -4   7   17.17    0.87 
  -7  -4   7    0.64    0.35 
  -6  -4   7    0.25    0.35 
  -5  -4   7   40.20    1.20 
  -4  -4   7    3.73    0.51 
  -3  -4   7   54.83    2.09 
  -2  -4   7  162.67    3.48 
  -1  -4   7    0.50    0.52 
   0  -4   7   97.80    2.55 
   2  -4   7   16.34    1.06 
   3  -4   7  295.80    4.38 
   4  -4   7   18.65    1.12 
 -13  -3   7   28.70    2.07 
 -12  -3   7    1.82    0.89 
 -11  -3   7    5.63    0.69 
 -10  -3   7    8.53    0.73 
  -9  -3   7   16.89    0.87 
  -8  -3   7    4.81    0.52 
  -7  -3   7   24.74    0.91 
  -6  -3   7    3.86    0.43 
  -5  -3   7   33.39    0.94 
  -4  -3   7   10.96    0.58 
  -3  -3   7   25.80    1.46 
  -2  -3   7    0.16    0.45 
  -1  -3   7   96.25    2.40 
   0  -3   7  137.14    2.81 
   1  -3   7   42.70    1.50 
   2  -3   7    6.34    0.68 
   3  -3   7  153.31    2.64 
   4  -3   7   10.43    0.75 
 -13  -2   7    0.54    0.55 
 -12  -2   7   16.36    0.98 
 -11  -2   7    0.09    0.34 
 -10  -2   7    0.44    0.44 
  -9  -2   7   12.47    0.76 
  -8  -2   7    4.72    0.52 
  -7  -2   7   45.62    1.39 
  -6  -2   7   71.19    2.06 
  -5  -2   7  263.06    3.32 
  -4  -2   7    7.71    0.38 
  -3  -2   7    5.70    0.73 
  -2  -2   7  111.94    2.50 
  -1  -2   7   14.51    0.97 
   0  -2   7   44.60    1.55 
   1  -2   7    4.79    0.58 
   2  -2   7    1.25    0.45 
   3  -2   7    1.11    0.43 
   4  -2   7   55.27    1.20 
 -15  -1   7    0.28    0.76 
 -14  -1   7    5.39    1.01 
 -13  -1   7    6.36    0.73 
 -12  -1   7   10.14    0.91 
 -11  -1   7   51.69    1.56 
 -10  -1   7   15.08    1.30 
  -9  -1   7   12.23    0.72 
  -8  -1   7   29.79    0.97 
  -7  -1   7   60.75    1.25 
  -6  -1   7   70.54    1.26 
  -5  -1   7   10.03    0.48 
  -4  -1   7  157.88    1.71 
  -3  -1   7    6.36    0.72 
  -2  -1   7   -0.21    0.39 
  -1  -1   7  134.79    2.50 
   1  -1   7   41.22    1.27 
   2  -1   7  233.57    2.90 
   3  -1   7   41.32    1.07 
   4  -1   7  262.32    2.59 
 -16   0   7    0.42    0.91 
 -15   0   7    2.48    1.03 
 -14   0   7   -0.05    0.74 
 -13   0   7   15.19    0.98 
 -12   0   7    0.32    0.55 
 -11   0   7  210.12    3.07 
 -10   0   7   -0.50    0.51 
  -9   0   7    1.47    0.36 
  -8   0   7   -0.32    0.35 
  -7   0   7   67.11    1.39 
  -6   0   7    0.44    0.41 
  -5   0   7  210.88    2.71 
  -4   0   7    0.06    0.26 
  -3   0   7    7.48    0.74 
  -2   0   7   -0.01    0.45 
  -1   0   7   15.98    0.90 
   0   0   7    0.26    0.39 
   1   0   7   21.20    0.92 
   2   0   7   -0.35    0.41 
   3   0   7  451.73    4.07 
   4   0   7    0.11    0.37 
 -17   1   7    0.52    1.06 
 -16   1   7    0.06    0.87 
 -15   1   7    0.40    0.87 
 -14   1   7    4.34    1.03 
 -13   1   7    6.58    0.83 
 -12   1   7    9.34    0.88 
 -11   1   7   56.62    1.69 
 -10   1   7   21.09    1.04 
  -9   1   7   13.31    0.83 
  -8   1   7   27.08    1.94 
  -7   1   7   52.35    5.21 
  -6   1   7   65.37    1.89 
  -5   1   7   11.77    0.68 
  -4   1   7  143.67    2.73 
  -3   1   7    4.95    0.65 
  -2   1   7    0.42    0.43 
  -1   1   7  132.90    2.31 
   0   1   7  130.19    2.22 
   1   1   7   20.12    0.84 
   2   1   7  201.95    2.57 
   3   1   7   32.83    0.96 
   4   1   7  241.67    2.63 
   5   1   7    0.93    0.35 
 -17   2   7    1.93    1.23 
 -16   2   7    1.04    1.02 
 -15   2   7   10.61    1.47 
 -14   2   7   16.25    1.78 
 -13   2   7    0.82    0.96 
 -12   2   7   18.15    1.11 
 -11   2   7    0.44    0.59 
 -10   2   7    0.71    0.58 
  -9   2   7   13.70    0.93 
  -8   2   7    5.14    0.63 
  -7   2   7   43.91    1.27 
  -6   2   7   64.31    2.02 
  -5   2   7  277.72    4.18 
  -4   2   7    9.03    0.84 
  -3   2   7    5.60    0.68 
  -2   2   7  106.07    2.16 
  -1   2   7   12.40    0.78 
   0   2   7   58.14    1.66 
   1   2   7    0.72    0.35 
   2   2   7    1.00    0.36 
   3   2   7    1.91    0.46 
   4   2   7   55.32    1.44 
   5   2   7    7.39    0.58 
 -17   3   7    3.68    1.41 
 -16   3   7    0.53    1.15 
 -15   3   7    1.08    1.19 
 -14   3   7    0.04    0.90 
 -13   3   7   32.68    2.25 
 -12   3   7    2.50    0.73 
 -11   3   7    7.96    0.87 
 -10   3   7    8.53    0.90 
  -9   3   7   15.80    0.93 
  -8   3   7    5.19    0.67 
  -7   3   7   24.32    1.42 
  -6   3   7    5.44    0.81 
  -5   3   7   33.12    1.48 
  -4   3   7    8.89    0.76 
  -3   3   7   20.06    1.09 
  -2   3   7    0.35    0.46 
  -1   3   7   89.50    2.07 
   0   3   7  133.19    2.58 
   1   3   7   41.92    1.46 
   2   3   7    5.23    0.57 
   3   3   7   69.16    1.84 
   4   3   7   13.25    0.83 
   5   3   7   12.56    0.84 
   6   3   7   35.13    1.27 
 -17   4   7    0.97    1.38 
 -16   4   7    3.27    1.43 
 -15   4   7    3.88    1.33 
 -14   4   7    1.83    1.14 
 -13   4   7    0.03    1.06 
 -12   4   7    0.41    0.73 
 -11   4   7   73.52    2.09 
 -10   4   7    4.00    0.70 
  -9   4   7    3.64    0.68 
  -8   4   7   15.58    1.01 
  -7   4   7    0.91    0.58 
  -6   4   7   -0.09    0.50 
  -5   4   7   35.98    1.58 
  -4   4   7    3.53    0.76 
  -3   4   7   53.83    1.81 
  -2   4   7  163.81    3.13 
  -1   4   7    0.05    0.50 
   0   4   7   90.85    2.23 
   1   4   7  181.07    3.31 
   2   4   7   17.10    1.02 
   3   4   7  274.80    4.06 
   4   4   7    4.06    0.56 
   5   4   7  155.53    2.98 
   6   4   7   31.98    1.42 
 -16   5   7   -0.26    1.25 
 -15   5   7    1.22    1.35 
 -14   5   7    1.15    1.28 
 -13   5   7    5.98    1.49 
 -12   5   7    9.59    1.62 
 -11   5   7   11.75    1.02 
 -10   5   7    2.03    0.70 
  -9   5   7   -0.02    0.64 
  -8   5   7   32.37    1.80 
  -7   5   7   14.28    1.24 
  -6   5   7    0.81    0.61 
  -5   5   7    0.51    0.54 
  -4   5   7   74.53    2.35 
  -3   5   7    4.13    0.77 
  -2   5   7   64.32    2.27 
  -1   5   7    5.65    0.78 
   0   5   7   74.86    2.45 
   1   5   7   74.35    2.21 
   2   5   7    0.58    0.65 
   3   5   7   36.48    1.60 
   4   5   7   53.86    2.00 
   5   5   7    0.19    0.58 
   6   5   7    0.16    0.61 
 -15   6   7    1.12    1.57 
 -14   6   7    6.30    1.73 
 -13   6   7   -0.15    1.31 
 -12   6   7   -0.26    1.06 
 -11   6   7    0.90    0.78 
 -10   6   7   21.21    1.34 
  -9   6   7    0.49    0.79 
  -8   6   7    2.48    0.84 
  -7   6   7    1.38    0.72 
  -6   6   7   -0.44    0.60 
  -5   6   7   27.13    1.63 
  -4   6   7  143.14    3.67 
  -3   6   7   24.41    1.58 
  -2   6   7    0.51    0.57 
  -1   6   7   11.10    1.21 
   0   6   7    1.28    0.63 
   1   6   7   50.39    2.09 
   2   6   7   15.40    1.27 
   3   6   7    0.08    0.60 
   4   6   7    2.69    0.76 
   5   6   7    8.45    1.08 
   6   6   7   38.12    2.06 
   7   6   7   15.49    1.36 
 -14   7   7   -0.36    1.51 
 -13   7   7    1.30    1.32 
 -11   7   7   23.87    1.55 
 -10   7   7    0.37    0.72 
  -9   7   7    3.38    1.01 
  -8   7   7   11.50    1.31 
  -7   7   7   39.42    2.27 
  -6   7   7    0.75    0.82 
  -5   7   7    4.27    0.94 
  -4   7   7   10.80    1.28 
  -3   7   7   26.57    1.73 
  -2   7   7   15.57    1.39 
  -1   7   7    7.27    1.01 
   0   7   7    1.00    0.71 
   1   7   7    5.27    0.92 
   2   7   7   17.81    1.43 
   3   7   7    6.68    1.05 
   4   7   7    1.77    0.85 
   5   7   7    3.80    1.02 
   6   7   7   42.59    2.34 
   7   7   7   13.50    1.51 
 -13   8   7    3.60    1.57 
 -12   8   7    4.18    1.74 
 -11   8   7    0.42    1.30 
 -10   8   7    4.70    0.98 
  -9   8   7    9.04    1.35 
  -8   8   7    1.73    0.99 
  -7   8   7    3.31    0.94 
  -6   8   7    0.88    0.82 
  -5   8   7   28.02    2.01 
  -4   8   7    7.95    1.27 
  -3   8   7    3.05    0.89 
  -2   8   7    1.23    0.96 
  -1   8   7    4.33    0.99 
   0   8   7    2.14    0.91 
   1   8   7    7.40    1.14 
   2   8   7   16.36    1.49 
   3   8   7    1.19    0.86 
   4   8   7   29.35    1.95 
   5   8   7    5.75    1.16 
   6   8   7   24.66    2.06 
   7   8   7    7.34    1.50 
 -12   9   7    2.29    1.80 
 -11   9   7    1.39    1.58 
 -10   9   7    2.48    1.19 
  -9   9   7    0.00    0.94 
  -8   9   7    7.15    1.48 
  -7   9   7    3.50    1.10 
  -6   9   7    8.84    1.38 
  -5   9   7   12.61    1.57 
  -4   9   7   31.17    2.24 
  -3   9   7    2.24    0.87 
  -2   9   7    2.23    1.08 
  -1   9   7    1.54    0.87 
   0   9   7   12.64    1.53 
   1   9   7    6.22    1.21 
   2   9   7   14.31    1.56 
   3   9   7   14.34    1.63 
   4   9   7   10.30    1.46 
   5   9   7    0.60    0.91 
   6   9   7   -0.10    1.05 
   7   9   7    1.31    1.24 
 -10  10   7    0.79    1.12 
  -9  10   7    0.82    1.24 
  -8  10   7   -0.15    0.90 
  -7  10   7    0.06    1.01 
  -6  10   7    0.41    1.08 
  -5  10   7    6.54    1.41 
  -4  10   7    0.04    0.88 
  -3  10   7    8.50    1.35 
  -2  10   7    8.47    1.55 
  -1  10   7    1.85    1.03 
   0  10   7   12.22    1.63 
   1  10   7    1.36    0.97 
   2  10   7    1.95    1.04 
   3  10   7   22.09    2.02 
   4  10   7    1.94    1.13 
   5  10   7    2.38    1.18 
   6  10   7    9.74    1.66 
   7  10   7    5.14    1.63 
  -9  11   7    1.69    1.43 
  -8  11   7    0.91    1.08 
  -7  11   7   15.92    1.94 
  -6  11   7   -0.05    1.17 
  -5  11   7    5.88    1.52 
  -4  11   7    4.87    1.33 
  -3  11   7    0.55    0.93 
  -2  11   7   12.39    1.89 
  -1  11   7   -0.57    0.89 
   0  11   7    7.29    1.52 
   1  11   7    5.11    1.43 
   2  11   7    1.57    1.08 
   3  11   7    5.02    1.39 
   4  11   7    0.69    1.23 
   5  11   7    2.60    1.43 
   6  11   7   -0.07    1.25 
   7  11   7    4.46    1.68 
  -6  12   7    1.74    1.43 
  -5  12   7    0.07    1.22 
  -4  12   7    3.04    1.41 
  -3  12   7    3.70    1.25 
  -2  12   7    5.91    1.71 
  -1  12   7    0.83    1.20 
   0  12   7   -0.50    1.20 
   1  12   7    4.31    1.53 
   2  12   7    0.99    1.41 
   3  12   7    3.94    1.58 
   4  12   7    3.21    1.54 
  -4 -12   8    0.67    1.32 
  -3 -12   8    6.90    1.79 
  -2 -12   8    6.73    1.76 
  -1 -12   8    1.14    1.33 
   0 -12   8   10.14    1.90 
   1 -12   8    1.81    1.50 
  -8 -11   8   -0.16    0.97 
  -7 -11   8    0.60    1.12 
  -6 -11   8    0.47    1.07 
  -5 -11   8    8.53    1.61 
  -4 -11   8   26.22    2.53 
  -3 -11   8    2.32    1.29 
  -2 -11   8    5.43    1.45 
  -1 -11   8    1.97    1.26 
   0 -11   8   -0.48    1.07 
   1 -11   8    0.57    1.00 
 -10 -10   8    0.74    0.96 
  -9 -10   8   -0.10    0.98 
  -8 -10   8    1.20    0.98 
  -7 -10   8    2.31    1.19 
  -6 -10   8   -0.08    0.95 
  -5 -10   8    0.10    1.00 
  -4 -10   8    0.75    0.92 
  -3 -10   8    0.98    0.96 
  -2 -10   8    0.61    0.98 
  -1 -10   8    0.60    0.97 
   0 -10   8   23.32    2.14 
   1 -10   8   -0.17    0.91 
   2 -10   8    3.36    1.19 
 -12  -9   8   -0.07    0.98 
 -11  -9   8   -0.21    0.90 
 -10  -9   8    0.22    0.87 
  -9  -9   8    2.80    1.10 
  -8  -9   8    0.45    0.86 
  -7  -9   8    1.56    0.99 
  -6  -9   8    0.34    0.86 
  -5  -9   8   12.71    1.73 
  -4  -9   8   25.30    2.23 
  -3  -9   8   13.41    1.66 
  -2  -9   8   17.53    1.87 
  -1  -9   8    4.85    1.16 
   0  -9   8   -0.08    0.75 
   1  -9   8    5.13    1.14 
   2  -9   8   12.93    1.64 
 -14  -8   8    0.04    0.95 
 -13  -8   8   -0.03    0.90 
 -12  -8   8    1.32    1.00 
 -11  -8   8    0.78    0.94 
 -10  -8   8    1.22    0.94 
  -9  -8   8    2.72    1.02 
  -8  -8   8    3.02    1.01 
  -7  -8   8    0.56    0.82 
  -6  -8   8    7.29    1.23 
  -5  -8   8    1.64    0.88 
  -4  -8   8    0.82    0.85 
  -3  -8   8   22.17    1.96 
  -2  -8   8    0.61    0.83 
  -1  -8   8    0.02    0.76 
   0  -8   8   41.32    2.48 
   1  -8   8    3.00    0.95 
   2  -8   8   -0.25    0.83 
 -15  -7   8    0.74    1.11 
 -14  -7   8    0.86    1.08 
 -13  -7   8   -0.11    0.93 
 -12  -7   8    0.40    0.89 
 -11  -7   8    5.16    1.23 
 -10  -7   8    1.03    0.88 
  -9  -7   8    0.47    0.82 
  -8  -7   8    7.92    1.32 
  -7  -7   8    5.35    1.15 
  -6  -7   8   25.98    2.06 
  -5  -7   8   14.68    1.62 
  -4  -7   8   79.37    3.24 
  -3  -7   8   90.60    3.40 
  -2  -7   8   57.10    2.68 
  -1  -7   8   27.86    1.95 
   0  -7   8    1.32    0.76 
   1  -7   8    1.23    0.75 
   2  -7   8   55.67    2.54 
   3  -7   8   23.40    1.72 
 -14  -6   8    2.80    1.16 
 -13  -6   8    3.19    1.16 
 -12  -6   8    6.57    1.31 
 -11  -6   8    5.78    1.17 
 -10  -6   8    0.53    0.75 
  -9  -6   8   13.81    1.50 
  -8  -6   8    3.34    0.94 
  -7  -6   8   22.68    1.76 
  -6  -6   8   27.45    1.90 
  -5  -6   8   21.53    1.67 
  -4  -6   8   24.28    1.80 
  -3  -6   8    0.04    0.63 
  -2  -6   8    1.19    0.71 
  -1  -6   8   11.75    1.22 
   0  -6   8   -0.16    0.56 
   1  -6   8    0.67    0.61 
   2  -6   8    0.26    0.36 
   3  -6   8    6.39    0.95 
 -14  -5   8    3.33    1.13 
 -13  -5   8    3.89    1.10 
 -12  -5   8    2.91    1.02 
 -11  -5   8   -0.02    0.75 
 -10  -5   8   11.20    1.37 
  -9  -5   8   18.69    1.62 
  -8  -5   8   13.04    1.35 
  -7  -5   8    0.08    0.64 
  -6  -5   8   12.45    1.29 
  -5  -5   8   51.27    2.29 
  -4  -5   8    0.50    0.62 
  -3  -5   8   33.11    1.84 
  -2  -5   8    0.64    0.59 
  -1  -5   8   54.35    2.27 
   0  -5   8    6.67    0.89 
   1  -5   8    3.12    0.69 
   2  -5   8  133.91    3.33 
   3  -5   8   67.62    2.28 
 -14  -4   8    0.83    1.00 
 -13  -4   8    6.45    1.23 
 -12  -4   8   21.56    1.85 
 -11  -4   8    0.73    0.88 
 -10  -4   8    2.50    0.86 
  -9  -4   8    1.41    0.77 
  -8  -4   8   69.17    2.75 
  -7  -4   8   -0.56    0.59 
  -6  -4   8   -0.03    0.55 
  -5  -4   8    1.19    0.66 
  -4  -4   8   20.96    1.46 
  -3  -4   8  168.23    3.81 
  -2  -4   8   25.25    1.47 
  -1  -4   8   -0.14    0.54 
   0  -4   8  156.63    3.38 
   1  -4   8    2.79    0.55 
   2  -4   8    2.91    0.64 
   3  -4   8   13.69    1.00 
 -14  -3   8    7.91    1.41 
 -13  -3   8    1.40    0.98 
 -12  -3   8    3.89    1.03 
 -11  -3   8    3.95    0.94 
 -10  -3   8    8.47    1.22 
  -9  -3   8    4.75    1.02 
  -8  -3   8   68.05    2.56 
  -7  -3   8   10.81    0.69 
  -6  -3   8   24.50    0.80 
  -5  -3   8   17.24    0.75 
  -4  -3   8  131.64    2.70 
  -3  -3   8  302.79    4.80 
  -2  -3   8   13.73    1.14 
  -1  -3   8    9.96    0.86 
   0  -3   8   93.34    2.41 
   1  -3   8    1.82    0.56 
   2  -3   8   71.26    1.92 
   3  -3   8  205.94    3.22 
 -14  -2   8   11.61    1.49 
 -13  -2   8   10.48    1.40 
 -12  -2   8   29.53    1.90 
 -11  -2   8   64.44    2.61 
 -10  -2   8   65.92    2.68 
  -9  -2   8    7.68    0.63 
  -8  -2   8    0.47    0.34 
  -7  -2   8   64.42    1.79 
  -6  -2   8   75.21    2.96 
  -5  -2   8   14.43    0.56 
  -4  -2   8   76.96    2.31 
  -3  -2   8   23.06    1.28 
  -2  -2   8    1.05    0.52 
  -1  -2   8    4.14    0.70 
   0  -2   8   64.05    1.88 
   1  -2   8    9.52    0.77 
   2  -2   8  199.75    3.14 
   3  -2   8   34.45    1.18 
 -14  -1   8    2.10    0.95 
 -13  -1   8    2.30    1.07 
 -12  -1   8    3.95    0.61 
 -11  -1   8   11.07    0.84 
 -10  -1   8    1.45    0.50 
  -9  -1   8   53.01    1.48 
  -8  -1   8    0.18    0.36 
  -7  -1   8  134.73    1.87 
  -6  -1   8    0.68    0.31 
  -5  -1   8    0.41    0.27 
  -4  -1   8  235.13    5.63 
  -3  -1   8  167.84    3.20 
  -2  -1   8   21.98    1.16 
  -1  -1   8  109.56    2.38 
   0  -1   8    6.05    0.59 
   1  -1   8   71.61    1.76 
   2  -1   8   13.40    0.81 
   3  -1   8  111.72    1.95 
   4  -1   8    6.86    0.53 
 -14   0   8   11.49    1.25 
 -13   0   8    0.10    0.58 
 -12   0   8   84.62    2.04 
 -11   0   8    0.27    0.54 
 -10   0   8   31.34    3.74 
  -9   0   8   -0.21    0.43 
  -8   0   8   41.58    1.18 
  -7   0   8    0.22    0.39 
  -6   0   8  496.92    3.95 
  -5   0   8    0.32    0.41 
  -4   0   8  285.82    2.69 
  -3   0   8   -0.05    0.48 
  -2   0   8   60.73    1.78 
  -1   0   8   -0.53    0.49 
   0   0   8   34.34    1.24 
   1   0   8    0.07    0.44 
   2   0   8    0.09    0.42 
   3   0   8   -0.02    0.47 
   4   0   8   12.48    0.66 
 -15   1   8    1.02    0.99 
 -14   1   8    2.78    0.97 
 -13   1   8    1.78    0.65 
 -12   1   8    6.04    0.80 
 -11   1   8   13.96    0.93 
 -10   1   8    1.82    0.59 
  -9   1   8   53.25    2.18 
  -8   1   8    0.04    0.46 
  -7   1   8  145.97    2.21 
  -6   1   8    1.03    0.43 
  -5   1   8   -0.03    0.58 
  -4   1   8  195.07    3.32 
  -3   1   8  183.02    3.13 
  -2   1   8   24.35    1.13 
  -1   1   8  109.77    2.21 
   0   1   8   26.93    1.09 
   1   1   8   38.56    1.25 
   2   1   8   11.34    0.72 
   3   1   8   93.92    1.74 
   4   1   8    6.97    0.61 
 -16   2   8    3.29    1.21 
 -15   2   8    6.81    1.39 
 -14   2   8   14.15    1.66 
 -13   2   8   13.83    1.07 
 -12   2   8   38.66    1.53 
 -11   2   8   76.06    1.95 
 -10   2   8   51.33    1.61 
  -9   2   8    9.08    0.85 
  -8   2   8    0.04    0.46 
  -7   2   8   56.87    2.01 
  -6   2   8   64.28    2.10 
  -5   2   8   12.93    0.98 
  -4   2   8   88.27    2.27 
  -3   2   8   26.69    1.32 
  -2   2   8    0.73    0.49 
  -1   2   8    4.34    0.59 
   0   2   8   96.12    2.01 
   1   2   8    7.63    0.65 
   2   2   8  168.52    2.74 
   3   2   8   27.77    1.02 
   4   2   8   39.72    1.21 
   5   2   8   63.78    1.49 
 -17   3   8    0.91    1.24 
 -16   3   8   13.74    1.93 
 -15   3   8    0.00    1.23 
 -14   3   8    8.86    1.37 
 -13   3   8    1.17    1.09 
 -12   3   8    5.82    0.84 
 -11   3   8    4.93    0.78 
 -10   3   8    8.86    0.90 
  -9   3   8    5.53    0.70 
  -8   3   8   75.04    1.83 
  -7   3   8   11.29    1.03 
  -6   3   8   25.66    1.41 
  -5   3   8   15.45    1.11 
  -4   3   8  118.37    2.74 
  -3   3   8  297.38    4.23 
  -2   3   8   10.66    0.84 
  -1   3   8   12.14    0.98 
   0   3   8   85.81    2.05 
   1   3   8    0.88    0.51 
   2   3   8   64.38    1.77 
   3   3   8  169.82    2.95 
   4   3   8   45.97    1.42 
   5   3   8    1.13    0.47 
 -17   4   8    1.26    1.54 
 -16   4   8    1.63    1.28 
 -15   4   8    0.41    1.26 
 -14   4   8    1.69    1.12 
 -13   4   8    8.26    1.52 
 -12   4   8   28.45    1.51 
 -11   4   8    1.19    0.73 
 -10   4   8    1.91    0.64 
  -9   4   8    1.09    0.57 
  -8   4   8   79.24    2.64 
  -7   4   8   -0.24    0.65 
  -6   4   8    0.65    0.62 
  -5   4   8    1.55    0.63 
  -4   4   8   18.86    1.19 
  -3   4   8  187.07    3.74 
  -2   4   8   23.66    1.26 
  -1   4   8   -0.11    0.52 
   0   4   8  154.32    3.09 
   1   4   8   26.15    1.31 
   2   4   8    1.23    0.49 
   3   4   8   13.93    1.13 
   5   4   8   29.01    1.34 
 -16   5   8   -0.07    1.33 
 -15   5   8    0.82    1.38 
 -14   5   8    6.06    1.68 
 -13   5   8    6.97    1.74 
 -12   5   8    4.11    0.86 
 -11   5   8   -0.48    0.59 
 -10   5   8   15.19    1.16 
  -9   5   8   27.10    1.38 
  -8   5   8   17.13    1.39 
  -7   5   8    0.03    0.72 
  -6   5   8   14.45    1.20 
  -5   5   8   66.44    2.50 
  -4   5   8    0.03    0.51 
  -3   5   8   28.77    1.50 
  -2   5   8    0.62    0.65 
  -1   5   8   54.09    2.08 
   0   5   8    6.33    0.80 
   1   5   8    3.63    0.72 
   2   5   8  130.96    3.13 
   3   5   8   59.32    2.03 
   4   5   8    5.88    0.90 
   5   5   8    1.13    0.59 
   6   5   8    5.17    0.94 
 -15   6   8   -0.61    1.39 
 -14   6   8    3.68    1.70 
 -13   6   8    4.39    1.53 
 -12   6   8    8.67    1.07 
 -11   6   8    9.19    1.04 
 -10   6   8    1.32    0.80 
  -9   6   8   17.08    1.52 
  -8   6   8    3.92    0.99 
  -7   6   8   31.85    1.84 
  -6   6   8   37.41    2.03 
  -5   6   8   24.77    1.55 
  -4   6   8   25.62    1.59 
  -3   6   8    0.32    0.65 
  -2   6   8    0.51    0.55 
  -1   6   8    9.57    1.02 
   0   6   8    0.20    0.59 
   1   6   8    0.64    0.66 
   2   6   8    4.04    0.81 
   3   6   8    7.34    1.00 
   4   6   8    0.22    0.72 
   5   6   8   43.77    2.02 
   6   6   8   -0.11    0.66 
 -15   7   8   -0.07    1.70 
 -14   7   8    3.20    1.78 
 -13   7   8    0.73    1.40 
 -12   7   8   -0.40    1.21 
 -11   7   8    7.21    1.04 
 -10   7   8    0.70    0.74 
  -9   7   8    0.54    0.93 
  -8   7   8   12.69    1.43 
  -7   7   8    5.35    1.01 
  -6   7   8   27.27    1.77 
  -5   7   8   17.29    1.49 
  -4   7   8  101.56    3.39 
  -3   7   8  115.47    3.51 
  -2   7   8   64.74    2.60 
  -1   7   8   26.65    1.61 
   0   7   8    0.94    0.82 
   1   7   8    0.89    0.72 
   2   7   8   57.82    2.48 
   3   7   8   22.80    1.62 
   4   7   8    9.94    1.18 
   5   7   8   -0.07    0.74 
   6   7   8   21.51    1.71 
 -13   8   8    1.74    1.48 
 -12   8   8    1.00    1.54 
 -11   8   8    1.22    0.90 
 -10   8   8    1.72    1.07 
  -9   8   8    4.47    1.12 
  -8   8   8    3.34    1.09 
  -7   8   8    0.13    0.96 
  -6   8   8    9.91    1.36 
  -5   8   8    1.19    0.86 
  -4   8   8    1.07    0.86 
  -3   8   8   27.92    2.04 
  -2   8   8    0.58    0.73 
  -1   8   8   -0.02    0.86 
   0   8   8   40.31    2.21 
   1   8   8    2.73    0.92 
   2   8   8    0.65    0.82 
   3   8   8    3.97    1.08 
   4   8   8    3.62    1.05 
   5   8   8    2.70    0.97 
   6   8   8   14.43    1.63 
 -12   9   8    0.56    1.83 
 -11   9   8   -0.18    0.89 
 -10   9   8   -0.90    0.91 
  -9   9   8    3.09    1.14 
  -8   9   8    0.78    1.06 
  -7   9   8    1.93    0.97 
  -6   9   8    0.14    0.84 
  -5   9   8   16.24    1.77 
  -4   9   8   33.32    2.32 
  -3   9   8   17.62    1.78 
  -2   9   8   15.53    1.54 
  -1   9   8    5.38    1.34 
   0   9   8   -0.05    0.78 
   1   9   8    6.28    1.16 
   2   9   8   12.82    1.58 
   3   9   8   10.61    1.44 
   4   9   8   15.01    1.63 
   5   9   8   -0.22    0.88 
   6   9   8   13.06    1.65 
   7   9   8    2.25    1.23 
 -10  10   8    2.33    1.20 
  -9  10   8   -0.19    0.96 
  -8  10   8    0.04    1.28 
  -7  10   8    2.33    1.14 
  -6  10   8    0.32    0.94 
  -5  10   8   -0.50    0.96 
  -4  10   8   -0.08    0.97 
  -3  10   8    0.31    0.91 
  -2  10   8    0.17    0.82 
  -1  10   8    0.50    1.14 
   0  10   8   27.68    2.23 
   1  10   8   -0.03    0.93 
   2  10   8    5.15    1.37 
   3  10   8    2.22    1.11 
   4  10   8    2.74    1.17 
   5  10   8   14.40    1.80 
   6  10   8   17.68    2.00 
   7  10   8    4.77    1.53 
  -9  11   8   -1.63    0.92 
  -8  11   8    0.74    1.10 
  -7  11   8   -0.08    1.11 
  -5  11   8   12.46    1.89 
  -4  11   8   36.75    2.87 
  -3  11   8    2.64    1.20 
  -2  11   8    7.30    1.40 
  -1  11   8    2.21    1.43 
   0  11   8    0.37    1.06 
   1  11   8    0.79    1.11 
   2  11   8    0.51    1.10 
   3  11   8    1.85    1.24 
   4  11   8    2.69    1.39 
   5  11   8    0.44    1.24 
   6  11   8    5.40    1.59 
   7  11   8    0.85    1.39 
  -4  12   8   -0.17    1.22 
  -3  12   8   10.06    1.92 
  -2  12   8    7.25    1.51 
  -1  12   8   -0.11    1.44 
   0  12   8   14.71    2.32 
   1  12   8    3.23    1.56 
   2  12   8    0.78    1.41 
  -3 -12   9    0.60    1.26 
  -2 -12   9    0.75    1.37 
  -1 -12   9    3.70    1.62 
   0 -12   9    2.85    1.49 
  -7 -11   9    0.80    1.25 
  -6 -11   9    1.13    1.13 
  -5 -11   9    9.87    1.77 
  -4 -11   9    3.25    1.35 
  -3 -11   9    2.24    1.25 
  -2 -11   9    4.78    1.49 
  -1 -11   9    0.95    1.10 
   0 -11   9    3.46    1.35 
   1 -11   9   -0.58    0.98 
 -10 -10   9    2.92    1.27 
  -9 -10   9    0.41    1.02 
  -8 -10   9    0.56    0.98 
  -7 -10   9    3.70    1.33 
  -6 -10   9    0.71    1.05 
  -5 -10   9   -0.13    0.97 
  -4 -10   9    0.83    1.01 
  -3 -10   9    2.25    1.12 
  -2 -10   9    1.42    1.00 
  -1 -10   9    4.05    1.19 
   0 -10   9    1.58    1.05 
   1 -10   9    3.33    1.20 
 -12  -9   9   -0.19    0.99 
 -11  -9   9   -0.03    0.90 
 -10  -9   9    3.08    1.19 
  -9  -9   9    0.06    0.82 
  -8  -9   9    0.39    0.84 
  -7  -9   9    3.67    1.15 
  -6  -9   9    0.20    0.86 
  -5  -9   9   -0.03    0.85 
  -4  -9   9    4.76    1.23 
  -3  -9   9    4.23    1.17 
  -2  -9   9    9.98    1.48 
  -1  -9   9    6.50    1.35 
   0  -9   9    3.15    1.04 
   1  -9   9    4.43    1.17 
   2  -9   9    1.39    0.92 
 -13  -8   9    2.65    1.19 
 -12  -8   9    2.05    1.12 
 -11  -8   9    0.99    0.92 
 -10  -8   9    0.23    0.80 
  -9  -8   9    2.02    0.97 
  -8  -8   9   14.70    1.70 
  -7  -8   9    8.93    1.41 
  -6  -8   9    9.15    1.38 
  -5  -8   9   -0.21    0.73 
  -4  -8   9   26.56    2.07 
  -3  -8   9    3.26    1.04 
  -2  -8   9    5.92    1.25 
  -1  -8   9   10.00    1.45 
   0  -8   9   47.87    2.65 
   1  -8   9   52.28    2.71 
   2  -8   9    2.47    1.01 
 -15  -7   9   -0.13    1.06 
 -14  -7   9    0.68    1.17 
 -13  -7   9    0.59    1.01 
 -12  -7   9    0.51    0.88 
 -11  -7   9    9.06    1.44 
 -10  -7   9   -1.15    0.69 
  -9  -7   9    2.73    1.00 
  -8  -7   9    2.08    0.96 
  -7  -7   9   18.38    1.76 
  -6  -7   9    0.28    0.75 
  -5  -7   9  117.58    4.09 
  -4  -7   9   12.57    1.54 
  -3  -7   9   30.82    2.11 
  -2  -7   9    1.15    0.83 
  -1  -7   9    3.15    0.91 
   0  -7   9    1.03    0.73 
   1  -7   9    3.11    0.92 
   2  -7   9    9.49    1.24 
 -15  -6   9   -0.05    0.99 
 -14  -6   9    0.54    1.02 
 -13  -6   9    1.62    1.00 
 -12  -6   9    4.40    1.18 
 -11  -6   9    0.83    0.82 
 -10  -6   9    2.34    0.92 
  -9  -6   9    0.20    0.77 
  -8  -6   9   38.27    2.36 
  -7  -6   9    0.83    0.82 
  -6  -6   9   11.15    1.33 
  -5  -6   9    9.30    1.23 
  -4  -6   9  113.55    3.64 
  -3  -6   9    3.36    0.95 
  -2  -6   9   10.16    1.21 
  -1  -6   9    1.98    0.79 
   0  -6   9    8.77    1.09 
   1  -6   9    0.41    0.66 
   2  -6   9    2.63    0.74 
 -15  -5   9    0.50    1.10 
 -14  -5   9    5.64    1.30 
 -13  -5   9    0.71    0.87 
 -12  -5   9   -0.21    0.79 
 -11  -5   9    1.38    0.89 
 -10  -5   9    7.70    1.27 
  -9  -5   9   40.93    2.34 
  -8  -5   9   11.16    1.32 
  -7  -5   9   18.37    1.58 
  -6  -5   9   28.85    1.88 
  -5  -5   9   27.99    1.83 
  -4  -5   9    5.36    0.96 
  -3  -5   9    1.54    0.69 
  -2  -5   9    8.93    1.10 
  -1  -5   9   37.20    1.88 
   0  -5   9    0.29    0.53 
   1  -5   9    0.49    0.45 
   2  -5   9   34.44    1.72 
   3  -5   9   67.50    2.38 
 -15  -4   9    6.95    1.43 
 -14  -4   9    1.23    1.08 
 -13  -4   9   12.73    1.56 
 -12  -4   9    3.02    1.10 
 -11  -4   9   36.36    2.26 
 -10  -4   9    0.81    0.81 
  -9  -4   9   13.42    1.38 
  -8  -4   9    4.47    0.94 
  -7  -4   9   50.97    2.26 
  -6  -4   9   13.57    1.25 
  -5  -4   9    3.40    0.80 
  -4  -4   9    8.65    1.04 
  -3  -4   9    3.54    0.81 
  -2  -4   9   25.37    1.54 
  -1  -4   9   20.92    1.35 
   0  -4   9    8.53    0.91 
   1  -4   9   24.84    1.36 
   2  -4   9    0.86    0.54 
   3  -4   9   59.08    1.93 
 -14  -3   9    0.66    1.01 
 -13  -3   9    9.83    1.40 
 -12  -3   9    0.65    0.80 
 -11  -3   9   56.25    2.83 
 -10  -3   9   37.77    2.18 
  -9  -3   9   -0.06    0.67 
  -8  -3   9    1.78    0.74 
  -7  -3   9    0.42    0.59 
  -6  -3   9   42.30    1.95 
  -5  -3   9   22.80    1.44 
  -4  -3   9   16.42    1.22 
  -3  -3   9   43.70    1.82 
  -2  -3   9   62.23    2.17 
  -1  -3   9   45.46    1.93 
   0  -3   9    6.22    0.73 
   1  -3   9    5.56    0.74 
   2  -3   9   40.93    1.55 
   3  -3   9  173.58    3.01 
 -14  -2   9    2.24    1.07 
 -13  -2   9    4.16    1.05 
 -12  -2   9    1.57    0.91 
 -11  -2   9   -0.03    0.84 
 -10  -2   9   37.17    2.27 
  -9  -2   9   14.67    1.39 
  -8  -2   9   21.37    1.54 
  -7  -2   9   30.67    1.71 
  -6  -2   9    0.40    0.54 
  -5  -2   9    9.06    1.00 
  -4  -2   9   15.84    1.21 
  -3  -2   9   36.51    1.68 
  -2  -2   9   10.32    0.95 
  -1  -2   9   41.33    1.62 
   0  -2   9    4.95    0.62 
   1  -2   9   39.16    1.60 
   2  -2   9   57.77    1.67 
   3  -2   9   13.46    0.83 
 -14  -1   9    4.53    1.26 
 -13  -1   9    2.45    1.07 
 -12  -1   9    1.68    0.87 
 -11  -1   9    3.68    0.99 
 -10  -1   9   47.70    2.32 
  -9  -1   9   43.05    1.23 
  -8  -1   9    0.05    0.36 
  -7  -1   9    6.13    0.50 
  -6  -1   9    2.26    0.35 
  -5  -1   9   15.58    0.52 
  -4  -1   9   37.71    1.70 
  -3  -1   9  101.88    2.62 
  -2  -1   9   22.63    1.24 
  -1  -1   9    7.11    0.79 
   0  -1   9    0.92    0.34 
   1  -1   9    1.12    0.50 
   2  -1   9    0.15    0.45 
   3  -1   9   71.69    1.69 
 -14   0   9   -0.13    0.86 
 -13   0   9    8.93    1.38 
 -12   0   9    0.64    0.83 
 -11   0   9   53.94    1.62 
 -10   0   9    0.19    0.54 
  -9   0   9   35.41    1.31 
  -8   0   9    0.04    0.39 
  -7   0   9   31.99    1.04 
  -6   0   9   -0.17    0.34 
  -5   0   9  113.46    2.29 
  -4   0   9    0.31    0.38 
  -3   0   9  147.89    2.99 
  -2   0   9    0.04    0.51 
  -1   0   9   13.97    0.99 
   0   0   9    0.19    0.48 
   1   0   9   27.29    1.18 
   2   0   9    0.08    0.49 
   3   0   9    6.12    0.62 
 -14   1   9    4.86    1.25 
 -13   1   9    1.69    0.65 
 -12   1   9    2.16    0.68 
 -11   1   9    3.08    0.59 
 -10   1   9   41.40    5.08 
  -9   1   9   48.15    1.46 
  -8   1   9   -0.31    0.47 
  -7   1   9    5.61    0.61 
  -6   1   9    2.12    0.50 
  -5   1   9   14.57    1.13 
  -4   1   9   40.27    1.65 
  -3   1   9  106.76    2.49 
  -2   1   9   23.14    1.19 
  -1   1   9    7.79    0.75 
   0   1   9    3.18    0.56 
   1   1   9    0.82    0.46 
   2   1   9    0.66    0.47 
   3   1   9   63.04    1.55 
   4   1   9   44.89    1.28 
 -14   2   9    1.52    1.06 
 -13   2   9    3.47    0.74 
 -12   2   9    1.69    0.68 
 -11   2   9    0.02    0.62 
 -10   2   9   38.43    1.45 
  -9   2   9   15.36    0.97 
  -8   2   9   21.29    1.46 
  -7   2   9   33.61    1.18 
  -6   2   9    0.06    0.57 
  -5   2   9   10.93    0.96 
  -4   2   9   16.87    1.13 
  -3   2   9   34.59    1.48 
  -2   2   9   11.27    0.93 
  -1   2   9   39.67    1.45 
   0   2   9   11.78    0.85 
   1   2   9   26.43    1.10 
   2   2   9   48.03    1.43 
   3   2   9   11.64    0.76 
   4   2   9   56.43    1.46 
 -16   3   9   -0.45    1.23 
 -15   3   9    3.11    1.26 
 -14   3   9    0.15    0.95 
 -13   3   9   11.74    1.07 
 -12   3   9    0.44    0.67 
 -11   3   9   66.45    2.04 
 -10   3   9   41.34    1.54 
  -9   3   9    0.25    0.58 
  -8   3   9    1.91    0.61 
  -7   3   9    0.42    0.63 
  -6   3   9   50.06    2.00 
  -5   3   9   27.73    1.52 
  -4   3   9   18.88    1.22 
  -3   3   9   44.56    1.68 
  -2   3   9   55.87    1.79 
  -1   3   9   34.24    1.39 
   0   3   9    7.15    0.84 
   1   3   9    4.37    0.60 
   2   3   9   31.98    1.29 
   3   3   9  157.50    2.77 
   4   3   9    8.05    0.80 
   5   3   9   39.76    1.44 
 -17   4   9    1.25    1.64 
 -16   4   9    0.32    1.21 
 -15   4   9   11.46    1.89 
 -14   4   9    0.77    1.08 
 -13   4   9   15.17    1.23 
 -12   4   9    4.12    0.90 
 -11   4   9   42.13    1.69 
 -10   4   9    0.13    0.66 
  -9   4   9   14.32    1.02 
  -8   4   9    4.90    0.97 
  -7   4   9   64.65    2.43 
  -6   4   9   16.72    1.29 
  -5   4   9    2.73    0.63 
  -4   4   9    8.02    0.90 
  -3   4   9    3.64    0.71 
  -2   4   9   25.13    1.46 
  -1   4   9   18.16    1.14 
   0   4   9    6.23    0.74 
   1   4   9   35.24    1.54 
   2   4   9    0.67    0.56 
   3   4   9   59.78    1.99 
   4   4   9    8.70    0.82 
   5   4   9   81.74    2.10 
 -16   5   9    1.01    1.51 
 -15   5   9   -1.53    1.29 
 -14   5   9   10.08    1.92 
 -13   5   9    0.46    1.31 
 -12   5   9    0.07    0.67 
 -11   5   9    1.83    0.71 
 -10   5   9    9.08    0.95 
  -9   5   9   49.70    2.36 
  -8   5   9   15.28    1.43 
  -7   5   9   25.79    1.67 
  -6   5   9   33.43    1.77 
  -5   5   9   29.25    1.62 
  -4   5   9    7.48    1.10 
  -3   5   9    1.48    0.62 
  -2   5   9    7.73    0.90 
  -1   5   9   39.81    1.79 
   0   5   9   -0.17    0.54 
   1   5   9    0.24    0.59 
   2   5   9   31.40    1.48 
   3   5   9   64.78    2.22 
   4   5   9    0.41    0.80 
   5   5   9    2.75    0.71 
 -15   6   9    0.87    1.57 
 -14   6   9    0.74    1.52 
 -13   6   9    1.21    1.37 
 -12   6   9    6.89    1.03 
 -11   6   9    0.73    0.75 
 -10   6   9    2.54    0.79 
  -9   6   9    0.94    0.82 
  -8   6   9   51.10    2.46 
  -7   6   9    0.89    0.81 
  -6   6   9   13.35    1.29 
  -5   6   9   12.98    1.47 
  -4   6   9  121.11    3.28 
  -3   6   9    3.96    0.88 
  -2   6   9   10.08    1.15 
  -1   6   9    1.83    0.74 
   0   6   9    7.96    0.96 
   1   6   9    0.82    0.59 
   2   6   9    3.61    0.86 
   3   6   9   22.50    1.56 
   4   6   9    7.55    1.05 
   5   6   9    0.56    0.68 
 -14   7   9   -0.51    1.58 
 -13   7   9    1.75    1.48 
 -12   7   9    0.28    0.79 
 -11   7   9   13.70    1.32 
 -10   7   9    0.01    0.91 
  -9   7   9    3.06    1.09 
  -8   7   9    2.54    0.94 
  -7   7   9   22.91    1.73 
  -6   7   9    0.26    1.02 
  -5   7   9  131.39    3.73 
  -4   7   9   14.99    1.42 
  -3   7   9   35.47    2.10 
  -2   7   9    1.13    0.83 
  -1   7   9    3.70    0.96 
   0   7   9    0.87    0.65 
   1   7   9    3.77    0.98 
   2   7   9   11.06    1.30 
   3   7   9  106.00    3.27 
   4   7   9    0.85    0.80 
   5   7   9   52.40    2.45 
   6   7   9    1.19    0.94 
 -13   8   9    2.49    1.55 
 -12   8   9    2.19    1.70 
 -11   8   9   -0.01    0.86 
 -10   8   9    0.52    0.98 
  -9   8   9    3.84    1.11 
  -8   8   9   17.61    1.71 
  -7   8   9   10.57    1.49 
  -6   8   9    9.78    1.30 
  -5   8   9   -0.65    0.79 
  -4   8   9   32.77    2.09 
  -3   8   9    3.10    1.02 
  -2   8   9    5.88    1.18 
  -1   8   9   10.47    1.27 
   0   8   9   50.19    2.57 
   1   8   9   58.50    2.86 
   2   8   9    2.17    0.98 
   3   8   9   17.68    1.60 
   4   8   9    6.09    1.18 
   5   8   9   -0.51    0.79 
   6   8   9   16.87    1.73 
 -12   9   9    0.41    1.71 
 -11   9   9    0.37    0.97 
  -9   9   9   -1.34    0.91 
  -8   9   9   -1.14    0.76 
  -7   9   9    4.38    1.35 
  -6   9   9    0.64    0.88 
  -5   9   9    0.39    0.88 
  -4   9   9    4.77    1.19 
  -3   9   9    4.27    1.13 
  -2   9   9   12.41    1.62 
  -1   9   9    6.05    1.12 
   0   9   9    3.91    1.21 
   1   9   9    4.82    1.15 
   2   9   9    2.44    1.00 
   3   9   9    0.07    0.83 
   4   9   9    1.20    0.99 
   5   9   9   -0.77    0.86 
   6   9   9   10.33    1.62 
 -11  10   9    5.13    1.55 
 -10  10   9    3.69    1.41 
  -9  10   9    2.07    1.20 
  -8  10   9    0.17    1.12 
  -7  10   9    4.15    1.17 
  -6  10   9    0.40    0.99 
  -5  10   9    0.64    1.04 
  -4  10   9   -0.13    0.91 
  -3  10   9    0.65    1.00 
  -2  10   9    0.94    1.03 
  -1  10   9    3.01    1.08 
   0  10   9    2.21    1.23 
   1  10   9    3.27    1.19 
   2  10   9   13.29    1.69 
   3  10   9    1.19    1.09 
   4  10   9    3.07    1.27 
   5  10   9    6.62    1.50 
   6  10   9   -0.07    1.21 
  -9  11   9    2.97    1.34 
  -8  11   9   -0.08    1.30 
  -7  11   9   -0.30    0.96 
  -6  11   9    1.27    1.15 
  -5  11   9   15.50    1.93 
  -4  11   9    5.12    1.49 
  -3  11   9    2.96    1.30 
  -2  11   9    5.48    1.45 
  -1  11   9   -0.11    1.01 
   0  11   9    5.71    1.58 
   1  11   9   -0.48    1.24 
   2  11   9   -0.60    1.06 
   3  11   9    6.78    1.58 
   4  11   9    1.58    1.48 
   5  11   9    3.88    1.56 
   6  11   9    0.17    1.49 
  -1  12   9    2.59    1.45 
   0  12   9    3.94    1.66 
  -3 -12  10   -0.39    1.28 
  -2 -12  10    1.18    1.36 
  -1 -12  10    1.43    1.46 
   0 -12  10    8.57    1.95 
  -6 -11  10    0.91    1.32 
  -5 -11  10    0.16    1.16 
  -4 -11  10   -0.20    1.06 
  -3 -11  10   -0.39    0.97 
  -2 -11  10    5.40    1.50 
  -1 -11  10    5.93    1.57 
   0 -11  10    3.31    1.38 
  -9 -10  10    0.94    1.14 
  -8 -10  10    4.42    1.41 
  -7 -10  10    5.51    1.47 
  -6 -10  10    1.11    1.17 
  -5 -10  10   11.96    1.76 
  -4 -10  10   -0.17    0.94 
  -3 -10  10   13.53    1.91 
  -2 -10  10    0.57    0.91 
  -1 -10  10    0.37    0.93 
   0 -10  10    1.24    1.14 
   1 -10  10   -0.06    1.02 
 -11  -9  10    0.16    0.84 
 -10  -9  10    0.26    0.86 
  -9  -9  10    0.14    0.82 
  -8  -9  10    0.56    0.91 
  -7  -9  10    0.32    0.91 
  -6  -9  10    0.54    0.91 
  -5  -9  10    4.53    1.25 
  -4  -9  10   -0.22    0.87 
  -3  -9  10   -0.19    0.86 
  -2  -9  10    2.56    1.05 
  -1  -9  10    1.30    0.93 
   0  -9  10    0.22    0.91 
   1  -9  10    2.67    1.14 
 -13  -8  10    2.04    1.13 
 -11  -8  10    1.13    1.04 
 -10  -8  10    0.66    0.95 
  -9  -8  10    0.56    0.89 
  -8  -8  10    0.20    0.86 
  -7  -8  10    1.65    0.97 
  -6  -8  10   17.64    1.87 
  -5  -8  10   22.03    1.99 
  -4  -8  10    0.10    0.78 
  -3  -8  10    3.93    1.12 
  -2  -8  10   51.27    2.88 
  -1  -8  10   -0.08    0.73 
   0  -8  10    0.54    0.85 
   1  -8  10   11.13    1.44 
 -14  -7  10    0.43    0.98 
 -13  -7  10    0.00    0.92 
 -12  -7  10    0.20    0.89 
 -11  -7  10    0.31    0.92 
 -10  -7  10    1.54    0.95 
  -9  -7  10    0.47    0.85 
  -8  -7  10    2.70    1.02 
  -7  -7  10    0.20    0.80 
  -6  -7  10   -0.05    0.78 
  -5  -7  10   -0.31    0.71 
  -4  -7  10   46.86    2.68 
  -3  -7  10    0.27    0.77 
  -2  -7  10    3.84    0.98 
  -1  -7  10   21.71    1.75 
   0  -7  10    8.98    1.29 
   1  -7  10   21.99    1.81 
   2  -7  10    1.10    0.66 
 -15  -6  10    0.26    1.10 
 -14  -6  10    0.79    1.01 
 -13  -6  10    0.75    0.97 
 -12  -6  10    1.77    0.99 
 -11  -6  10    2.65    1.01 
 -10  -6  10    1.00    0.86 
  -9  -6  10    2.27    0.93 
  -8  -6  10    4.97    1.11 
  -7  -6  10    0.89    0.80 
  -6  -6  10    0.30    0.78 
  -5  -6  10  106.14    3.70 
  -4  -6  10    0.57    0.73 
  -3  -6  10   88.38    3.26 
  -2  -6  10   14.12    1.47 
  -1  -6  10    3.02    0.87 
   0  -6  10   17.14    1.49 
   1  -6  10    1.54    0.73 
   2  -6  10    5.08    0.99 
 -15  -5  10   -0.13    1.10 
 -13  -5  10    0.96    0.98 
 -12  -5  10    0.25    0.88 
 -11  -5  10    1.52    0.87 
 -10  -5  10    1.73    0.88 
  -9  -5  10   -0.09    0.73 
  -8  -5  10    2.29    0.93 
  -7  -5  10   16.87    1.59 
  -6  -5  10    0.31    0.59 
  -5  -5  10    5.79    1.04 
  -4  -5  10    0.55    0.79 
  -3  -5  10   37.65    2.05 
  -2  -5  10    1.24    0.74 
  -1  -5  10    1.20    0.71 
   0  -5  10    0.31    0.62 
   1  -5  10    0.43    0.40 
   2  -5  10    3.04    0.75 
 -15  -4  10    2.12    1.21 
 -14  -4  10    0.38    0.92 
 -13  -4  10   11.69    1.59 
 -12  -4  10   20.11    1.87 
 -11  -4  10    1.53    0.91 
 -10  -4  10   13.06    1.40 
  -9  -4  10    4.66    0.96 
  -8  -4  10    8.93    1.15 
  -7  -4  10   16.90    1.42 
  -6  -4  10   -0.07    0.60 
  -5  -4  10   47.67    2.15 
  -4  -4  10    8.71    1.01 
  -3  -4  10    6.28    0.94 
  -2  -4  10   16.50    1.34 
  -1  -4  10   22.28    1.48 
   0  -4  10    3.16    0.73 
   1  -4  10   48.12    1.94 
   2  -4  10    3.25    0.73 
 -15  -3  10    1.84    1.08 
 -14  -3  10   14.32    1.62 
 -13  -3  10    2.35    0.98 
 -12  -3  10   41.51    2.59 
 -11  -3  10   10.22    1.41 
 -10  -3  10   36.90    2.17 
  -9  -3  10    3.69    0.92 
  -8  -3  10   -0.12    0.64 
  -7  -3  10   15.72    1.45 
  -6  -3  10  146.41    3.78 
  -5  -3  10    3.32    0.82 
  -4  -3  10    1.11    0.69 
  -3  -3  10   29.75    1.62 
  -2  -3  10   72.25    2.35 
  -1  -3  10   79.57    2.47 
   0  -3  10    5.25    0.84 
   1  -3  10    1.19    0.58 
   2  -3  10   89.85    2.35 
 -15  -2  10    6.87    1.57 
 -14  -2  10    0.44    0.90 
 -13  -2  10    2.72    1.04 
 -12  -2  10    3.30    1.10 
 -11  -2  10    5.68    1.19 
 -10  -2  10   24.01    1.82 
  -9  -2  10   34.51    2.02 
  -8  -2  10   22.64    1.61 
  -7  -2  10   10.52    1.17 
  -6  -2  10   39.17    1.98 
  -5  -2  10   87.18    2.81 
  -4  -2  10   86.23    2.71 
  -3  -2  10   28.73    1.56 
  -2  -2  10   39.96    1.79 
  -1  -2  10    1.84    0.65 
   0  -2  10    3.98    0.61 
   1  -2  10    3.37    0.70 
   2  -2  10   31.15    1.32 
   3  -2  10   17.37    1.00 
 -14  -1  10    0.95    1.16 
 -13  -1  10    0.53    0.85 
 -12  -1  10   29.31    2.02 
 -11  -1  10   12.24    1.45 
 -10  -1  10    1.39    0.86 
  -9  -1  10    4.23    0.96 
  -8  -1  10   15.29    1.40 
  -7  -1  10   89.19    2.96 
  -6  -1  10    4.34    0.85 
  -5  -1  10    4.41    0.83 
  -4  -1  10   61.70    2.20 
  -3  -1  10  159.74    3.45 
  -2  -1  10  138.20    3.08 
  -1  -1  10    0.92    0.60 
   0  -1  10    4.65    0.58 
   1  -1  10   16.32    1.02 
   2  -1  10   72.85    1.97 
   3  -1  10    1.38    0.54 
 -14   0  10    0.40    0.91 
 -13   0  10    0.21    0.85 
 -12   0  10   22.71    1.85 
 -11   0  10   -0.48    0.86 
 -10   0  10  221.82    5.04 
  -9   0  10    0.25    0.77 
  -8   0  10   95.18    2.97 
  -7   0  10    0.02    0.44 
  -6   0  10   76.41    1.45 
  -5   0  10    0.02    0.36 
  -4   0  10  101.37    2.72 
  -3   0  10   -0.01    0.57 
  -2   0  10    4.52    0.73 
  -1   0  10   -0.32    0.52 
   0   0  10    2.17    0.52 
   1   0  10    0.03    0.41 
   2   0  10  102.46    2.17 
   3   0  10    0.06    0.46 
 -14   1  10    0.43    0.92 
 -13   1  10    1.24    1.01 
 -12   1  10   30.30    2.04 
 -11   1  10   12.47    1.36 
 -10   1  10    1.56    0.65 
  -9   1  10    3.67    0.66 
  -8   1  10   17.91    0.95 
  -7   1  10   97.34    1.89 
  -6   1  10    4.67    0.57 
  -5   1  10    4.17    0.86 
  -4   1  10   69.90    2.30 
  -3   1  10  163.19    3.20 
  -2   1  10  140.99    2.87 
  -1   1  10    0.89    0.54 
   0   1  10   27.07    1.26 
   1   1  10    8.78    0.76 
   2   1  10   58.40    1.61 
   3   1  10    0.02    0.46 
 -14   2  10    0.44    0.96 
 -13   2  10    1.40    1.04 
 -12   2  10    4.46    0.83 
 -11   2  10    5.34    0.79 
 -10   2  10   19.33    3.52 
  -9   2  10   39.25    1.45 
  -8   2  10   28.82    1.20 
  -7   2  10   11.63    0.87 
  -6   2  10   41.12    1.83 
  -5   2  10   86.38    2.53 
  -4   2  10   88.59    2.45 
  -3   2  10   27.27    1.39 
  -2   2  10   38.39    1.55 
  -1   2  10    1.96    0.63 
   0   2  10   16.36    1.02 
   1   2  10    1.96    0.60 
   2   2  10   29.24    1.24 
   3   2  10   14.67    0.90 
   4   2  10   53.10    1.52 
 -14   3  10   21.26    2.01 
 -13   3  10    4.15    0.88 
 -12   3  10   44.60    1.74 
 -11   3  10   12.61    1.08 
 -10   3  10   41.93    1.58 
  -9   3  10    5.61    0.81 
  -8   3  10    0.65    0.61 
  -7   3  10   15.80    1.34 
  -6   3  10  160.67    3.61 
  -5   3  10    3.19    0.76 
  -4   3  10    0.76    0.68 
  -3   3  10   30.45    1.49 
  -2   3  10   68.81    2.07 
  -1   3  10   69.18    2.01 
   0   3  10    5.55    0.73 
   1   3  10    0.79    0.49 
   2   3  10   60.13    1.96 
   3   3  10   10.01    0.91 
   4   3  10    6.08    0.71 
 -15   4  10    1.29    1.40 
 -14   4  10    0.00    1.05 
 -13   4  10   14.99    1.28 
 -12   4  10   26.74    1.53 
 -11   4  10    2.75    0.80 
 -10   4  10   16.21    1.17 
  -9   4  10    6.00    0.87 
  -8   4  10   15.10    1.33 
  -7   4  10   20.40    1.49 
  -6   4  10    0.08    0.74 
  -5   4  10   58.32    2.24 
  -4   4  10    8.03    0.94 
  -3   4  10    8.12    0.92 
  -2   4  10   14.56    1.08 
  -1   4  10   24.36    1.50 
   0   4  10    2.18    0.58 
   1   4  10   41.81    1.67 
   2   4  10    2.13    0.64 
   3   4  10   35.56    1.64 
   4   4  10   65.34    2.12 
 -16   5  10    6.55    1.87 
 -15   5  10   -0.16    1.39 
 -14   5  10    3.64    1.59 
 -13   5  10    1.96    0.88 
 -12   5  10    0.39    0.75 
 -11   5  10    2.07    0.76 
 -10   5  10    2.18    0.76 
  -9   5  10    0.51    0.86 
  -8   5  10    2.72    0.94 
  -7   5  10   23.30    1.62 
  -6   5  10    0.67    0.76 
  -5   5  10    7.09    1.02 
  -4   5  10    0.51    0.67 
  -3   5  10   44.07    2.11 
  -2   5  10    1.41    0.61 
  -1   5  10    0.29    0.54 
   0   5  10    0.36    0.62 
   1   5  10   57.26    2.15 
   2   5  10    4.13    0.84 
   3   5  10    7.38    1.05 
   4   5  10    3.20    0.80 
   5   5  10   52.29    2.01 
 -15   6  10    0.13    1.70 
 -14   6  10    1.33    1.85 
 -13   6  10    0.40    0.82 
 -12   6  10    0.84    0.79 
 -11   6  10    2.77    0.83 
 -10   6  10    0.56    0.76 
  -9   6  10    4.32    1.08 
  -8   6  10    5.41    1.10 
  -7   6  10    1.72    0.88 
  -6   6  10   -0.16    0.74 
  -5   6  10  107.50    3.23 
  -4   6  10    0.58    0.86 
  -3   6  10   92.89    2.88 
  -2   6  10   15.33    1.30 
  -1   6  10    4.94    0.92 
   0   6  10   17.02    1.38 
   1   6  10    1.63    0.78 
   2   6  10    3.69    0.83 
   3   6  10   18.49    1.35 
   4   6  10   11.74    1.29 
   5   6  10    1.96    0.85 
 -14   7  10    0.34    1.61 
 -13   7  10    0.33    1.44 
 -12   7  10    0.09    0.80 
 -11   7  10   -0.09    0.79 
 -10   7  10    1.69    1.09 
  -9   7  10   -0.24    0.84 
  -8   7  10    2.52    1.00 
  -7   7  10    0.70    0.83 
  -6   7  10   -0.03    0.73 
  -5   7  10   -0.42    0.87 
  -4   7  10   46.62    2.25 
  -3   7  10    0.25    0.59 
  -2   7  10    5.32    1.04 
  -1   7  10   24.16    1.76 
   0   7  10   10.25    1.35 
   1   7  10   20.90    1.56 
   2   7  10    2.56    0.79 
   3   7  10    6.15    1.07 
   4   7  10   28.30    2.01 
   5   7  10    0.56    0.86 
 -13   8  10    4.12    1.73 
 -12   8  10    0.27    0.95 
 -11   8  10    0.64    0.93 
 -10   8  10    0.81    1.08 
  -9   8  10    1.32    1.03 
  -8   8  10    0.05    0.89 
  -7   8  10    0.81    0.87 
  -6   8  10   26.17    2.22 
  -5   8  10   25.91    1.88 
  -4   8  10    0.19    0.78 
  -3   8  10    4.13    1.08 
  -2   8  10   60.71    2.85 
  -1   8  10    0.71    0.89 
   0   8  10    0.57    0.80 
   1   8  10   10.88    1.24 
   2   8  10    5.75    1.11 
   3   8  10    0.11    0.93 
   4   8  10    0.10    0.85 
   5   8  10    0.99    0.89 
 -12   9  10    2.61    1.12 
 -11   9  10   -0.82    0.92 
 -10   9  10   -0.34    1.06 
  -9   9  10    0.56    1.02 
  -8   9  10    0.38    0.93 
  -7   9  10   -0.37    1.00 
  -6   9  10    1.10    0.94 
  -5   9  10    5.93    1.22 
  -4   9  10   -0.36    0.80 
  -3   9  10    0.45    0.99 
  -2   9  10    2.56    1.10 
  -1   9  10    2.18    1.09 
   0   9  10   -0.37    0.76 
   1   9  10    1.60    0.90 
   2   9  10    0.01    0.95 
   3   9  10    1.62    1.12 
   4   9  10    0.08    0.97 
   5   9  10    2.90    1.14 
 -10  10  10   -0.37    1.20 
  -9  10  10    1.04    1.18 
  -8  10  10    3.04    1.20 
  -7  10  10    8.40    1.74 
  -6  10  10    0.76    0.99 
  -5  10  10   11.69    1.64 
  -4  10  10   -0.36    0.93 
  -3  10  10   15.25    1.83 
  -2  10  10   -0.13    1.09 
  -1  10  10    0.42    1.05 
   0  10  10    2.19    1.02 
   1  10  10   -0.42    0.89 
   2  10  10    6.82    1.54 
   3  10  10    9.40    1.77 
   4  10  10    5.93    1.64 
   5  10  10   -0.42    1.02 
  -7  11  10    0.30    1.32 
  -6  11  10    0.38    1.03 
  -5  11  10    0.37    1.06 
  -4  11  10    0.38    1.10 
  -3  11  10    0.21    1.08 
  -2  11  10    7.68    1.76 
  -1  11  10    6.44    1.62 
   0  11  10    2.42    1.27 
   1  11  10    3.37    1.30 
   2  11  10   15.72    2.21 
   3  11  10   -0.15    1.50 
   4  11  10    1.36    1.46 
   5  11  10    0.02    1.34 
  -6 -11  11   -0.52    1.20 
  -5 -11  11    6.00    1.70 
  -4 -11  11    5.13    1.56 
  -3 -11  11   -0.23    1.05 
  -2 -11  11    1.31    1.21 
  -1 -11  11   -0.25    1.25 
  -9 -10  11    5.92    1.56 
  -8 -10  11    1.30    1.18 
  -7 -10  11    2.22    1.16 
  -6 -10  11    1.53    1.17 
  -5 -10  11    7.44    1.58 
  -4 -10  11   -0.30    1.00 
  -3 -10  11    4.39    1.37 
  -2 -10  11    0.30    1.07 
  -1 -10  11    2.21    1.14 
   0 -10  11    0.51    1.06 
 -11  -9  11    1.12    1.00 
 -10  -9  11   -0.12    0.92 
  -9  -9  11    0.24    0.93 
  -8  -9  11    6.21    1.44 
  -7  -9  11    0.75    1.00 
  -6  -9  11    0.64    0.95 
  -5  -9  11    7.81    1.47 
  -4  -9  11    6.31    1.38 
  -3  -9  11   -0.07    0.79 
  -2  -9  11    0.03    0.86 
  -1  -9  11    0.30    0.83 
   0  -9  11   10.24    1.56 
 -12  -8  11    0.42    0.96 
 -11  -8  11    9.49    1.66 
 -10  -8  11    5.20    1.29 
  -9  -8  11    0.03    0.82 
  -8  -8  11    1.47    1.06 
  -7  -8  11    1.55    1.01 
  -6  -8  11   33.34    2.54 
  -5  -8  11   28.12    2.28 
  -4  -8  11   14.37    1.71 
  -2  -8  11   11.13    1.51 
  -1  -8  11    2.75    1.06 
   0  -8  11    8.63    1.39 
   1  -8  11    3.21    1.10 
 -14  -7  11    0.49    1.13 
 -13  -7  11    3.81    1.26 
 -12  -7  11    0.67    0.97 
 -11  -7  11    2.52    1.08 
 -10  -7  11    0.37    0.83 
  -9  -7  11    2.64    1.00 
  -8  -7  11    7.42    1.35 
  -7  -7  11    5.54    1.24 
  -6  -7  11    1.98    0.95 
  -5  -7  11   -0.60    0.79 
  -4  -7  11    9.03    1.38 
  -3  -7  11    0.23    0.78 
  -2  -7  11    0.10    0.78 
  -1  -7  11    0.78    0.75 
   0  -7  11    5.08    1.02 
   1  -7  11   15.43    1.56 
 -15  -6  11   -0.02    1.03 
 -14  -6  11    2.38    1.19 
 -13  -6  11    1.61    1.03 
 -12  -6  11    0.78    0.88 
 -11  -6  11    4.98    1.18 
 -10  -6  11   15.44    1.70 
  -9  -6  11    3.90    1.09 
  -8  -6  11    5.71    1.21 
  -7  -6  11    7.93    1.27 
  -6  -6  11   18.48    1.75 
  -5  -6  11    0.51    0.81 
  -4  -6  11    0.19    0.78 
  -3  -6  11    0.71    0.83 
  -2  -6  11  110.76    3.76 
  -1  -6  11   31.04    1.99 
   0  -6  11   11.46    1.37 
   1  -6  11    2.98    0.81 
 -16  -5  11    0.21    1.10 
 -15  -5  11    1.72    1.17 
 -14  -5  11   -0.02    0.96 
 -13  -5  11    0.93    0.98 
 -12  -5  11    2.72    1.08 
 -11  -5  11   -0.02    0.77 
 -10  -5  11    8.38    1.36 
  -9  -5  11    0.09    0.82 
  -8  -5  11   11.19    1.47 
  -7  -5  11   13.51    1.53 
  -6  -5  11   11.47    1.40 
  -5  -5  11   47.50    2.48 
  -4  -5  11   44.87    2.34 
  -3  -5  11    1.71    0.84 
  -2  -5  11   42.25    2.16 
  -1  -5  11   10.71    1.19 
   0  -5  11   13.95    1.30 
   1  -5  11   21.59    1.50 
 -15  -4  11    5.05    1.38 
 -14  -4  11    0.01    1.06 
 -13  -4  11    4.37    1.23 
 -12  -4  11    2.91    1.05 
 -11  -4  11    1.38    0.88 
 -10  -4  11   11.01    1.34 
  -9  -4  11   47.12    2.49 
  -8  -4  11    8.62    1.31 
  -7  -4  11    1.40    0.84 
  -6  -4  11    0.66    0.80 
  -5  -4  11  202.55    4.86 
  -4  -4  11    0.42    0.68 
  -3  -4  11   15.82    1.31 
  -2  -4  11    8.68    1.07 
  -1  -4  11    0.96    0.65 
   0  -4  11    5.57    0.90 
   1  -4  11    0.27    0.60 
   2  -4  11    2.94    0.74 
 -15  -3  11    0.54    0.98 
 -14  -3  11    6.38    1.23 
 -13  -3  11    2.94    1.17 
 -12  -3  11    1.20    0.93 
 -11  -3  11   25.39    1.96 
 -10  -3  11   11.25    1.35 
  -9  -3  11    5.76    1.06 
  -8  -3  11  157.12    4.26 
  -7  -3  11   49.74    2.51 
  -6  -3  11    0.78    0.88 
  -5  -3  11    1.91    0.88 
  -4  -3  11  102.75    3.44 
  -3  -3  11    2.78    0.88 
  -2  -3  11   42.06    1.92 
  -1  -3  11    3.96    0.76 
   0  -3  11   32.36    1.67 
   1  -3  11   23.18    1.31 
   2  -3  11    0.73    0.57 
 -15  -2  11    0.64    1.21 
 -14  -2  11    1.86    0.99 
 -13  -2  11    0.59    0.83 
 -12  -2  11    1.49    0.96 
 -11  -2  11    2.34    1.01 
 -10  -2  11    2.68    0.94 
  -9  -2  11   39.77    2.24 
  -8  -2  11   12.59    1.34 
  -7  -2  11   14.14    1.38 
  -6  -2  11    0.36    0.66 
  -5  -2  11   11.40    1.22 
  -4  -2  11   22.70    1.50 
  -3  -2  11   33.14    1.75 
  -2  -2  11   64.28    2.34 
  -1  -2  11    3.27    0.73 
   1  -2  11   21.30    1.32 
   2  -2  11    1.02    0.63 
 -15  -1  11    0.76    1.03 
 -14  -1  11    0.64    0.98 
 -13  -1  11    0.41    0.86 
 -12  -1  11   -0.05    0.72 
 -11  -1  11    1.93    0.93 
 -10  -1  11    0.71    0.83 
  -9  -1  11   12.70    1.39 
  -8  -1  11   12.76    1.27 
  -7  -1  11    1.98    0.86 
  -6  -1  11   24.19    1.66 
  -5  -1  11    2.44    0.80 
  -4  -1  11   89.26    2.75 
  -3  -1  11    0.28    0.61 
  -2  -1  11    1.41    0.61 
  -1  -1  11   31.35    1.54 
   1  -1  11    1.37    0.63 
   2  -1  11   39.15    1.58 
 -15   0  11    2.06    1.11 
 -14   0  11    0.21    0.89 
 -13   0  11    5.49    1.26 
 -12   0  11    0.43    0.95 
 -11   0  11    0.88    0.87 
 -10   0  11    0.56    0.85 
  -9   0  11    0.88    0.81 
  -8   0  11   -0.56    0.66 
  -7   0  11   60.26    2.51 
  -6   0  11   -0.19    0.73 
  -5   0  11   54.01    2.14 
  -4   0  11    0.22    0.65 
  -3   0  11    4.78    0.81 
  -2   0  11    0.00    0.53 
  -1   0  11  416.32    5.39 
   0   0  11    0.27    0.50 
   1   0  11    5.11    0.71 
   2   0  11   -0.38    0.47 
   3   0  11   21.98    1.12 
 -14   1  11   -0.28    0.89 
 -13   1  11   -0.10    0.94 
 -12   1  11    0.72    0.85 
 -11   1  11    2.03    0.90 
 -10   1  11    0.50    0.90 
  -9   1  11   13.48    1.41 
  -8   1  11   13.30    1.35 
  -7   1  11    1.95    0.80 
  -6   1  11   27.49    1.31 
  -5   1  11    1.16    0.75 
  -4   1  11  102.22    2.84 
  -3   1  11    0.27    0.65 
  -2   1  11    1.16    0.61 
  -1   1  11   31.34    1.42 
   0   1  11   35.26    1.45 
   1   1  11    0.84    0.51 
   2   1  11   32.19    1.32 
   3   1  11   -0.04    0.49 
 -14   2  11    2.50    1.11 
 -13   2  11   -0.04    0.88 
 -12   2  11    1.84    1.05 
 -11   2  11    2.62    1.05 
 -10   2  11    2.91    0.96 
  -9   2  11   48.12    1.58 
  -8   2  11   15.90    1.01 
  -7   2  11   18.04    1.04 
  -6   2  11   -0.40    0.49 
  -5   2  11   10.85    1.03 
  -4   2  11   24.65    1.45 
  -3   2  11   32.97    1.54 
  -2   2  11   62.06    2.05 
  -1   2  11    3.91    0.71 
   0   2  11   31.11    1.42 
   1   2  11   14.12    1.03 
   2   2  11    0.82    0.59 
   3   2  11    1.32    0.58 
 -14   3  11    8.78    1.52 
 -13   3  11    3.30    1.22 
 -12   3  11    0.48    0.98 
 -11   3  11   31.38    1.55 
 -10   3  11   12.68    1.01 
  -9   3  11    5.34    1.07 
  -8   3  11  157.23   14.72 
  -7   3  11   51.32    2.24 
  -6   3  11    0.16    0.68 
  -5   3  11    1.29    0.76 
  -4   3  11   81.11    2.52 
  -3   3  11    2.90    0.80 
  -2   3  11   39.82    1.70 
  -1   3  11    4.07    0.74 
   0   3  11   46.39    1.70 
   1   3  11   20.52    1.17 
   2   3  11    0.04    0.41 
   3   3  11    2.69    0.63 
   4   3  11    3.08    0.63 
 -14   4  11    0.48    1.07 
 -13   4  11    5.11    0.93 
 -12   4  11    3.95    0.92 
 -11   4  11    1.66    0.76 
 -10   4  11   13.36    1.08 
  -9   4  11   64.32    2.00 
  -8   4  11    8.70    1.18 
  -7   4  11    1.06    0.83 
  -6   4  11    0.46    0.78 
  -5   4  11  205.60    4.28 
  -4   4  11    0.56    0.75 
  -3   4  11   15.42    1.19 
  -2   4  11    7.54    0.89 
  -1   4  11    1.41    0.65 
   0   4  11    5.17    0.84 
   1   4  11    0.10    0.59 
   2   4  11    2.18    0.66 
   3   4  11   14.47    1.03 
   4   4  11   11.45    1.04 
 -14   5  11   -0.23    1.32 
 -13   5  11    0.39    0.92 
 -12   5  11    3.98    0.94 
 -11   5  11   -0.19    0.68 
 -10   5  11   11.84    1.12 
  -9   5  11   -0.75    0.78 
  -8   5  11   12.81    1.39 
  -7   5  11   16.88    1.53 
  -6   5  11   12.65    1.23 
  -5   5  11   51.06    2.24 
  -4   5  11   44.78    1.99 
  -3   5  11    1.70    0.73 
  -2   5  11   52.02    2.33 
  -1   5  11   10.70    1.10 
   0   5  11   13.71    1.14 
   1   5  11   37.11    1.70 
   2   5  11   11.51    1.05 
   3   5  11    0.02    0.71 
   4   5  11   41.89    1.92 
 -15   6  11    0.09    1.80 
 -14   6  11    3.01    1.88 
 -13   6  11    1.76    0.95 
 -12   6  11    0.55    0.77 
 -11   6  11    6.26    1.01 
 -10   6  11   21.90    1.47 
  -9   6  11    4.82    1.14 
  -8   6  11    6.19    1.17 
  -7   6  11   10.28    1.34 
  -6   6  11   18.89    1.56 
  -5   6  11   -0.33    0.70 
  -4   6  11    0.96    0.76 
  -3   6  11    0.47    0.83 
  -2   6  11  109.50    3.16 
  -1   6  11   28.62    1.71 
   0   6  11   11.66    1.17 
   1   6  11    2.34    0.82 
   2   6  11   22.82    1.58 
   3   6  11    7.80    1.13 
   4   6  11    0.43    0.85 
 -14   7  11    1.32    1.82 
 -13   7  11    5.56    1.10 
 -12   7  11   -0.07    0.90 
 -11   7  11    3.32    1.63 
 -10   7  11    0.22    0.96 
  -9   7  11    3.41    1.13 
  -8   7  11   11.91    1.50 
  -7   7  11    5.65    1.16 
  -6   7  11    1.45    0.87 
  -5   7  11   -0.59    0.72 
  -4   7  11   11.14    1.51 
  -3   7  11    0.74    0.77 
  -2   7  11    0.13    0.73 
  -1   7  11    1.02    0.79 
   0   7  11    5.76    1.09 
   1   7  11   15.33    1.49 
   2   7  11   43.69    2.34 
   3   7  11    9.92    1.27 
   4   7  11    7.21    1.12 
   5   7  11   39.11    2.13 
 -13   8  11    0.01    1.64 
 -12   8  11    0.14    0.94 
 -11   8  11   14.11    1.47 
 -10   8  11    8.97    1.56 
  -9   8  11   -0.70    0.88 
  -8   8  11    1.78    1.03 
  -7   8  11    1.53    0.97 
  -6   8  11   38.64    2.33 
  -5   8  11   36.21    2.41 
  -4   8  11   13.27    1.46 
  -3   8  11   -0.63    0.74 
  -2   8  11   11.51    1.44 
  -1   8  11    3.18    1.04 
   0   8  11    8.89    1.36 
   1   8  11    3.90    1.12 
   2   8  11   25.64    1.89 
   3   8  11   14.62    1.45 
   4   8  11   -0.14    0.72 
   5   8  11    4.73    1.27 
 -12   9  11    5.13    1.31 
 -11   9  11    0.37    1.04 
 -10   9  11   -0.58    1.02 
  -9   9  11   -0.61    1.05 
  -8   9  11   10.04    1.53 
  -7   9  11    0.35    0.95 
  -6   9  11    0.23    1.06 
  -5   9  11    9.12    1.36 
  -4   9  11    7.34    1.32 
  -3   9  11   -0.06    0.82 
  -2   9  11   -0.54    0.88 
  -1   9  11    0.00    0.94 
   0   9  11   12.27    1.66 
   1   9  11    2.04    1.06 
   2   9  11   -0.18    0.86 
   3   9  11    8.71    1.33 
   4   9  11    8.97    1.35 
   5   9  11    2.91    1.39 
 -10  10  11   -0.26    1.21 
  -9  10  11    7.15    1.55 
  -7  10  11    2.36    1.18 
  -6  10  11    1.74    1.37 
  -5  10  11    7.00    1.38 
  -4  10  11    0.29    0.87 
  -3  10  11    4.01    1.36 
  -2  10  11    0.64    1.15 
  -1  10  11    1.74    1.19 
   0  10  11    0.03    1.10 
   1  10  11    0.29    1.00 
   2  10  11    3.25    1.16 
   3  10  11    7.19    1.39 
   4  10  11    3.04    1.25 
   5  10  11    2.26    1.56 
  -6  11  11   -0.35    1.06 
  -5  11  11    4.85    1.41 
  -4  11  11    7.45    1.60 
  -3  11  11   -0.55    1.16 
  -2  11  11    0.04    1.25 
  -1  11  11   -0.44    1.26 
   0  11  11    5.89    1.75 
   1  11  11   11.81    1.84 
   2  11  11    2.42    1.44 
   3  11  11    3.91    1.42 
   4  11  11    1.21    1.27 
  -5 -11  12    1.01    1.40 
  -4 -11  12    1.20    1.34 
  -3 -11  12    0.03    1.19 
  -2 -11  12    1.48    1.28 
  -1 -11  12    1.85    1.43 
  -8 -10  12    0.55    1.19 
  -7 -10  12    1.09    1.21 
  -6 -10  12    5.75    1.58 
  -5 -10  12    0.35    1.08 
  -4 -10  12    1.39    1.19 
  -3 -10  12    0.31    1.14 
  -2 -10  12    1.29    1.15 
  -1 -10  12   -0.46    1.05 
 -10  -9  12    0.73    1.01 
  -9  -9  12    0.21    0.92 
  -8  -9  12    1.06    1.10 
  -7  -9  12    1.03    1.09 
  -6  -9  12    9.13    1.58 
  -5  -9  12    4.12    1.26 
  -4  -9  12    2.50    1.16 
  -3  -9  12    0.24    0.91 
  -2  -9  12    0.47    0.94 
  -1  -9  12    2.33    1.08 
   0  -9  12    2.85    1.15 
 -12  -8  12    0.90    0.99 
 -11  -8  12    0.73    0.98 
 -10  -8  12    1.32    0.99 
  -9  -8  12    0.90    0.91 
  -8  -8  12    3.09    1.19 
  -7  -8  12    1.74    1.00 
  -6  -8  12    0.99    1.01 
  -5  -8  12   -0.25    0.88 
  -4  -8  12    2.08    1.06 
  -3  -8  12    7.17    1.34 
  -2  -8  12    2.78    1.00 
  -1  -8  12   -0.01    0.81 
   0  -8  12   11.07    1.52 
 -13  -7  12    1.71    1.12 
 -12  -7  12   -0.10    0.89 
 -11  -7  12    1.58    1.01 
 -10  -7  12    3.83    1.14 
  -9  -7  12    0.61    0.86 
  -8  -7  12    5.17    1.21 
  -7  -7  12   10.06    1.51 
  -6  -7  12    0.38    0.86 
  -5  -7  12   14.90    1.71 
  -4  -7  12   22.89    2.05 
  -3  -7  12    1.51    0.87 
  -2  -7  12   37.59    2.50 
  -1  -7  12    3.72    1.01 
   0  -7  12    0.81    0.84 
 -15  -6  12    5.74    1.50 
 -14  -6  12    0.45    1.00 
 -13  -6  12    2.47    1.12 
 -12  -6  12    2.19    1.01 
 -11  -6  12   -0.36    0.77 
 -10  -6  12    0.59    0.80 
  -9  -6  12    2.24    1.01 
  -8  -6  12    4.11    1.14 
  -7  -6  12    0.45    0.83 
  -6  -6  12   10.22    1.43 
  -5  -6  12    6.59    1.21 
  -4  -6  12    3.34    1.00 
  -3  -6  12   26.66    1.97 
  -2  -6  12    9.58    1.31 
  -1  -6  12    3.09    1.05 
   0  -6  12    0.56    0.78 
   1  -6  12    0.02    0.50 
 -15  -5  12    0.55    1.12 
 -14  -5  12    3.00    1.22 
 -13  -5  12    1.43    1.00 
 -12  -5  12    1.69    1.04 
 -11  -5  12    0.56    0.95 
 -10  -5  12    5.18    1.20 
  -9  -5  12    0.39    0.81 
  -8  -5  12    2.54    1.02 
  -7  -5  12   21.77    1.91 
  -6  -5  12   24.87    1.95 
  -5  -5  12   24.55    1.90 
  -4  -5  12   27.94    1.97 
  -3  -5  12   23.31    1.78 
  -2  -5  12   43.05    2.28 
  -1  -5  12   10.95    1.28 
   0  -5  12    0.53    0.73 
   1  -5  12   21.89    1.60 
 -16  -4  12    1.15    1.15 
 -15  -4  12    1.50    1.18 
 -14  -4  12    0.35    1.07 
 -13  -4  12    4.52    1.23 
 -12  -4  12    0.05    0.81 
 -11  -4  12    0.33    0.77 
 -10  -4  12   86.55    3.40 
  -9  -4  12    0.76    0.94 
  -8  -4  12    2.59    1.05 
  -7  -4  12   53.66    2.84 
  -6  -4  12   27.83    2.08 
  -5  -4  12   15.17    1.61 
  -4  -4  12  124.24    3.99 
  -3  -4  12   15.64    1.42 
  -2  -4  12    6.33    0.98 
  -1  -4  12    2.43    0.78 
   0  -4  12    7.65    1.09 
   1  -4  12    1.59    0.74 
 -16  -3  12    0.55    1.11 
 -15  -3  12    2.42    1.08 
 -14  -3  12    0.19    0.98 
 -13  -3  12    3.00    1.17 
 -12  -3  12    0.02    0.83 
 -11  -3  12   21.10    1.83 
 -10  -3  12    8.19    1.22 
  -9  -3  12    2.59    0.98 
  -8  -3  12   58.79    2.98 
  -7  -3  12   55.27    2.83 
  -6  -3  12   44.69    2.55 
  -5  -3  12  128.90    4.09 
  -4  -3  12   20.70    1.75 
  -3  -3  12    0.23    0.79 
  -2  -3  12   14.31    1.31 
  -1  -3  12    0.06    0.65 
   0  -3  12    8.43    0.94 
   1  -3  12    2.88    0.74 
 -16  -2  12    0.41    1.25 
 -15  -2  12    2.35    1.21 
 -14  -2  12    0.71    0.90 
 -13  -2  12    0.04    0.98 
 -12  -2  12    0.08    0.97 
 -11  -2  12    0.98    0.97 
 -10  -2  12    1.46    0.90 
  -9  -2  12   30.62    2.05 
  -8  -2  12    8.82    1.25 
  -7  -2  12    4.47    1.03 
  -6  -2  12    3.25    0.94 
  -5  -2  12    0.67    0.71 
  -4  -2  12   38.06    2.00 
  -3  -2  12  211.46    4.46 
  -2  -2  12   42.19    2.00 
  -1  -2  12    3.94    0.82 
   1  -2  12   86.15    2.59 
   2  -2  12    0.64    0.69 
 -15  -1  12    1.52    1.25 
 -14  -1  12    1.67    1.19 
 -13  -1  12   17.97    1.83 
 -12  -1  12    0.45    0.93 
 -11  -1  12   27.88    2.04 
 -10  -1  12   10.10    1.33 
  -9  -1  12   10.48    1.31 
  -8  -1  12   10.38    1.34 
  -7  -1  12    1.24    0.87 
  -6  -1  12    8.76    1.19 
  -5  -1  12   24.66    1.62 
  -4  -1  12   34.61    1.86 
  -3  -1  12    9.50    1.07 
  -2  -1  12    5.45    0.86 
  -1  -1  12   12.88    1.10 
   0  -1  12    0.69    0.43 
   1  -1  12    4.36    0.80 
   2  -1  12   24.79    1.36 
 -15   0  12   -0.12    0.93 
 -14   0  12    5.13    1.25 
 -13   0  12    0.40    0.88 
 -12   0  12   13.85    1.59 
 -11   0  12    0.32    0.90 
 -10   0  12   56.41    2.72 
  -9   0  12   -0.75    0.73 
  -8   0  12   83.92    2.98 
  -7   0  12   -0.13    0.74 
  -6   0  12   11.02    1.28 
  -5   0  12   -0.99    0.61 
  -4   0  12    6.85    0.98 
  -3   0  12   -0.37    0.60 
  -2   0  12    3.87    0.83 
  -1   0  12    0.68    0.59 
   0   0  12   10.84    0.94 
   1   0  12   -0.33    0.53 
   2   0  12    4.48    0.72 
 -15   1  12    1.18    1.16 
 -14   1  12    2.20    1.10 
 -13   1  12   21.65    1.99 
 -12   1  12   -0.18    0.84 
 -11   1  12   25.89    1.92 
 -10   1  12   11.77    1.48 
  -9   1  12   10.48    1.33 
  -8   1  12   10.65    1.29 
  -7   1  12    1.59    0.69 
  -6   1  12    8.71    1.14 
  -5   1  12   30.37    1.77 
  -4   1  12   34.37    1.74 
  -3   1  12   11.50    1.13 
  -2   1  12    5.65    0.89 
  -1   1  12   13.09    1.08 
   0   1  12    1.21    0.63 
   1   1  12    1.79    0.53 
   2   1  12   21.64    1.16 
 -15   2  12    2.51    1.39 
 -14   2  12    1.03    1.13 
 -13   2  12    0.72    0.93 
 -12   2  12    0.09    0.96 
 -11   2  12    0.50    0.88 
 -10   2  12    1.66    0.91 
  -9   2  12   31.25    1.99 
  -8   2  12   10.43    1.32 
  -7   2  12    6.23    1.13 
  -6   2  12    3.58    0.99 
  -5   2  12    1.01    0.75 
  -4   2  12   35.61    1.76 
  -3   2  12  230.17    4.21 
  -2   2  12   40.76    1.72 
  -1   2  12    3.92    0.77 
   0   2  12   37.72    1.62 
   1   2  12   55.09    1.86 
   2   2  12    0.30    0.61 
   3   2  12    6.72    0.85 
 -14   3  12    1.14    1.12 
 -13   3  12    2.84    1.13 
 -12   3  12    0.84    0.97 
 -11   3  12   23.66    1.93 
 -10   3  12   12.98    1.62 
  -9   3  12    2.57    1.07 
  -8   3  12   58.13    1.81 
  -7   3  12   56.14    2.38 
  -6   3  12   43.09    2.07 
  -5   3  12  112.00    3.11 
  -4   3  12   18.98    1.33 
  -3   3  12    0.23    0.66 
  -2   3  12   13.60    1.19 
  -1   3  12   -0.10    0.56 
   0   3  12   25.32    1.39 
   1   3  12    3.16    0.78 
   3   3  12    3.63    0.75 
 -14   4  12    0.45    1.16 
 -13   4  12    4.26    1.22 
 -12   4  12   -0.01    1.04 
 -11   4  12    0.58    1.00 
 -10   4  12  112.12    2.65 
  -9   4  12    1.37    0.72 
  -8   4  12    2.81    0.99 
  -7   4  12   55.67    2.38 
  -6   4  12   27.25    1.73 
  -5   4  12   12.79    1.34 
  -4   4  12  107.40    3.03 
  -3   4  12   16.45    1.31 
  -2   4  12    6.03    0.90 
  -1   4  12    1.82    0.64 
   0   4  12    5.26    0.79 
   1   4  12    1.75    0.63 
   2   4  12   10.34    0.98 
   3   4  12    0.68    0.56 
 -14   5  12    3.56    1.29 
 -13   5  12    2.12    1.31 
 -12   5  12    1.46    0.82 
 -11   5  12    0.22    0.74 
 -10   5  12    7.33    1.00 
  -9   5  12   -0.56    0.75 
  -8   5  12    2.86    1.00 
  -7   5  12   27.87    1.93 
  -6   5  12   26.92    1.81 
  -5   5  12   24.50    1.67 
  -4   5  12   26.11    1.62 
  -3   5  12   21.38    1.48 
  -2   5  12   39.29    1.87 
  -1   5  12    9.44    1.02 
   0   5  12    0.52    0.74 
   1   5  12   18.29    1.26 
   2   5  12    4.13    0.78 
   3   5  12   12.31    1.16 
   4   5  12   -0.29    0.42 
 -14   6  12    1.70    1.36 
 -13   6  12    2.19    1.03 
 -12   6  12    3.18    0.93 
 -11   6  12   -0.41    0.77 
 -10   6  12    0.59    0.95 
  -9   6  12    2.69    1.04 
  -8   6  12    4.43    1.13 
  -7   6  12    0.16    0.83 
  -6   6  12   14.03    1.46 
  -5   6  12    7.03    1.10 
  -4   6  12    3.58    0.90 
  -3   6  12   28.37    1.74 
  -2   6  12   10.69    1.37 
  -1   6  12    2.56    0.79 
   0   6  12   -0.07    0.67 
   1   6  12   11.44    1.24 
   2   6  12   19.38    1.46 
   3   6  12    2.44    0.89 
   4   6  12   11.59    1.28 
 -14   7  12    0.24    1.71 
 -13   7  12    1.93    1.02 
 -12   7  12   -0.15    0.89 
 -11   7  12    1.08    0.89 
 -10   7  12    4.70    1.27 
  -9   7  12   -0.69    0.95 
  -8   7  12    6.68    1.23 
  -7   7  12    9.39    1.41 
  -6   7  12    0.04    0.81 
  -5   7  12   17.81    1.59 
  -4   7  12   25.00    1.78 
  -3   7  12    2.33    1.00 
  -2   7  12   35.98    2.01 
  -1   7  12    3.78    0.93 
   0   7  12    0.83    0.78 
   1   7  12    0.38    0.84 
   2   7  12    0.84    0.85 
   3   7  12    0.38    0.91 
   4   7  12   18.03    1.64 
 -13   8  12    0.88    1.05 
 -12   8  12    0.02    0.89 
 -11   8  12   -0.29    0.91 
 -10   8  12    0.51    1.10 
  -9   8  12   -0.03    0.99 
  -8   8  12    4.73    1.36 
  -7   8  12    2.47    1.05 
  -6   8  12   -0.01    0.84 
  -5   8  12    0.18    0.82 
  -4   8  12    2.27    1.10 
  -3   8  12    8.75    1.27 
  -2   8  12    1.69    0.97 
  -1   8  12    0.11    0.74 
   0   8  12   11.58    1.47 
   1   8  12    3.71    1.13 
   2   8  12    5.43    1.24 
   3   8  12    2.68    1.08 
   4   8  12    0.23    1.01 
 -11   9  12   -1.04    1.20 
 -10   9  12   -0.47    1.02 
  -9   9  12   -1.23    1.02 
  -8   9  12   -0.05    1.04 
  -7   9  12    0.75    1.02 
  -6   9  12    9.96    1.46 
  -5   9  12    3.88    1.34 
  -4   9  12    2.33    1.05 
  -3   9  12   -0.15    0.85 
  -2   9  12   -0.13    0.87 
  -1   9  12    0.54    1.02 
   0   9  12    3.92    1.23 
   1   9  12    0.08    0.96 
   2   9  12    2.09    1.17 
   3   9  12    4.81    1.36 
   4   9  12    1.33    1.12 
  -9  10  12    1.55    1.37 
  -8  10  12   -1.41    0.95 
  -7  10  12    1.29    1.07 
  -6  10  12    8.40    1.72 
  -5  10  12    0.93    1.14 
  -4  10  12   -0.21    0.98 
  -3  10  12   -0.03    1.08 
  -2  10  12    1.47    1.18 
  -1  10  12    0.11    1.07 
   0  10  12   -0.07    1.13 
   1  10  12    0.41    1.16 
   2  10  12    1.03    1.34 
   3  10  12    7.24    1.69 
   4  10  12    0.17    1.16 
  -4  11  12    1.17    1.18 
  -3  11  12    0.02    1.25 
  -2  11  12    0.35    1.27 
  -1  11  12    2.20    1.54 
   0  11  12    0.74    1.52 
   1  11  12    6.42    1.87 
   2  11  12    1.52    1.58 
   3  11  12    0.94    1.60 
  -4 -11  13   -0.15    1.31 
  -3 -11  13    2.24    1.55 
  -2 -11  13    0.10    1.35 
  -7 -10  13    4.47    1.55 
  -6 -10  13    1.71    1.30 
  -5 -10  13    2.22    1.31 
  -4 -10  13    1.11    1.21 
  -3 -10  13   -0.01    1.15 
  -2 -10  13    0.76    1.16 
  -1 -10  13   -0.13    1.10 
  -9  -9  13    0.40    1.10 
  -8  -9  13   -0.19    0.97 
  -7  -9  13   -0.06    0.99 
  -6  -9  13    4.80    1.42 
  -5  -9  13    3.65    1.32 
  -4  -9  13    1.11    1.07 
  -3  -9  13   -0.48    0.90 
  -2  -9  13   10.98    1.74 
  -1  -9  13    0.45    1.00 
 -11  -8  13    0.14    1.00 
 -10  -8  13    1.04    1.00 
  -9  -8  13    1.06    1.10 
  -8  -8  13    8.67    1.64 
  -7  -8  13    1.30    1.04 
  -6  -8  13    1.89    1.08 
  -5  -8  13   11.59    1.71 
  -4  -8  13   14.28    1.80 
  -3  -8  13   -0.08    0.86 
  -2  -8  13    1.89    1.04 
  -1  -8  13    1.54    0.99 
   0  -8  13   12.63    1.66 
 -13  -7  13    0.38    0.99 
 -12  -7  13    3.92    1.19 
 -11  -7  13    4.64    1.27 
 -10  -7  13    1.40    0.92 
  -9  -7  13    2.41    1.10 
  -8  -7  13    1.25    0.96 
  -7  -7  13    2.35    1.07 
  -6  -7  13   14.86    1.73 
  -5  -7  13    2.53    1.01 
  -4  -7  13    3.67    1.11 
  -3  -7  13    0.27    0.85 
  -2  -7  13    7.05    1.28 
  -1  -7  13    2.56    1.01 
   0  -7  13    0.90    0.88 
 -14  -6  13    2.64    1.24 
 -13  -6  13    0.82    1.00 
 -12  -6  13    0.32    0.93 
 -11  -6  13    4.89    1.22 
 -10  -6  13    0.70    0.88 
  -9  -6  13    1.66    0.94 
  -8  -6  13   38.69    2.60 
  -7  -6  13   43.52    2.66 
  -6  -6  13    1.96    0.99 
  -5  -6  13    8.90    1.41 
  -4  -6  13    4.94    1.14 
  -3  -6  13    2.59    1.02 
  -2  -6  13   -0.07    0.79 
  -1  -6  13    7.38    1.29 
   0  -6  13   37.81    2.27 
 -15  -5  13    0.86    1.18 
 -14  -5  13    1.54    1.12 
 -13  -5  13    0.73    0.99 
 -12  -5  13    0.80    0.98 
 -11  -5  13   10.84    1.61 
 -10  -5  13    0.68    0.90 
  -9  -5  13   13.76    1.68 
  -8  -5  13    1.20    0.88 
  -7  -5  13    7.76    1.39 
  -6  -5  13   11.82    1.53 
  -5  -5  13   31.25    2.19 
  -4  -5  13    0.43    0.81 
  -3  -5  13    3.81    1.01 
  -2  -5  13   36.29    2.19 
  -1  -5  13   -0.17    0.83 
   0  -5  13   20.33    1.65 
 -16  -4  13   -0.22    1.18 
 -15  -4  13    4.22    1.38 
 -14  -4  13    1.85    1.13 
 -13  -4  13    3.32    1.23 
 -12  -4  13    3.32    1.11 
 -11  -4  13    0.40    0.83 
 -10  -4  13    8.57    1.48 
  -9  -4  13   14.29    1.77 
  -8  -4  13    3.95    1.19 
  -7  -4  13   36.92    2.49 
  -6  -4  13    5.89    1.23 
  -5  -4  13    0.01    0.82 
  -4  -4  13    0.37    0.86 
  -3  -4  13   22.62    1.75 
  -2  -4  13   13.57    1.30 
  -1  -4  13    1.86    0.86 
   0  -4  13    1.99    0.79 
   1  -4  13   26.22    1.70 
 -16  -3  13   -0.12    1.08 
 -15  -3  13    0.81    1.07 
 -14  -3  13    0.96    1.25 
 -13  -3  13    4.34    1.26 
 -12  -3  13    0.89    0.88 
 -11  -3  13    0.30    0.79 
 -10  -3  13    6.65    1.28 
  -9  -3  13   17.93    1.82 
  -8  -3  13   48.62    2.84 
  -7  -3  13   39.50    2.53 
  -6  -3  13   18.29    1.79 
  -5  -3  13   78.14    3.30 
  -4  -3  13    5.23    1.13 
  -3  -3  13   19.12    1.71 
  -2  -3  13   19.86    1.66 
  -1  -3  13    4.91    0.91 
   1  -3  13    9.86    1.22 
 -16  -2  13    0.69    1.37 
 -15  -2  13    3.98    1.28 
 -14  -2  13    6.75    1.37 
 -13  -2  13    1.07    1.13 
 -12  -2  13    5.57    1.31 
 -11  -2  13   -0.32    0.76 
 -10  -2  13    0.71    0.86 
  -9  -2  13   36.97    2.28 
  -8  -2  13    9.58    1.33 
  -7  -2  13   75.44    3.08 
  -6  -2  13   24.73    1.81 
  -5  -2  13    2.02    0.86 
  -4  -2  13    5.77    1.02 
  -3  -2  13   40.00    2.08 
  -2  -2  13   12.32    1.26 
  -1  -2  13   20.56    1.52 
   0  -2  13    0.74    0.49 
   1  -2  13    5.19    0.93 
 -16  -1  13    1.77    1.16 
 -15  -1  13    1.00    1.20 
 -14  -1  13    1.83    1.15 
 -13  -1  13    0.52    0.92 
 -12  -1  13    2.28    1.03 
 -11  -1  13    7.39    1.31 
 -10  -1  13   10.62    1.43 
  -9  -1  13    2.29    0.97 
  -8  -1  13   -0.51    0.79 
  -7  -1  13   -0.19    0.81 
  -6  -1  13    4.43    1.04 
  -5  -1  13    1.33    0.80 
  -4  -1  13   86.08    2.92 
  -3  -1  13    4.05    0.90 
  -2  -1  13   14.37    1.26 
  -1  -1  13    0.43    0.60 
   0  -1  13    1.34    0.51 
   1  -1  13    0.27    0.65 
 -16   0  13    1.24    1.18 
 -15   0  13    3.87    1.24 
 -14   0  13    0.56    1.02 
 -13   0  13    4.39    1.22 
 -12   0  13    0.57    1.01 
 -11   0  13    1.85    1.02 
 -10   0  13   -0.13    0.83 
  -9   0  13   10.32    1.36 
  -8   0  13   -0.47    0.75 
  -7   0  13   46.27    2.37 
  -6   0  13   -0.74    0.77 
  -5   0  13    6.04    1.06 
  -4   0  13   -0.80    0.63 
  -3   0  13    5.13    0.97 
  -2   0  13   -0.02    0.67 
  -1   0  13    0.80    0.61 
   0   0  13   -0.04    0.56 
   1   0  13    2.44    0.71 
   2   0  13   -0.13    0.60 
 -15   1  13    0.10    1.03 
 -14   1  13    1.90    1.24 
 -13   1  13    0.41    0.98 
 -12   1  13    2.30    1.06 
 -11   1  13    6.66    1.26 
 -10   1  13   11.16    1.47 
  -9   1  13    3.04    1.03 
  -8   1  13    0.43    0.85 
  -7   1  13    1.23    0.88 
  -6   1  13    3.94    0.97 
  -5   1  13    1.88    0.84 
  -4   1  13  107.44    3.13 
  -3   1  13    4.76    0.96 
  -2   1  13   13.68    1.18 
  -1   1  13   -0.29    0.71 
   0   1  13   11.95    1.13 
   1   1  13    0.04    0.61 
   2   1  13   14.18    1.14 
 -15   2  13    4.18    1.43 
 -14   2  13    7.82    1.54 
 -13   2  13    0.75    0.98 
 -12   2  13    5.68    1.32 
 -11   2  13   -0.49    0.93 
 -10   2  13    0.69    0.90 
  -9   2  13   40.98    2.24 
  -8   2  13   11.14    1.39 
  -7   2  13   84.59    2.98 
  -6   2  13   27.45    1.82 
  -5   2  13    1.73    0.84 
  -4   2  13    5.45    0.91 
  -3   2  13   40.94    1.88 
  -2   2  13   12.08    1.17 
  -1   2  13   18.93    1.26 
   0   2  13    5.76    0.88 
   1   2  13    2.84    0.70 
   2   2  13   -0.05    0.62 
 -15   3  13    0.67    1.12 
 -14   3  13    0.84    1.15 
 -13   3  13    6.07    1.37 
 -12   3  13    1.03    0.95 
 -11   3  13   -0.23    0.91 
 -10   3  13    6.36    1.30 
  -9   3  13   18.48    1.65 
  -8   3  13   55.35    2.63 
  -7   3  13   40.07    2.06 
  -6   3  13   15.42    1.42 
  -5   3  13   65.36    2.47 
  -4   3  13    3.89    0.89 
  -3   3  13   16.11    1.32 
  -2   3  13   15.83    1.24 
  -1   3  13    4.65    0.93 
   0   3  13   27.11    1.51 
   1   3  13    7.60    0.98 
   2   3  13    0.04    0.40 
 -15   4  13    5.53    1.59 
 -14   4  13    3.94    1.31 
 -13   4  13    4.74    1.29 
 -12   4  13    3.20    1.22 
 -11   4  13   -0.29    1.02 
 -10   4  13    9.80    1.47 
  -9   4  13   15.60    1.51 
  -8   4  13    5.10    1.13 
  -7   4  13   37.89    2.09 
  -6   4  13    4.50    1.05 
  -5   4  13   -0.14    0.72 
  -4   4  13    0.91    0.85 
  -3   4  13   20.94    1.47 
  -2   4  13   14.08    1.24 
  -1   4  13    2.51    0.76 
   0   4  13    0.88    0.64 
   1   4  13   20.07    1.30 
   2   4  13   24.62    1.43 
   3   4  13    0.04    0.50 
 -14   5  13    1.66    1.30 
 -13   5  13    0.10    1.21 
 -12   5  13   -0.59    1.11 
 -11   5  13   12.03    1.53 
 -10   5  13    0.17    0.89 
  -9   5  13   16.14    1.60 
  -8   5  13    1.39    0.95 
  -7   5  13    7.72    1.23 
  -6   5  13   10.63    1.37 
  -5   5  13   27.88    1.80 
  -4   5  13   -0.26    0.73 
  -3   5  13    3.13    0.89 
  -2   5  13   32.48    1.77 
  -1   5  13    0.14    0.67 
   0   5  13   19.32    1.37 
   1   5  13    1.53    0.69 
   2   5  13   19.39    1.53 
   3   5  13   -0.98    0.78 
 -14   6  13    4.29    1.53 
 -13   6  13    0.19    1.16 
 -12   6  13   -0.26    0.91 
 -11   6  13    6.29    1.34 
 -10   6  13    0.70    0.99 
  -9   6  13    1.77    1.00 
  -8   6  13   48.46    2.62 
  -7   6  13   52.28    2.69 
  -6   6  13    2.73    1.01 
  -5   6  13    8.68    1.26 
  -4   6  13    4.75    0.98 
  -3   6  13    2.12    0.84 
  -2   6  13    0.35    0.69 
  -1   6  13    7.96    1.16 
   0   6  13   37.18    2.09 
   1   6  13   23.55    1.55 
   2   6  13   11.26    1.19 
   3   6  13   17.94    1.47 
 -13   7  13    0.16    1.08 
 -12   7  13    7.03    1.19 
 -11   7  13    5.96    1.10 
 -10   7  13    1.49    1.15 
  -9   7  13    4.65    1.24 
  -8   7  13    1.13    0.96 
  -7   7  13    2.14    1.05 
  -6   7  13   15.69    1.64 
  -5   7  13    1.79    0.95 
  -4   7  13    3.60    0.98 
  -3   7  13    0.54    0.79 
  -2   7  13    9.21    1.42 
  -1   7  13    2.66    0.81 
   0   7  13    2.15    0.82 
   1   7  13    0.80    0.75 
   2   7  13   16.37    1.51 
   3   7  13    1.78    0.91 
 -12   8  13    0.13    0.96 
 -11   8  13    0.35    0.96 
 -10   8  13   -0.23    1.04 
  -9   8  13    0.58    1.06 
  -8   8  13   11.02    1.62 
  -7   8  13    0.81    0.97 
  -6   8  13    2.83    1.02 
  -5   8  13   10.65    1.44 
  -4   8  13   13.36    1.56 
  -3   8  13    0.43    1.06 
  -2   8  13    2.09    0.90 
  -1   8  13    1.26    0.90 
   0   8  13   12.99    1.47 
   1   8  13    1.31    0.97 
   2   8  13    0.63    0.91 
   3   8  13   -0.39    0.94 
   4   8  13   -0.21    0.96 
 -10   9  13    0.14    1.25 
  -9   9  13   -0.84    1.04 
  -8   9  13   -0.37    1.00 
  -7   9  13    0.22    1.02 
  -6   9  13    5.16    1.24 
  -5   9  13    2.98    1.07 
  -4   9  13    1.12    1.25 
  -3   9  13   -0.16    0.86 
  -2   9  13    9.36    1.45 
  -1   9  13    0.78    1.01 
   0   9  13   -0.26    0.99 
   1   9  13    0.48    1.08 
   2   9  13   14.24    1.82 
   3   9  13    3.29    1.25 
   4   9  13    0.51    1.14 
  -7  10  13    4.53    1.40 
  -6  10  13    1.13    1.15 
  -5  10  13    1.01    1.18 
  -4  10  13    0.47    1.30 
  -3  10  13    0.26    1.00 
  -2  10  13    0.78    1.14 
  -1  10  13    0.41    1.06 
   0  10  13    0.16    1.16 
   1  10  13    2.15    1.39 
   2  10  13    0.53    1.43 
   3  10  13    2.42    1.45 
   4  10  13    0.40    1.36 
  -2 -11  14    2.42    1.55 
  -6 -10  14    1.24    1.38 
  -5 -10  14    2.63    1.41 
  -4 -10  14    0.67    1.20 
  -3 -10  14   -0.32    1.23 
  -2 -10  14   -0.26    1.09 
  -9  -9  14   -0.15    1.20 
  -8  -9  14    2.32    1.34 
  -7  -9  14    2.61    1.31 
  -6  -9  14    0.28    1.05 
  -5  -9  14   -0.45    0.95 
  -4  -9  14    1.44    1.10 
  -3  -9  14    4.35    1.43 
  -2  -9  14    0.82    1.06 
 -10  -8  14    0.25    1.00 
  -9  -8  14    0.69    1.14 
  -8  -8  14    2.90    1.27 
  -7  -8  14   15.11    1.97 
  -6  -8  14    5.05    1.46 
  -5  -8  14   13.17    1.85 
  -4  -8  14    2.19    1.23 
  -3  -8  14    0.88    0.99 
  -2  -8  14    1.43    1.03 
  -1  -8  14    0.69    0.91 
 -12  -7  14    0.27    0.94 
 -11  -7  14    1.78    1.04 
  -9  -7  14    2.82    1.24 
  -8  -7  14    0.67    1.00 
  -7  -7  14    0.19    0.89 
  -6  -7  14    6.79    1.45 
  -5  -7  14   13.62    1.71 
  -4  -7  14    1.04    0.92 
  -3  -7  14    4.22    1.19 
  -2  -7  14   -0.46    0.87 
  -1  -7  14   -0.14    0.94 
 -13  -6  14    5.25    1.37 
 -12  -6  14    0.17    0.94 
 -11  -6  14    0.88    0.95 
 -10  -6  14    5.55    1.29 
  -9  -6  14    2.92    1.16 
  -8  -6  14    8.41    1.47 
  -7  -6  14   18.43    1.94 
  -6  -6  14    3.12    1.14 
  -5  -6  14    2.15    1.01 
  -4  -6  14   42.67    2.61 
  -3  -6  14   11.35    1.51 
  -2  -6  14   13.03    1.56 
  -1  -6  14    4.09    1.05 
   0  -6  14    3.46    1.10 
 -14  -5  14    1.14    1.18 
 -13  -5  14    3.66    1.21 
 -12  -5  14   -0.46    0.91 
 -11  -5  14    0.79    0.92 
 -10  -5  14   16.33    1.85 
  -9  -5  14   -0.38    0.82 
  -8  -5  14   11.79    1.57 
  -7  -5  14    9.99    1.44 
  -6  -5  14   59.33    3.03 
  -5  -5  14    0.31    0.82 
  -4  -5  14    3.39    1.08 
  -3  -5  14    7.14    1.26 
  -2  -5  14    0.08    0.77 
  -1  -5  14   65.93    2.92 
   0  -5  14   39.54    2.27 
 -15  -4  14   -0.05    1.07 
 -14  -4  14    0.09    1.09 
 -13  -4  14    0.32    0.89 
 -12  -4  14   -0.62    0.80 
 -11  -4  14    1.18    0.94 
 -10  -4  14    3.73    1.22 
  -9  -4  14    8.14    1.46 
  -8  -4  14   44.85    2.68 
  -7  -4  14    2.49    1.04 
  -6  -4  14    0.33    0.86 
  -5  -4  14    1.36    0.91 
  -4  -4  14   48.41    2.65 
  -3  -4  14    0.82    0.92 
  -2  -4  14   70.31    2.88 
  -1  -4  14    4.69    1.01 
   0  -4  14    2.18    0.72 
 -16  -3  14    0.20    1.05 
 -15  -3  14    0.62    1.17 
 -14  -3  14    1.00    1.18 
 -13  -3  14    6.32    1.38 
 -12  -3  14    1.21    0.92 
 -11  -3  14    2.65    1.02 
 -10  -3  14    0.91    0.86 
  -9  -3  14    5.40    1.38 
  -8  -3  14    8.97    1.57 
  -7  -3  14    0.88    1.06 
  -6  -3  14    8.59    1.33 
  -5  -3  14   22.96    1.87 
  -4  -3  14   -0.11    0.86 
  -3  -3  14   39.63    2.42 
  -2  -3  14   17.14    1.64 
  -1  -3  14   52.06    2.35 
   0  -3  14    0.61    0.56 
 -16  -2  14    7.09    1.58 
 -15  -2  14    3.47    1.28 
 -14  -2  14    1.45    1.12 
 -13  -2  14    1.72    1.24 
 -12  -2  14    4.27    1.23 
 -11  -2  14    0.84    0.93 
 -10  -2  14    0.18    0.81 
  -9  -2  14    1.86    0.94 
  -8  -2  14    0.87    0.95 
  -7  -2  14    6.11    1.20 
  -6  -2  14    0.09    0.77 
  -5  -2  14    1.24    0.84 
  -4  -2  14    4.03    0.99 
  -3  -2  14    2.39    0.87 
  -2  -2  14   90.41    3.12 
  -1  -2  14   38.38    2.04 
   0  -2  14    0.38    0.56 
 -16  -1  14    0.13    1.28 
 -15  -1  14    1.29    1.25 
 -14  -1  14    1.10    1.14 
 -13  -1  14    7.85    1.43 
 -12  -1  14    1.01    0.98 
 -11  -1  14    1.94    0.97 
 -10  -1  14    2.72    1.01 
  -9  -1  14   21.13    1.87 
  -8  -1  14    1.05    0.99 
  -7  -1  14   22.68    1.88 
  -6  -1  14   21.65    1.77 
  -5  -1  14   26.81    1.82 
  -4  -1  14   -0.23    0.75 
  -3  -1  14    1.54    0.79 
  -2  -1  14   16.43    1.38 
  -1  -1  14    7.38    1.04 
   0  -1  14    0.71    0.48 
   1  -1  14   11.20    1.20 
 -16   0  14    4.49    1.43 
 -15   0  14    0.57    1.09 
 -14   0  14    3.07    1.22 
 -13   0  14    0.27    0.94 
 -12   0  14    1.65    1.02 
 -11   0  14    0.16    0.92 
 -10   0  14    0.18    0.87 
  -9   0  14    0.13    0.90 
  -8   0  14   -1.14    0.71 
  -7   0  14   -0.53    0.79 
  -6   0  14   33.45    2.08 
  -5   0  14   -0.25    0.81 
  -4   0  14    0.57    0.73 
  -3   0  14   -0.59    0.63 
  -2   0  14   33.13    1.82 
  -1   0  14   -0.02    0.65 
   0   0  14    0.11    0.52 
   1   0  14   -0.17    0.66 
 -16   1  14    1.79    1.35 
 -15   1  14    0.96    1.08 
 -14   1  14    1.74    1.14 
 -13   1  14    9.20    1.55 
 -12   1  14    1.13    1.05 
 -11   1  14    0.88    0.90 
 -10   1  14    2.70    1.06 
  -9   1  14   24.57    1.98 
  -8   1  14    1.53    0.96 
  -7   1  14   20.19    1.69 
  -6   1  14   21.98    1.59 
  -5   1  14   29.16    1.80 
  -4   1  14    0.12    0.76 
  -3   1  14    0.81    0.77 
  -2   1  14   15.54    1.32 
  -1   1  14    7.23    1.02 
   0   1  14    0.42    0.64 
   1   1  14    9.23    1.02 
 -16   2  14    6.62    1.71 
 -15   2  14    2.78    1.34 
 -14   2  14    1.02    1.16 
 -13   2  14   -0.38    0.89 
 -12   2  14    5.44    1.36 
 -11   2  14    0.45    0.91 
 -10   2  14    0.26    0.86 
  -9   2  14    1.76    0.96 
  -8   2  14    1.58    0.99 
  -7   2  14    6.88    1.26 
  -6   2  14   -0.04    0.83 
  -5   2  14    0.89    0.89 
  -4   2  14    3.38    0.84 
  -3   2  14    0.35    0.69 
  -2   2  14   86.48    2.67 
  -1   2  14   30.38    1.64 
   0   2  14   -0.15    0.62 
   1   2  14   11.67    1.03 
   2   2  14    0.08    0.71 
 -15   3  14    1.33    1.17 
 -14   3  14    3.22    1.33 
 -13   3  14    6.39    1.41 
 -12   3  14    1.19    1.11 
 -11   3  14    1.55    0.98 
 -10   3  14    0.33    0.96 
  -9   3  14    6.95    1.27 
  -8   3  14    7.47    1.27 
  -7   3  14    1.98    0.94 
  -6   3  14    7.91    1.06 
  -5   3  14   25.20    1.69 
  -4   3  14   -0.12    0.72 
  -3   3  14   30.34    1.70 
  -2   3  14   12.40    1.21 
  -1   3  14   45.90    2.00 
   0   3  14    0.53    0.66 
   1   3  14   -0.10    0.63 
   2   3  14    1.89    0.62 
 -15   4  14    0.82    1.28 
 -14   4  14    1.29    1.25 
 -13   4  14   -1.03    0.92 
 -12   4  14   -0.43    0.97 
 -11   4  14    0.41    1.04 
 -10   4  14    4.24    1.20 
  -9   4  14    9.10    1.30 
  -8   4  14   53.15    2.57 
  -7   4  14    2.87    0.99 
  -6   4  14    0.08    0.79 
  -5   4  14    0.69    0.82 
  -4   4  14   46.34    2.18 
  -3   4  14    0.26    0.74 
  -2   4  14   67.51    2.55 
  -1   4  14    5.05    0.94 
   0   4  14    8.14    1.04 
   1   4  14   -0.22    0.73 
   2   4  14    3.11    0.84 
 -15   5  14    1.39    1.39 
 -14   5  14    0.53    1.22 
 -13   5  14    3.63    1.44 
 -12   5  14   -0.46    1.01 
 -11   5  14    0.27    0.96 
 -10   5  14   19.36    1.84 
  -9   5  14    0.21    0.92 
  -8   5  14   14.96    1.55 
  -7   5  14    9.64    1.36 
  -6   5  14   56.71    2.59 
  -5   5  14    0.27    0.81 
  -4   5  14    3.85    0.94 
  -3   5  14    6.12    1.06 
  -2   5  14    0.03    0.70 
  -1   5  14   56.36    2.31 
   0   5  14   33.53    1.82 
   1   5  14   13.44    1.25 
   2   5  14    1.16    0.70 
 -14   6  14    0.35    1.30 
 -13   6  14    4.97    1.47 
 -12   6  14    0.02    0.98 
 -11   6  14    0.60    1.02 
 -10   6  14    5.27    1.32 
  -9   6  14    3.72    1.14 
  -8   6  14    9.01    1.42 
  -7   6  14   19.12    1.81 
  -6   6  14    2.40    1.00 
  -5   6  14    1.93    0.92 
  -4   6  14   41.62    2.25 
  -3   6  14   11.25    1.27 
  -2   6  14   11.01    1.25 
  -1   6  14    3.40    0.87 
   0   6  14    4.13    0.96 
   1   6  14   20.04    1.73 
   2   6  14    0.89    0.90 
   3   6  14   28.82    1.95 
 -13   7  14    0.75    1.15 
 -12   7  14    0.11    1.15 
 -11   7  14    2.03    1.20 
 -10   7  14   25.82    2.27 
  -9   7  14    1.65    1.12 
  -8   7  14   -1.31    0.88 
  -7   7  14    0.00    0.84 
  -6   7  14    5.98    1.24 
  -5   7  14   16.07    1.67 
  -4   7  14    1.03    0.81 
  -3   7  14    4.70    1.03 
  -2   7  14   -0.15    0.70 
  -1   7  14   -0.32    0.81 
   0   7  14    0.56    0.92 
   1   7  14    0.18    0.79 
   2   7  14   -0.24    0.70 
   3   7  14    1.01    0.83 
 -11   8  14    0.99    1.16 
 -10   8  14   -0.55    1.09 
  -9   8  14   -0.23    1.07 
  -8   8  14    3.08    1.20 
  -7   8  14   20.63    2.00 
  -6   8  14    6.09    1.28 
  -5   8  14   12.63    1.61 
  -4   8  14    1.14    0.97 
  -3   8  14    0.06    0.82 
  -2   8  14    1.70    1.17 
  -1   8  14    1.77    1.04 
   0   8  14   -0.27    0.75 
   1   8  14    1.07    0.98 
   2   8  14    0.66    0.92 
   3   8  14    0.94    1.01 
  -9   9  14   -0.43    1.10 
  -8   9  14    2.14    1.22 
  -7   9  14    3.33    1.29 
  -6   9  14    0.16    0.94 
  -5   9  14   -0.09    1.05 
  -4   9  14    2.79    1.18 
  -3   9  14    5.94    1.58 
  -2   9  14    0.18    1.02 
  -1   9  14    2.43    1.11 
   0   9  14    2.49    1.15 
   1   9  14   17.44    1.89 
   2   9  14    2.32    1.26 
   3   9  14   -0.47    1.07 
  -6  10  14    0.59    1.15 
  -5  10  14    1.58    1.30 
  -4  10  14    0.66    1.36 
  -3  10  14   -0.99    1.19 
  -2  10  14   -0.03    1.08 
  -1  10  14    0.15    1.15 
   0  10  14    2.47    1.41 
   1  10  14    2.09    1.29 
   2  10  14   -0.15    1.21 
   3  10  14    2.47    1.46 
  -5 -10  15    2.53    1.60 
  -4 -10  15    0.97    1.43 
  -3 -10  15    0.57    1.33 
  -8  -9  15    0.70    1.51 
  -7  -9  15   -0.35    1.22 
  -6  -9  15    0.54    1.16 
  -5  -9  15    1.32    1.30 
  -4  -9  15    2.80    1.39 
  -3  -9  15    0.49    1.09 
  -2  -9  15    1.63    1.30 
 -10  -8  15    2.15    1.41 
  -9  -8  15   -0.16    1.09 
  -8  -8  15    0.20    1.05 
  -7  -8  15    0.57    1.19 
  -6  -8  15    0.74    1.16 
  -5  -8  15    2.08    1.23 
  -4  -8  15    1.32    1.14 
  -3  -8  15    5.85    1.58 
  -2  -8  15    0.23    0.92 
 -11  -7  15    0.07    1.00 
 -10  -7  15    1.32    1.19 
  -9  -7  15    1.51    1.13 
  -8  -7  15    1.65    1.16 
  -7  -7  15    0.17    0.96 
  -6  -7  15   -0.19    0.93 
  -5  -7  15    1.49    1.05 
  -4  -7  15    3.25    1.14 
  -3  -7  15    0.56    0.98 
  -2  -7  15    0.26    0.92 
  -1  -7  15    1.64    1.05 
 -13  -6  15    0.23    1.00 
 -12  -6  15    0.36    1.03 
 -11  -6  15    3.22    1.18 
 -10  -6  15    0.94    1.01 
  -9  -6  15   10.01    1.65 
  -8  -6  15    0.54    0.96 
  -7  -6  15    6.88    1.41 
  -6  -6  15    8.15    1.48 
  -5  -6  15   25.10    2.19 
  -4  -6  15    1.23    0.95 
  -3  -6  15    0.64    0.92 
  -2  -6  15    6.42    1.27 
  -1  -6  15   -0.57    0.85 
 -14  -5  15    0.79    1.16 
 -13  -5  15    0.35    0.99 
 -12  -5  15    0.90    1.09 
 -11  -5  15    0.18    0.96 
 -10  -5  15    2.58    1.04 
  -9  -5  15    3.72    1.19 
  -8  -5  15    3.43    1.12 
  -7  -5  15   10.23    1.47 
  -6  -5  15    0.32    0.85 
  -5  -5  15    0.07    0.84 
  -4  -5  15    2.25    1.02 
  -3  -5  15    3.74    1.12 
  -2  -5  15    0.89    0.89 
  -1  -5  15   20.88    1.81 
 -14  -4  15    0.95    1.01 
 -13  -4  15    1.12    0.99 
 -12  -4  15    4.02    1.28 
 -11  -4  15    0.94    1.00 
 -10  -4  15    9.09    1.54 
  -9  -4  15    0.56    0.94 
  -8  -4  15    2.75    1.06 
  -7  -4  15    0.59    0.92 
  -6  -4  15   -0.12    0.84 
  -5  -4  15    9.09    1.41 
  -4  -4  15   59.52    3.08 
  -3  -4  15   39.15    2.51 
  -2  -4  15   18.09    1.80 
  -1  -4  15    0.29    0.84 
 -15  -3  15    2.43    1.38 
 -14  -3  15    1.68    1.17 
 -13  -3  15    0.54    0.95 
 -12  -3  15    0.69    0.86 
 -11  -3  15    3.96    1.10 
 -10  -3  15    0.07    0.94 
  -9  -3  15   -0.35    1.06 
  -8  -3  15    0.31    1.00 
  -7  -3  15   12.08    1.69 
  -6  -3  15    1.22    0.98 
  -5  -3  15   23.44    1.99 
  -4  -3  15   11.56    1.58 
  -3  -3  15   15.33    1.73 
  -2  -3  15    0.67    0.99 
  -1  -3  15   22.13    1.69 
   0  -3  15    0.69    0.69 
 -16  -2  15    0.27    1.14 
 -15  -2  15    0.63    1.06 
 -14  -2  15    3.20    1.39 
 -13  -2  15    4.05    1.38 
 -12  -2  15    3.67    1.22 
 -11  -2  15    2.17    1.10 
 -10  -2  15    1.68    0.96 
  -9  -2  15    7.24    1.27 
  -8  -2  15   24.01    2.03 
  -7  -2  15    0.31    0.89 
  -6  -2  15   67.72    3.06 
  -5  -2  15    1.21    0.88 
  -4  -2  15    1.70    0.90 
  -3  -2  15    9.68    1.27 
  -2  -2  15   18.38    1.59 
  -1  -2  15   26.12    1.85 
   0  -2  15    7.82    1.03 
 -16  -1  15    7.45    1.82 
 -15  -1  15    3.96    1.43 
 -14  -1  15    1.32    1.12 
 -13  -1  15    5.22    1.32 
 -12  -1  15   13.83    1.76 
 -11  -1  15    1.33    0.99 
 -10  -1  15    1.30    0.96 
  -9  -1  15    0.62    0.88 
  -8  -1  15   75.79    3.26 
  -7  -1  15   42.26    2.51 
  -6  -1  15    0.44    0.89 
  -5  -1  15   12.94    1.47 
  -4  -1  15   14.99    1.50 
  -3  -1  15    1.50    0.80 
  -2  -1  15   29.44    1.87 
  -1  -1  15    8.05    1.24 
   0  -1  15    0.59    0.55 
 -16   0  15    0.61    1.28 
 -15   0  15    3.16    1.39 
 -14   0  15    0.17    1.04 
 -13   0  15    3.50    1.17 
 -12   0  15    0.04    0.97 
 -11   0  15    0.41    0.99 
 -10   0  15   -0.34    0.83 
  -9   0  15    9.78    1.40 
  -8   0  15   -0.43    0.90 
  -7   0  15    1.10    0.95 
  -6   0  15   -0.05    0.85 
  -5   0  15  104.77    3.57 
  -4   0  15    0.41    0.84 
  -3   0  15   16.78    1.48 
  -2   0  15   -0.04    0.69 
  -1   0  15   35.68    1.96 
   0   0  15   -0.03    0.67 
   1   0  15   -0.24    0.72 
 -16   1  15    8.71    1.73 
 -15   1  15    4.16    1.40 
 -14   1  15    1.62    1.20 
 -13   1  15    5.27    1.41 
 -12   1  15   13.66    1.74 
 -11   1  15    0.55    0.99 
 -10   1  15    1.32    0.98 
  -9   1  15   -0.06    0.95 
  -8   1  15   77.00    3.16 
  -7   1  15   38.94    2.25 
  -6   1  15   -0.24    0.82 
  -5   1  15   12.63    1.34 
  -4   1  15   17.06    1.46 
  -3   1  15    1.96    0.80 
  -2   1  15   31.28    1.83 
  -1   1  15    5.94    0.98 
   0   1  15    0.63    0.80 
   1   1  15    6.34    1.01 
 -16   2  15    0.41    1.23 
 -15   2  15    0.13    1.17 
 -14   2  15    3.06    1.26 
 -13   2  15    2.27    1.12 
 -12   2  15    2.58    1.19 
 -11   2  15    2.02    1.07 
 -10   2  15    2.15    1.00 
  -9   2  15   11.08    1.45 
  -8   2  15   25.95    1.93 
  -7   2  15    0.77    0.98 
  -6   2  15   68.24    2.82 
  -5   2  15    1.43    0.86 
  -4   2  15    1.64    0.89 
  -3   2  15    8.97    1.11 
  -2   2  15   15.73    1.34 
  -1   2  15   22.14    1.45 
   0   2  15   17.32    1.33 
   1   2  15   -0.23    0.42 
 -15   3  15    3.79    1.37 
 -13   3  15    0.14    1.15 
 -12   3  15    1.02    1.02 
 -11   3  15    3.44    1.20 
 -10   3  15   -0.80    0.81 
  -9   3  15   -0.21    0.93 
  -8   3  15    0.62    0.87 
  -7   3  15   12.58    1.50 
  -6   3  15    1.64    0.91 
  -5   3  15   21.51    1.64 
  -4   3  15    9.41    1.16 
  -3   3  15   11.42    1.23 
  -2   3  15    0.62    0.70 
  -1   3  15   22.42    1.48 
   0   3  15   -0.08    0.66 
   1   3  15   13.62    1.22 
 -15   4  15    1.65    1.36 
 -13   4  15    0.55    1.07 
 -12   4  15    4.51    1.35 
 -11   4  15    0.03    1.05 
 -10   4  15   11.08    1.57 
  -9   4  15    0.59    0.95 
  -8   4  15    3.19    1.05 
  -7   4  15    1.08    0.89 
  -6   4  15    0.70    0.89 
  -5   4  15    8.60    1.18 
  -4   4  15   48.18    2.30 
  -3   4  15   34.39    1.92 
  -2   4  15   13.93    1.33 
  -1   4  15    0.19    0.76 
   0   4  15    6.51    1.02 
   1   4  15    0.40    0.69 
   2   4  15    0.38    0.68 
 -14   5  15    0.52    1.11 
 -13   5  15    1.17    1.21 
 -12   5  15    1.41    1.16 
 -11   5  15    0.33    1.12 
 -10   5  15    2.59    1.05 
  -9   5  15    3.72    1.14 
  -8   5  15    5.47    1.21 
  -7   5  15   10.68    1.35 
  -6   5  15   -0.03    0.84 
  -5   5  15    0.34    0.79 
  -4   5  15    2.13    0.93 
  -3   5  15    2.94    0.91 
  -2   5  15    0.80    0.74 
  -1   5  15   17.69    1.52 
   0   5  15    6.46    1.11 
   1   5  15    0.79    0.75 
   2   5  15    9.16    1.17 
 -13   6  15    1.32    1.31 
 -12   6  15   -0.42    1.08 
 -11   6  15    3.47    1.18 
 -10   6  15    0.96    1.16 
  -9   6  15   12.85    1.55 
  -8   6  15    0.36    0.84 
  -7   6  15    5.86    1.20 
  -6   6  15    8.20    1.37 
  -5   6  15   25.02    1.89 
  -4   6  15    0.63    0.86 
  -3   6  15    0.48    0.83 
  -2   6  15    5.64    1.07 
  -1   6  15   -0.43    0.67 
   0   6  15    2.36    0.84 
   1   6  15    0.20    0.79 
   2   6  15    0.10    0.81 
 -12   7  15   -0.09    1.12 
 -11   7  15    1.11    1.12 
 -10   7  15    1.61    1.08 
  -9   7  15    1.95    1.17 
  -8   7  15    1.12    1.02 
  -7   7  15   -0.97    0.90 
  -6   7  15   -0.41    0.88 
  -5   7  15    1.09    0.99 
  -4   7  15    3.12    1.06 
  -3   7  15    0.63    0.90 
  -2   7  15    0.22    0.80 
  -1   7  15    1.99    0.84 
   0   7  15    0.45    0.81 
   1   7  15   -0.51    0.76 
   2   7  15    1.55    1.15 
 -10   8  15    0.55    1.17 
  -9   8  15   -0.74    0.95 
  -8   8  15   -0.11    1.10 
  -7   8  15   -0.24    0.92 
  -6   8  15    0.02    1.16 
  -5   8  15    1.85    1.12 
  -4   8  15    1.15    0.98 
  -3   8  15    5.76    1.25 
  -2   8  15   -0.50    0.82 
  -1   8  15    1.08    0.97 
   0   8  15    5.22    1.40 
   1   8  15    5.66    1.39 
   2   8  15    7.77    1.40 
  -8   9  15    0.71    1.17 
  -7   9  15    0.02    1.12 
  -6   9  15   -0.13    1.09 
  -5   9  15    1.26    1.19 
  -4   9  15    3.00    1.23 
  -3   9  15    1.94    1.14 
  -2   9  15    1.46    1.06 
  -1   9  15   -0.15    1.22 
   0   9  15    6.71    1.75 
   1   9  15    1.12    1.10 
   2   9  15   -0.04    1.17 
  -3  10  15    1.10    1.35 
  -2  10  15    0.42    1.51 
  -1  10  15    1.27    1.51 
   0  10  15    0.12    1.16 
   1  10  15    0.55    1.26 
   2  10  15   -0.20    1.30 
  -4 -10  16    1.14    1.61 
  -3 -10  16    2.54    1.68 
  -7  -9  16   -0.07    1.36 
  -6  -9  16    0.31    1.23 
  -5  -9  16    5.39    1.58 
  -4  -9  16   -0.06    1.23 
  -3  -9  16    1.99    1.31 
  -9  -8  16    1.87    1.45 
  -8  -8  16   -0.08    1.17 
  -7  -8  16   -0.17    1.19 
  -6  -8  16    6.87    1.72 
  -5  -8  16   13.41    1.99 
  -4  -8  16    1.27    1.18 
  -3  -8  16    3.74    1.50 
  -2  -8  16    1.96    1.28 
 -11  -7  16    0.00    1.06 
 -10  -7  16    3.31    1.41 
  -9  -7  16    7.28    1.59 
  -8  -7  16   23.61    2.39 
  -7  -7  16    0.55    1.05 
  -6  -7  16    7.23    1.54 
  -5  -7  16    3.52    1.31 
  -4  -7  16   14.19    1.82 
  -3  -7  16    1.99    1.13 
  -2  -7  16    1.75    1.10 
 -12  -6  16    0.47    1.09 
 -11  -6  16    0.27    0.98 
 -10  -6  16    5.06    1.45 
  -9  -6  16    1.72    1.21 
  -8  -6  16   -0.04    1.01 
  -7  -6  16   13.04    1.80 
  -6  -6  16    2.89    1.19 
  -5  -6  16    4.87    1.29 
  -4  -6  16    6.15    1.35 
  -3  -6  16    1.94    1.06 
  -2  -6  16   14.92    1.76 
 -13  -5  16    0.48    1.02 
 -12  -5  16   -0.54    0.99 
 -11  -5  16    7.26    1.46 
 -10  -5  16    0.60    1.03 
  -9  -5  16    0.91    1.01 
  -8  -5  16    5.47    1.27 
  -7  -5  16    0.17    0.87 
  -6  -5  16    0.74    0.94 
  -5  -5  16    3.80    1.16 
  -4  -5  16    3.83    1.21 
  -3  -5  16   13.94    1.76 
  -2  -5  16    0.42    0.96 
  -1  -5  16   -0.48    0.94 
 -14  -4  16    1.73    1.08 
 -13  -4  16    0.12    0.90 
 -12  -4  16    0.16    0.94 
 -11  -4  16    0.13    1.00 
 -10  -4  16    2.81    1.21 
  -9  -4  16    3.03    1.21 
  -8  -4  16    3.81    1.18 
  -7  -4  16    3.26    1.11 
  -6  -4  16    0.47    0.90 
  -5  -4  16    1.26    0.94 
  -4  -4  16   17.49    1.79 
  -3  -4  16    1.20    1.05 
  -2  -4  16   36.53    2.38 
  -1  -4  16    0.85    0.91 
 -14  -3  16    0.15    1.06 
 -13  -3  16    3.33    1.21 
 -12  -3  16    0.70    0.92 
 -11  -3  16    4.42    1.26 
 -10  -3  16    0.12    0.91 
  -9  -3  16    0.96    1.13 
  -8  -3  16    0.07    1.02 
  -7  -3  16   13.45    1.70 
  -6  -3  16    9.68    1.54 
  -5  -3  16   18.27    1.88 
  -4  -3  16    7.72    1.45 
  -3  -3  16   -0.09    0.97 
  -2  -3  16   11.13    1.57 
  -1  -3  16    1.52    0.89 
 -15  -2  16    0.57    1.18 
 -13  -2  16    0.31    1.17 
 -12  -2  16    2.19    1.17 
 -11  -2  16    6.88    1.38 
 -10  -2  16    1.38    0.96 
  -9  -2  16    4.24    1.13 
  -8  -2  16    0.73    0.99 
  -7  -2  16   53.17    2.89 
  -6  -2  16   28.53    2.17 
  -5  -2  16    5.03    1.16 
  -4  -2  16   37.02    2.30 
  -3  -2  16    1.06    0.88 
  -2  -2  16    1.07    0.99 
  -1  -2  16  110.25    3.62 
   0  -2  16    5.01    1.00 
 -15  -1  16    7.78    1.68 
 -14  -1  16    0.00    0.98 
 -13  -1  16    0.28    0.95 
 -12  -1  16    1.03    1.04 
 -11  -1  16    1.50    1.01 
 -10  -1  16    1.35    1.00 
  -9  -1  16    1.41    1.03 
  -8  -1  16    9.85    1.51 
  -7  -1  16    0.04    0.94 
  -6  -1  16   -0.37    0.89 
  -5  -1  16   12.39    1.52 
  -4  -1  16    7.30    1.27 
  -3  -1  16   24.72    1.88 
  -2  -1  16    4.29    1.08 
  -1  -1  16   35.78    2.12 
 -15   0  16    1.20    1.18 
 -14   0  16   14.04    1.94 
 -13   0  16    0.96    1.02 
 -12   0  16    9.45    1.54 
 -11   0  16    0.03    0.89 
 -10   0  16    7.78    1.42 
  -9   0  16    0.02    0.87 
  -8   0  16   36.82    2.40 
  -7   0  16   -0.80    0.81 
  -6   0  16   16.80    1.63 
  -5   0  16   -0.26    0.85 
  -4   0  16   23.35    1.82 
  -3   0  16   -0.47    0.78 
  -2   0  16   -0.36    0.77 
  -1   0  16    0.15    0.84 
   0   0  16   26.01    1.70 
 -15   1  16    7.86    1.67 
 -14   1  16    0.45    1.12 
 -13   1  16    0.16    1.05 
 -12   1  16    0.44    1.07 
 -11   1  16    0.98    1.00 
 -10   1  16    1.97    1.01 
  -9   1  16    1.45    1.05 
  -8   1  16   11.15    1.53 
  -7   1  16   -0.02    0.89 
  -6   1  16    0.53    0.91 
  -5   1  16   14.59    1.49 
  -4   1  16    6.21    1.06 
  -3   1  16   23.08    1.63 
  -2   1  16    3.83    1.00 
  -1   1  16   30.15    1.77 
   0   1  16   15.61    1.35 
 -15   2  16    3.47    1.45 
 -14   2  16    2.60    1.27 
 -13   2  16    0.73    1.00 
 -12   2  16    2.33    1.17 
 -11   2  16    6.45    1.38 
 -10   2  16    0.77    0.94 
  -9   2  16    5.08    1.20 
  -8   2  16    1.44    0.97 
  -7   2  16   55.67    2.70 
  -6   2  16   33.29    2.19 
  -5   2  16    4.91    1.12 
  -4   2  16   36.49    2.05 
  -3   2  16    0.17    0.83 
  -2   2  16    0.76    0.82 
  -1   2  16   98.10    3.12 
   0   2  16    7.40    1.15 
   1   2  16    0.11    0.49 
 -15   3  16    1.41    1.31 
 -14   3  16    1.54    1.31 
 -13   3  16    3.57    1.30 
 -12   3  16    0.49    1.07 
 -11   3  16    4.21    1.22 
 -10   3  16   -0.05    0.88 
  -9   3  16    0.17    0.93 
  -8   3  16    0.41    0.93 
  -7   3  16   14.00    1.52 
  -6   3  16   10.89    1.42 
  -5   3  16   18.94    1.56 
  -4   3  16    6.61    1.07 
  -3   3  16   -0.20    0.69 
  -2   3  16    7.99    1.10 
  -1   3  16    1.02    0.81 
   0   3  16    3.57    0.89 
   1   3  16   23.40    1.52 
 -14   4  16    2.32    1.30 
 -13   4  16    0.75    1.11 
 -12   4  16   -0.24    0.98 
 -11   4  16    0.66    1.11 
 -10   4  16    2.81    1.13 
  -9   4  16    2.61    1.09 
  -8   4  16    3.30    1.04 
  -7   4  16    4.12    1.10 
  -6   4  16    0.80    0.86 
  -5   4  16    1.89    0.89 
  -4   4  16   17.69    1.49 
  -3   4  16    0.23    0.75 
  -2   4  16   29.84    1.86 
  -1   4  16    1.06    0.83 
   0   4  16    0.03    0.69 
   1   4  16    1.58    0.78 
 -13   5  16    0.24    1.14 
 -11   5  16    8.14    1.53 
 -10   5  16    1.02    1.01 
  -9   5  16    0.34    0.87 
  -8   5  16    6.72    1.26 
  -7   5  16    0.22    0.86 
  -6   5  16   -0.60    0.81 
  -5   5  16    2.57    0.98 
  -4   5  16    4.19    1.00 
  -3   5  16   11.91    1.38 
  -2   5  16    0.74    0.83 
  -1   5  16    0.00    0.72 
   0   5  16    0.18    0.81 
   1   5  16   10.30    1.23 
 -12   6  16    1.06    1.20 
 -11   6  16    0.23    0.94 
 -10   6  16    4.81    1.33 
  -9   6  16    1.25    1.03 
  -8   6  16   -0.69    0.81 
  -7   6  16   14.01    1.69 
  -6   6  16    2.25    1.04 
  -5   6  16    4.90    1.16 
  -4   6  16    5.27    1.18 
  -3   6  16    0.87    0.84 
  -2   6  16   13.12    1.44 
  -1   6  16   28.50    1.95 
   0   6  16    0.84    0.84 
   1   6  16    2.41    0.91 
 -11   7  16   -0.54    1.05 
 -10   7  16    3.40    1.24 
  -9   7  16    8.58    1.55 
  -8   7  16   29.20    2.34 
  -7   7  16    0.15    1.06 
  -6   7  16    6.74    1.46 
  -5   7  16    2.84    1.12 
  -4   7  16   13.61    1.63 
  -3   7  16    1.12    1.01 
  -2   7  16    1.55    0.96 
  -1   7  16   -0.28    0.81 
   0   7  16   17.72    1.65 
   1   7  16   -0.92    0.78 
   2   7  16    2.38    1.06 
  -9   8  16   -0.26    1.09 
  -8   8  16   -0.36    1.08 
  -7   8  16    0.07    1.03 
  -6   8  16    5.01    1.42 
  -5   8  16   13.66    1.81 
  -4   8  16    0.40    0.99 
  -3   8  16    3.12    1.16 
  -2   8  16    1.61    1.11 
  -1   8  16    4.24    1.18 
   0   8  16    8.33    1.47 
   1   8  16    1.87    1.05 
   2   8  16   -0.28    0.97 
  -6   9  16   -0.80    1.25 
  -5   9  16    5.02    1.49 
  -4   9  16   -0.17    1.22 
  -3   9  16    1.71    1.24 
  -2   9  16    0.27    1.05 
  -1   9  16    4.58    1.31 
   0   9  16   -0.45    1.11 
   1   9  16    4.77    1.75 
   2   9  16   -0.70    1.35 
  -6  -9  17    2.49    1.61 
  -5  -9  17    0.64    1.48 
  -4  -9  17   -0.36    1.20 
  -3  -9  17    0.35    1.42 
  -8  -8  17    9.71    1.95 
  -7  -8  17   -0.04    1.31 
  -6  -8  17    0.69    1.45 
  -5  -8  17    1.81    1.41 
  -4  -8  17    2.50    1.39 
  -3  -8  17    0.63    1.25 
 -10  -7  17    0.84    1.30 
  -9  -7  17    3.63    1.48 
  -8  -7  17    1.10    1.27 
  -7  -7  17    0.89    1.16 
  -6  -7  17    0.43    1.10 
  -5  -7  17    3.86    1.43 
  -4  -7  17    0.60    1.15 
  -3  -7  17    1.80    1.30 
 -11  -6  17    0.33    1.14 
 -10  -6  17    5.74    1.54 
  -9  -6  17    1.10    1.18 
  -8  -6  17    0.04    1.00 
  -7  -6  17    1.16    1.12 
  -6  -6  17    3.71    1.39 
  -5  -6  17    3.28    1.24 
  -4  -6  17    0.52    1.05 
  -3  -6  17    2.65    1.25 
  -2  -6  17   10.46    1.66 
 -12  -5  17    1.14    1.18 
 -11  -5  17    0.94    1.03 
 -10  -5  17   -0.66    1.03 
  -9  -5  17   -0.27    1.04 
  -8  -5  17    0.86    0.99 
  -7  -5  17    3.68    1.19 
  -6  -5  17    1.11    0.99 
  -5  -5  17    0.46    0.93 
  -4  -5  17    0.55    1.02 
  -3  -5  17    2.48    1.14 
  -2  -5  17    1.57    1.19 
 -13  -4  17    2.95    1.22 
 -12  -4  17    2.85    1.36 
 -11  -4  17    1.73    1.13 
 -10  -4  17    0.32    1.06 
  -9  -4  17    1.94    1.13 
  -8  -4  17    7.41    1.47 
  -7  -4  17    4.79    1.23 
  -6  -4  17   -0.07    0.86 
  -5  -4  17    7.03    1.33 
  -4  -4  17    1.25    0.97 
  -3  -4  17    3.03    1.25 
  -2  -4  17    6.74    1.36 
 -14  -3  17    0.09    1.13 
 -13  -3  17    0.09    0.90 
 -12  -3  17   -0.07    0.83 
 -11  -3  17    2.97    1.14 
 -10  -3  17    3.51    1.41 
  -9  -3  17    6.99    1.62 
  -8  -3  17    5.37    1.46 
  -7  -3  17   11.09    1.73 
  -6  -3  17    4.44    1.26 
  -5  -3  17   11.04    1.82 
  -4  -3  17    4.50    1.34 
  -3  -3  17    5.24    1.40 
  -2  -3  17    0.01    1.00 
  -1  -3  17   -0.47    0.90 
 -14  -2  17   -0.15    1.20 
 -13  -2  17    7.09    1.63 
 -12  -2  17    1.11    1.04 
 -11  -2  17   -0.32    0.88 
 -10  -2  17    0.46    0.95 
  -9  -2  17    0.34    0.97 
  -8  -2  17   23.02    2.10 
  -7  -2  17    1.86    1.11 
  -6  -2  17    3.07    1.11 
  -5  -2  17   -0.17    0.99 
  -4  -2  17   43.17    2.55 
  -3  -2  17   10.97    1.48 
  -2  -2  17    2.98    1.15 
  -1  -2  17   -0.05    0.95 
 -14  -1  17   11.89    1.81 
 -13  -1  17    0.67    1.03 
 -12  -1  17    0.51    1.02 
 -11  -1  17    1.03    0.98 
 -10  -1  17   10.93    1.63 
  -9  -1  17   11.25    1.56 
  -8  -1  17   -0.06    0.92 
  -7  -1  17    4.15    1.20 
  -6  -1  17   21.02    1.96 
  -5  -1  17    8.98    1.48 
  -4  -1  17    2.85    1.08 
  -3  -1  17   15.78    1.66 
  -2  -1  17  137.95    4.21 
  -1  -1  17    6.15    1.19 
 -15   0  17    1.88    1.33 
 -14   0  17    0.37    1.10 
 -13   0  17    4.20    1.34 
 -12   0  17    0.49    1.01 
 -11   0  17   -0.55    0.92 
 -10   0  17    0.90    0.98 
  -9   0  17    1.52    1.04 
  -8   0  17    0.02    0.93 
  -7   0  17   33.17    2.25 
  -6   0  17   -0.08    0.83 
  -5   0  17    5.18    1.09 
  -4   0  17   -0.18    0.77 
  -3   0  17    9.50    1.33 
  -2   0  17   -0.57    0.79 
  -1   0  17    7.89    1.21 
 -15   1  17    0.73    1.26 
 -14   1  17   15.17    2.02 
 -13   1  17    0.87    1.13 
 -12   1  17    1.69    1.14 
 -11   1  17    1.61    1.06 
 -10   1  17   10.08    1.46 
  -9   1  17   11.59    1.59 
  -8   1  17   -0.21    1.00 
  -7   1  17    4.78    1.21 
  -6   1  17   22.80    1.84 
  -5   1  17    8.76    1.29 
  -4   1  17    3.39    1.01 
  -3   1  17   15.09    1.48 
  -2   1  17  131.79    3.74 
  -1   1  17    5.41    1.01 
   0   1  17    0.47    0.83 
 -14   2  17    1.12    1.15 
 -13   2  17    7.78    1.55 
 -12   2  17    1.73    1.10 
 -11   2  17    0.27    0.99 
 -10   2  17    0.28    0.90 
  -9   2  17    0.06    0.88 
  -8   2  17   23.10    1.96 
  -7   2  17    1.50    0.96 
  -6   2  17    3.54    1.05 
  -5   2  17    0.43    0.86 
  -4   2  17   44.17    2.38 
  -3   2  17    9.85    1.29 
  -2   2  17    2.17    0.95 
  -1   2  17    0.43    0.72 
   0   2  17    8.91    1.22 
 -14   3  17    0.96    1.19 
 -13   3  17   -0.01    1.08 
 -12   3  17    0.06    0.98 
 -11   3  17    2.56    1.13 
 -10   3  17    3.68    1.14 
  -9   3  17    4.88    1.17 
  -8   3  17    4.58    1.24 
  -7   3  17    8.45    1.37 
  -6   3  17    4.41    1.14 
  -5   3  17    6.40    1.20 
  -4   3  17    2.85    0.92 
  -3   3  17    5.58    1.02 
  -2   3  17    0.00    0.68 
  -1   3  17   -0.11    0.78 
   0   3  17    0.55    0.72 
 -13   4  17    4.59    1.40 
 -12   4  17    3.24    1.23 
 -11   4  17    2.81    1.21 
 -10   4  17    0.56    1.05 
  -9   4  17    1.57    1.01 
  -8   4  17    8.62    1.49 
  -7   4  17    5.18    1.15 
  -6   4  17   -0.11    0.85 
  -5   4  17    7.36    1.19 
  -4   4  17    1.18    0.87 
  -3   4  17    3.11    0.92 
  -2   4  17    4.83    0.98 
  -1   4  17   35.91    1.95 
   0   4  17    0.14    0.81 
 -12   5  17    0.56    1.07 
 -11   5  17    0.47    1.01 
 -10   5  17    0.03    1.06 
  -9   5  17    0.27    0.86 
  -8   5  17    1.56    1.06 
  -7   5  17    2.33    1.09 
  -6   5  17    0.94    0.90 
  -5   5  17   -0.36    0.73 
  -4   5  17    0.61    0.85 
  -3   5  17    3.38    1.00 
  -2   5  17    0.23    0.80 
  -1   5  17    7.88    1.21 
   0   5  17   -0.59    0.78 
   1   5  17    0.09    0.85 
 -11   6  17    0.82    1.12 
 -10   6  17    6.94    1.46 
  -9   6  17    3.01    1.18 
  -8   6  17    0.55    1.01 
  -7   6  17    1.03    1.03 
  -6   6  17    3.42    1.19 
  -5   6  17    3.43    1.12 
  -4   6  17    0.66    0.95 
  -3   6  17    1.77    0.99 
  -2   6  17    9.30    1.34 
  -1   6  17    2.95    1.04 
   0   6  17   -0.39    0.82 
   1   6  17    6.96    1.22 
 -10   7  17   -0.14    1.08 
  -9   7  17    2.58    1.29 
  -8   7  17    0.92    1.06 
  -7   7  17   -0.21    1.14 
  -6   7  17   -0.15    1.06 
  -5   7  17    2.99    1.21 
  -4   7  17   -0.26    0.95 
  -3   7  17    1.99    1.14 
  -2   7  17    0.47    0.98 
  -1   7  17    3.61    1.22 
   0   7  17    4.26    1.16 
   1   7  17    1.78    0.98 
  -8   8  17    9.88    1.74 
  -7   8  17    0.36    1.23 
  -6   8  17    0.10    1.14 
  -5   8  17    0.30    1.05 
  -4   8  17    2.48    1.28 
  -3   8  17   -0.62    1.00 
  -2   8  17    1.96    1.25 
  -1   8  17   -1.27    0.88 
   0   8  17   -0.80    0.98 
   1   8  17    0.66    1.06 
  -4   9  17   -0.12    1.33 
  -3   9  17    0.20    1.22 
  -2   9  17    2.91    1.31 
  -1   9  17    1.08    1.26 
   0   9  17    6.56    1.56 
   1   9  17   -0.14    1.18 
  -4  -9  18    1.35    1.55 
  -7  -8  18    0.63    1.39 
  -6  -8  18    0.64    1.50 
  -5  -8  18   -1.22    1.36 
  -4  -8  18    5.34    1.82 
  -9  -7  18    1.47    1.42 
  -8  -7  18    1.32    1.46 
  -7  -7  18    0.99    1.33 
  -6  -7  18   14.66    2.13 
  -5  -7  18    1.18    1.42 
  -4  -7  18    1.68    1.35 
  -3  -7  18    3.03    1.36 
 -10  -6  18   -0.12    1.23 
  -9  -6  18   -0.15    1.21 
  -8  -6  18    3.20    1.44 
  -7  -6  18    0.18    1.16 
  -6  -6  18    7.68    1.66 
  -5  -6  18   16.99    2.07 
  -4  -6  18    1.96    1.25 
  -3  -6  18   -0.76    0.99 
 -11  -5  18    2.40    1.32 
 -10  -5  18    0.59    1.13 
  -9  -5  18    2.01    1.17 
  -8  -5  18    5.58    1.43 
  -7  -5  18    8.28    1.53 
  -6  -5  18    0.51    0.95 
  -5  -5  18    1.98    1.19 
  -4  -5  18    2.10    1.19 
  -3  -5  18    0.45    1.07 
 -12  -4  18   -0.22    1.20 
 -11  -4  18    0.41    1.21 
 -10  -4  18   -0.35    1.12 
  -9  -4  18    5.87    1.46 
  -8  -4  18    1.94    1.14 
  -7  -4  18    5.48    1.34 
  -6  -4  18    0.47    0.98 
  -5  -4  18    0.48    1.12 
  -4  -4  18    0.42    1.08 
  -3  -4  18   -0.33    1.05 
  -2  -4  18   16.33    1.97 
 -13  -3  18   -0.33    1.01 
 -12  -3  18    5.85    1.37 
 -11  -3  18    1.81    1.13 
 -10  -3  18    4.43    1.69 
  -9  -3  18    1.19    1.26 
  -8  -3  18    0.39    1.21 
  -7  -3  18    1.80    1.27 
  -6  -3  18    3.85    1.35 
  -5  -3  18    2.67    1.27 
  -4  -3  18   13.28    1.87 
  -3  -3  18   -0.72    1.05 
  -2  -3  18    1.38    1.23 
 -13  -2  18    0.95    1.26 
 -12  -2  18    0.71    1.14 
 -11  -2  18    0.76    1.03 
 -10  -2  18    6.66    1.52 
  -9  -2  18    0.59    1.05 
  -8  -2  18    1.28    1.07 
  -7  -2  18    5.88    1.36 
  -6  -2  18   12.41    1.62 
  -5  -2  18    5.83    1.27 
  -4  -2  18    2.06    1.12 
  -3  -2  18    1.51    1.12 
  -2  -2  18   19.58    1.87 
 -13  -1  18   14.55    1.93 
 -12  -1  18    0.77    1.12 
 -11  -1  18    0.61    0.98 
 -10  -1  18    1.68    1.20 
  -9  -1  18   18.74    2.00 
  -8  -1  18    0.17    0.94 
  -7  -1  18    4.46    1.23 
  -6  -1  18    5.65    1.27 
  -5  -1  18   12.32    1.61 
  -4  -1  18   16.87    1.85 
  -3  -1  18   14.18    1.64 
  -2  -1  18   16.00    1.79 
  -1  -1  18    5.28    1.19 
 -14   0  18    0.47    1.18 
 -13   0  18    1.50    1.10 
 -12   0  18    2.25    1.15 
 -11   0  18    0.11    0.94 
 -10   0  18    8.75    1.58 
  -9   0  18    0.20    1.10 
  -8   0  18    1.83    1.01 
  -7   0  18    0.22    0.93 
  -6   0  18   18.65    1.83 
  -5   0  18   -0.64    0.90 
  -4   0  18    8.73    1.31 
  -3   0  18    0.06    0.92 
  -2   0  18   93.85    3.38 
  -1   0  18    0.40    0.91 
 -14   1  18    1.68    1.33 
 -13   1  18   15.48    2.08 
 -12   1  18    0.88    1.18 
 -11   1  18    2.23    1.11 
 -10   1  18    2.34    1.14 
  -9   1  18   19.81    1.97 
  -8   1  18    1.27    1.04 
  -7   1  18    5.21    1.34 
  -6   1  18    6.15    1.27 
  -5   1  18   10.55    1.39 
  -4   1  18   15.19    1.60 
  -3   1  18   14.50    1.53 
  -2   1  18   16.62    1.57 
  -1   1  18    5.01    1.12 
 -13   2  18    1.24    1.19 
 -12   2  18    0.76    1.07 
 -11   2  18   -0.30    0.91 
 -10   2  18    8.02    1.48 
  -9   2  18    1.78    1.15 
  -8   2  18    1.30    0.96 
  -7   2  18    4.81    1.20 
  -6   2  18   11.32    1.45 
  -5   2  18    4.58    1.12 
  -4   2  18    3.04    1.00 
  -3   2  18    1.85    0.91 
  -2   2  18   19.58    1.68 
  -1   2  18    3.28    1.07 
 -13   3  18    1.41    1.34 
 -12   3  18    7.70    1.54 
 -11   3  18    1.36    1.04 
 -10   3  18    4.89    1.23 
  -9   3  18    0.72    1.04 
  -8   3  18   -0.68    0.96 
  -7   3  18    1.79    1.06 
  -6   3  18    2.88    1.05 
  -5   3  18    2.64    1.03 
  -4   3  18   10.39    1.40 
  -3   3  18   -0.08    0.79 
  -2   3  18    0.54    0.91 
  -1   3  18    0.90    0.88 
   0   3  18    1.82    0.82 
 -12   4  18    1.21    1.12 
 -11   4  18    0.81    1.13 
 -10   4  18   -0.26    1.04 
  -9   4  18    5.09    1.36 
  -8   4  18    0.94    1.12 
  -7   4  18    6.06    1.32 
  -6   4  18    2.14    0.97 
  -5   4  18    0.16    0.90 
  -4   4  18    0.06    0.84 
  -3   4  18    0.00    0.74 
  -2   4  18   12.70    1.41 
  -1   4  18   -0.13    0.76 
   0   4  18    5.57    1.07 
 -11   5  18    3.15    1.33 
 -10   5  18    0.55    1.09 
  -9   5  18    3.55    1.28 
  -8   5  18    6.47    1.36 
  -7   5  18    9.20    1.48 
  -6   5  18    0.38    1.02 
  -5   5  18    1.02    0.96 
  -4   5  18    1.77    0.91 
  -3   5  18    0.11    0.79 
  -2   5  18    0.21    0.83 
  -1   5  18    1.22    0.89 
   0   5  18    3.72    1.09 
 -10   6  18   -0.46    1.05 
  -9   6  18   -0.74    0.94 
  -8   6  18    4.43    1.35 
  -7   6  18    0.39    1.07 
  -6   6  18    7.04    1.36 
  -5   6  18   14.67    1.69 
  -4   6  18    0.87    1.00 
  -3   6  18    0.33    0.91 
  -2   6  18    0.34    0.89 
  -1   6  18    2.26    1.08 
   0   6  18   -0.36    0.97 
  -8   7  18    0.40    1.21 
  -7   7  18    1.41    1.26 
  -6   7  18   15.17    1.84 
  -5   7  18   -0.55    1.01 
  -4   7  18    0.72    1.13 
  -3   7  18    2.74    1.18 
  -2   7  18    5.40    1.34 
  -1   7  18   -0.98    0.94 
   0   7  18   -0.72    1.07 
  -6   8  18   -0.43    1.19 
  -5   8  18   -0.10    1.28 
  -4   8  18    5.13    1.46 
  -3   8  18    0.36    1.23 
  -2   8  18   -0.51    1.20 
  -1   8  18   -0.56    1.16 
   0   8  18   -0.42    1.19 
  -6  -8  19    1.07    1.73 
  -5  -8  19    2.27    1.69 
  -4  -8  19    1.47    1.58 
  -8  -7  19    0.71    1.46 
  -7  -7  19   20.14    2.51 
  -6  -7  19    3.57    1.55 
  -5  -7  19    0.51    1.28 
  -4  -7  19    0.37    1.33 
  -9  -6  19    0.54    1.30 
  -8  -6  19    1.34    1.31 
  -7  -6  19    1.02    1.34 
  -6  -6  19    0.13    1.27 
  -5  -6  19    0.40    1.27 
  -4  -6  19    3.76    1.45 
 -10  -5  19    0.46    1.16 
  -9  -5  19    0.14    1.10 
  -8  -5  19    0.06    1.08 
  -7  -5  19    0.70    1.12 
  -6  -5  19    3.04    1.25 
  -5  -5  19    3.74    1.36 
  -4  -5  19    0.56    1.17 
  -3  -5  19    0.57    1.18 
 -11  -4  19    1.34    1.42 
 -10  -4  19   -0.85    1.10 
  -9  -4  19    1.79    1.37 
  -8  -4  19    3.43    1.35 
  -7  -4  19    0.85    1.13 
  -6  -4  19    0.73    1.08 
  -5  -4  19    1.24    1.12 
  -4  -4  19    0.34    1.12 
  -3  -4  19    0.82    1.29 
 -12  -3  19    1.08    1.09 
 -11  -3  19    1.84    1.36 
 -10  -3  19    8.16    1.80 
  -9  -3  19    0.36    1.24 
  -8  -3  19    1.03    1.30 
  -7  -3  19    1.99    1.44 
  -6  -3  19    0.58    1.17 
  -5  -3  19    8.32    1.69 
  -4  -3  19   13.48    2.03 
  -3  -3  19    0.78    1.13 
 -12  -2  19    0.38    1.19 
 -11  -2  19    9.14    1.78 
 -10  -2  19    1.18    1.25 
  -9  -2  19    0.90    1.14 
  -8  -2  19    9.77    1.60 
  -7  -2  19    2.82    1.19 
  -6  -2  19    0.77    1.09 
  -5  -2  19    0.28    1.08 
  -4  -2  19    7.72    1.41 
  -3  -2  19   -0.03    1.09 
  -2  -2  19   27.79    2.22 
 -13  -1  19    0.44    1.14 
 -12  -1  19    0.56    1.16 
 -11  -1  19    0.05    1.06 
 -10  -1  19    2.53    1.32 
  -9  -1  19    2.73    1.27 
  -8  -1  19   20.87    2.09 
  -7  -1  19    1.16    1.00 
  -6  -1  19    2.92    1.12 
  -5  -1  19   -0.26    0.90 
  -4  -1  19    0.86    1.01 
  -3  -1  19   -0.36    1.03 
  -2  -1  19   16.90    1.83 
 -13   0  19    2.55    1.36 
 -12   0  19    0.21    1.12 
 -11   0  19   11.01    1.75 
 -10   0  19   -0.32    1.09 
  -9   0  19    3.46    1.33 
  -8   0  19   -0.22    1.01 
  -7   0  19    0.69    0.97 
  -6   0  19   -0.26    0.90 
  -5   0  19    9.92    1.45 
  -4   0  19    0.32    0.88 
  -3   0  19    5.01    1.26 
  -2   0  19    0.67    0.94 
 -13   1  19    0.73    1.23 
 -12   1  19    0.27    1.18 
 -11   1  19    0.88    1.04 
 -10   1  19    2.23    1.29 
  -9   1  19    2.86    1.16 
  -8   1  19   19.31    1.97 
  -7   1  19    0.31    0.95 
  -6   1  19    4.28    1.25 
  -5   1  19    0.61    0.94 
  -4   1  19    0.40    0.92 
  -3   1  19    0.11    0.86 
  -2   1  19   14.43    1.57 
  -1   1  19    3.23    1.14 
 -12   2  19    0.37    1.08 
 -11   2  19    8.17    1.56 
 -10   2  19    0.48    1.18 
  -9   2  19    1.05    1.14 
  -8   2  19   10.66    1.55 
  -7   2  19    3.03    1.11 
  -6   2  19    0.36    0.89 
  -5   2  19   -0.23    0.81 
  -4   2  19    7.57    1.24 
  -3   2  19   -0.03    0.80 
  -2   2  19   25.06    1.88 
  -1   2  19   10.18    1.34 
 -12   3  19    0.68    1.27 
 -11   3  19    0.70    1.05 
 -10   3  19    7.55    1.53 
  -9   3  19    0.31    1.08 
  -8   3  19   -0.12    1.01 
  -7   3  19    2.43    1.13 
  -6   3  19    0.51    0.98 
  -5   3  19    6.82    1.29 
  -4   3  19    8.27    1.30 
  -3   3  19   -0.14    0.84 
  -2   3  19   37.82    2.28 
  -1   3  19    0.19    0.95 
 -11   4  19    0.51    1.16 
 -10   4  19   -0.30    0.98 
  -9   4  19    1.29    1.26 
  -8   4  19    4.32    1.30 
  -7   4  19    0.49    1.06 
  -6   4  19    0.97    1.00 
  -5   4  19    0.37    0.86 
  -4   4  19    0.77    0.83 
  -3   4  19    0.48    0.83 
  -2   4  19    7.06    1.22 
  -1   4  19    1.22    0.89 
 -10   5  19    0.50    1.22 
  -9   5  19   -0.59    1.28 
  -8   5  19    0.69    1.13 
  -7   5  19    0.53    1.02 
  -6   5  19    4.16    1.28 
  -5   5  19    2.07    1.05 
  -4   5  19   -0.19    0.89 
  -3   5  19    0.46    0.98 
  -2   5  19    6.12    1.20 
  -1   5  19    0.41    0.86 
  -9   6  19   -0.02    1.09 
  -8   6  19    1.52    1.21 
  -7   6  19    0.59    1.06 
  -6   6  19    0.21    1.08 
  -5   6  19    0.75    1.01 
  -4   6  19    2.05    1.04 
  -3   6  19    0.42    1.01 
  -2   6  19   -0.66    0.88 
  -1   6  19    0.17    0.94 
   0   6  19    9.64    1.43 
  -7   7  19   23.39    2.25 
  -6   7  19    2.65    1.26 
  -5   7  19   -0.28    1.17 
  -4   7  19   -0.29    1.07 
  -3   7  19    2.12    1.22 
  -2   7  19   -0.02    1.17 
  -1   7  19    2.92    1.29 
   0   7  19   -0.72    1.08 
  -4   8  19    0.24    1.35 
  -3   8  19    1.55    1.36 
  -2   8  19    0.43    1.20 
  -1   8  19   -0.70    1.16 
   0   8  19    1.37    1.32 
  -6  -7  20    1.75    1.56 
  -5  -7  20    0.84    1.50 
  -8  -6  20    1.09    1.45 
  -7  -6  20   -0.29    1.37 
  -6  -6  20   -0.03    1.37 
  -5  -6  20    0.11    1.34 
  -4  -6  20    4.22    1.63 
  -9  -5  20    0.07    1.22 
  -8  -5  20    4.67    1.53 
  -7  -5  20    1.63    1.26 
  -6  -5  20   10.31    1.82 
  -5  -5  20    3.05    1.40 
  -4  -5  20    3.85    1.56 
 -10  -4  20    0.16    1.33 
  -9  -4  20    8.91    1.90 
  -8  -4  20    2.19    1.29 
  -7  -4  20    0.76    1.16 
  -6  -4  20    0.05    1.08 
  -5  -4  20    2.97    1.42 
  -4  -4  20    0.03    1.37 
 -11  -3  20   -0.25    1.23 
 -10  -3  20    2.03    1.46 
  -9  -3  20    2.21    1.46 
  -8  -3  20    9.49    2.04 
  -7  -3  20    1.65    1.46 
  -6  -3  20    2.62    1.47 
  -5  -3  20    0.76    1.39 
  -4  -3  20    4.25    1.65 
  -3  -3  20    1.72    1.45 
 -11  -2  20    0.69    1.27 
 -10  -2  20   -0.35    1.16 
  -9  -2  20    4.38    1.39 
  -8  -2  20    0.13    1.04 
  -7  -2  20    2.37    1.20 
  -6  -2  20    0.47    0.98 
  -5  -2  20   10.18    1.56 
  -4  -2  20    4.36    1.29 
  -3  -2  20    0.13    1.00 
 -11  -1  20   11.26    1.90 
 -10  -1  20    1.03    1.28 
  -9  -1  20    0.84    1.20 
  -8  -1  20    3.14    1.29 
  -7  -1  20   10.86    1.67 
  -6  -1  20    0.41    0.98 
  -5  -1  20    1.43    1.07 
  -4  -1  20    0.02    0.98 
  -3  -1  20    4.26    1.31 
 -12   0  20    0.36    1.23 
 -11   0  20    0.46    1.31 
 -10   0  20   19.16    2.25 
  -9   0  20    0.74    1.28 
  -8   0  20    7.73    1.53 
  -7   0  20    0.29    1.02 
  -6   0  20    0.72    1.02 
  -5   0  20    0.52    0.98 
  -4   0  20   18.65    1.87 
  -3   0  20   -0.14    0.92 
  -2   0  20   13.27    1.71 
 -12   1  20    7.67    1.80 
 -11   1  20   10.05    1.70 
 -10   1  20    0.96    1.27 
  -9   1  20    0.80    1.20 
  -8   1  20    3.72    1.26 
  -7   1  20   11.17    1.57 
  -6   1  20    0.08    1.00 
  -5   1  20    1.42    1.12 
  -4   1  20   -0.42    1.05 
  -3   1  20    3.78    1.22 
  -2   1  20   12.21    1.60 
 -11   2  20    0.23    0.95 
 -10   2  20    0.54    1.27 
  -9   2  20    5.55    1.54 
  -8   2  20   -0.13    0.97 
  -7   2  20    1.06    1.00 
  -6   2  20    2.41    1.13 
  -5   2  20   11.34    1.51 
  -4   2  20    3.83    1.22 
  -3   2  20    0.56    0.91 
  -2   2  20    2.26    1.06 
 -11   3  20    0.12    1.15 
 -10   3  20    2.44    1.32 
  -9   3  20    1.74    1.24 
  -8   3  20    8.65    1.57 
  -7   3  20    1.66    1.09 
  -6   3  20    2.03    1.12 
  -5   3  20   -0.01    0.94 
  -4   3  20    1.90    1.15 
  -3   3  20    0.50    0.96 
  -2   3  20    0.56    1.00 
 -10   4  20   -0.42    1.17 
  -9   4  20   10.16    1.77 
  -8   4  20    2.35    1.27 
  -7   4  20    0.09    1.04 
  -6   4  20    0.13    0.94 
  -5   4  20    3.08    1.19 
  -4   4  20    0.36    0.98 
  -3   4  20   -0.59    0.87 
  -2   4  20   -0.38    0.83 
  -1   4  20   -0.22    0.82 
  -9   5  20    0.61    1.25 
  -8   5  20    6.42    1.56 
  -7   5  20    1.68    1.26 
  -6   5  20   12.68    1.63 
  -5   5  20    2.43    1.17 
  -4   5  20    2.81    1.14 
  -3   5  20    4.88    1.21 
  -2   5  20    1.92    1.05 
  -1   5  20   -0.47    0.92 
  -7   6  20    0.00    1.13 
  -6   6  20   -0.11    1.14 
  -5   6  20   -0.48    1.08 
  -4   6  20    3.60    1.24 
  -3   6  20    1.45    1.08 
  -2   6  20   -0.60    0.93 
  -1   6  20    1.42    1.09 
  -5   7  20    1.72    1.23 
  -4   7  20   -0.15    1.13 
  -3   7  20   -0.16    1.14 
  -2   7  20    1.77    1.32 
  -1   7  20    0.56    1.26 
  -7  -6  21    0.82    1.58 
  -6  -6  21    0.46    1.49 
  -5  -6  21    0.85    1.65 
  -8  -5  21   -0.51    1.25 
  -7  -5  21    0.01    1.26 
  -6  -5  21    0.42    1.30 
  -5  -5  21    1.08    1.57 
  -9  -4  21    0.82    1.49 
  -8  -4  21    0.04    1.32 
  -7  -4  21    4.09    1.60 
  -6  -4  21   15.20    2.16 
  -5  -4  21    1.05    1.38 
  -4  -4  21    5.42    1.79 
 -10  -3  21    1.59    1.54 
  -9  -3  21   -0.89    1.34 
  -8  -3  21    3.33    1.62 
  -7  -3  21    3.67    1.64 
  -6  -3  21    0.57    1.39 
  -5  -3  21    2.24    1.63 
  -4  -3  21    1.16    1.51 
 -10  -2  21    1.05    1.40 
  -9  -2  21    0.17    1.22 
  -8  -2  21    0.27    1.15 
  -7  -2  21    0.32    1.16 
  -6  -2  21    1.33    1.19 
  -5  -2  21    1.40    1.20 
  -4  -2  21    4.33    1.45 
 -10  -1  21    6.04    1.67 
  -9  -1  21   -0.23    1.17 
  -8  -1  21    0.55    1.21 
  -7  -1  21    1.76    1.22 
  -6  -1  21    0.35    1.05 
  -5  -1  21    0.38    1.19 
  -4  -1  21    0.96    1.10 
  -3  -1  21    1.53    1.24 
 -11   0  21    1.41    1.43 
 -10   0  21    0.23    1.25 
  -9   0  21   13.35    2.02 
  -8   0  21    0.63    1.28 
  -7   0  21    3.11    1.34 
  -6   0  21    0.02    1.07 
  -5   0  21    0.27    1.01 
  -4   0  21    0.55    1.06 
  -3   0  21    4.59    1.36 
 -10   1  21    5.60    1.53 
  -9   1  21    0.19    1.16 
  -8   1  21    0.67    1.19 
  -7   1  21    1.23    1.07 
  -6   1  21    0.00    1.10 
  -5   1  21    0.13    1.02 
  -4   1  21    1.02    1.07 
  -3   1  21    1.16    1.02 
 -10   2  21    1.87    1.29 
  -9   2  21    0.62    1.19 
  -8   2  21    0.16    1.18 
  -7   2  21    0.69    1.12 
  -6   2  21    1.59    1.20 
  -5   2  21    1.17    1.06 
  -4   2  21    5.40    1.37 
  -3   2  21   -0.23    0.94 
 -10   3  21    1.47    1.35 
  -9   3  21    0.50    1.19 
  -8   3  21    2.58    1.27 
  -7   3  21    2.17    1.21 
  -6   3  21    0.69    1.07 
  -5   3  21    0.04    0.97 
  -4   3  21    0.06    1.06 
  -3   3  21    0.25    1.11 
  -2   3  21    1.07    1.06 
  -9   4  21    0.80    1.27 
  -8   4  21   -0.81    1.24 
  -7   4  21    3.29    1.39 
  -6   4  21   14.24    1.92 
  -5   4  21   -0.23    1.01 
  -4   4  21    3.57    1.33 
  -3   4  21   -0.03    1.11 
  -2   4  21   -0.73    1.10 
  -7   5  21   -0.62    1.13 
  -6   5  21   -0.14    1.16 
  -5   5  21    0.73    1.12 
  -4   5  21    2.79    1.14 
  -3   5  21    0.62    1.03 
  -2   5  21    1.66    1.10 
  -5   6  21    0.83    1.29 
  -4   6  21    1.37    1.21 
  -3   6  21    0.88    1.27 
  -2   6  21    4.49    1.35 
  -7  -5  22    0.15    1.48 
  -6  -5  22    2.34    1.62 
  -5  -5  22    1.20    1.57 
  -8  -4  22   -0.63    1.65 
  -7  -4  22    0.03    1.36 
  -6  -4  22    1.54    1.55 
  -5  -4  22    2.60    1.67 
  -8  -3  22    6.95    1.95 
  -7  -3  22    0.29    1.46 
  -6  -3  22    1.29    1.56 
  -5  -3  22    0.86    1.33 
  -9  -2  22    0.68    1.38 
  -8  -2  22    5.30    1.67 
  -7  -2  22    5.03    1.60 
  -6  -2  22    1.29    1.36 
  -5  -2  22    2.75    1.52 
  -4  -2  22   -0.05    1.20 
  -9  -1  22    2.17    1.46 
  -8  -1  22    0.04    1.21 
  -7  -1  22    0.40    1.21 
  -6  -1  22    0.18    1.29 
  -5  -1  22   12.13    1.91 
  -4  -1  22    1.36    1.35 
  -9   0  22    0.96    1.43 
  -8   0  22   21.08    2.32 
  -7   0  22   -0.48    1.09 
  -6   0  22    0.47    1.22 
  -5   0  22   -0.21    1.26 
  -4   0  22    8.44    1.71 
  -9   1  22    2.03    1.34 
  -8   1  22    0.90    1.29 
  -7   1  22    0.46    1.14 
  -6   1  22    1.14    1.14 
  -5   1  22   12.31    1.75 
  -4   1  22    1.71    1.25 
  -3   1  22    0.88    1.20 
  -9   2  22    0.85    1.27 
  -8   2  22    5.52    1.64 
  -7   2  22    5.96    1.59 
  -6   2  22    1.89    1.27 
  -5   2  22    1.94    1.26 
  -4   2  22    0.74    1.10 
  -3   2  22    1.80    1.16 
  -8   3  22    5.23    1.55 
  -7   3  22   -0.13    1.20 
  -6   3  22    1.38    1.22 
  -5   3  22    1.37    1.28 
  -4   3  22    3.03    1.35 
  -3   3  22   -0.25    1.01 
  -7   4  22   -0.23    1.25 
  -6   4  22    1.05    1.33 
  -5   4  22    0.68    1.24 
  -4   4  22    1.72    1.25 
  -3   4  22    0.07    1.13 
  -5   5  22    0.74    1.32 
  -4   5  22    1.60    1.29 
  -3   5  22   -0.34    1.28 
  -6  -4  23    0.58    1.76 
  -7  -3  23   -0.52    1.45 
  -6  -3  23    0.42    1.65 
  -5  -3  23    2.85    1.50 
  -8  -2  23    0.19    1.50 
  -7  -2  23    0.32    1.35 
  -6  -2  23    3.10    1.55 
  -5  -2  23    1.05    1.40 
  -8  -1  23    3.75    1.65 
  -7  -1  23    1.96    1.61 
  -6  -1  23    0.36    1.33 
  -5  -1  23    1.68    1.40 
  -8   0  23    0.96    1.53 
  -7   0  23    1.84    1.58 
  -6   0  23    0.19    1.32 
  -5   0  23    0.14    1.43 
  -4   0  23    0.78    1.29 
  -8   1  23    4.61    1.63 
  -7   1  23    1.95    1.37 
  -6   1  23    1.60    1.35 
  -5   1  23    2.13    1.43 
  -4   1  23    4.83    1.50 
  -7   2  23    1.08    1.31 
  -6   2  23    5.27    1.66 
  -5   2  23    1.25    1.31 
  -4   2  23    6.25    1.62 
  -6   3  23    0.30    1.18 
  -5   3  23    3.85    1.57 
  -4   3  23    0.90    1.22 
  -5   4  23    1.47    1.37 
  -4   4  23    0.40    1.28 
  -6  -1  24    0.05    1.48 
  -5  -1  24    1.19    1.53 
  -6   0  24    5.47    1.73 
  -5   0  24    0.41    1.40 
  -6   1  24    1.24    1.39 
  -5   1  24    1.59    1.41 
  -5   2  24    1.22    1.48 
   0   0   0    0.00    0.00 
;
_shelx_hkl_checksum              74702
#END Tags that were not found in dictionaries
loop_
_space_group_symop_operation_xyz
'x, y, z'
'-x+1/2, y+1/2, -z+1/2'
'-x, -y, -z'
'x-1/2, -y-1/2, z-1/2'
loop_
_atom_site_label
_atom_site_type_symbol
_atom_site_fract_x
_atom_site_fract_y
_atom_site_fract_z
_atom_site_U_iso_or_equiv
_atom_site_adp_type
_atom_site_occupancy
_atom_site_site_symmetry_order
_atom_site_calc_flag
_atom_site_refinement_flags_posn
_atom_site_refinement_flags_adp
S1 S 1.12560(4) 0.60838(5) 0.14159(3) 0.04908(19) Uani 1 1 d . .
Cl1 Cl 1.36464(6) 1.04427(9) -0.04666(4) 0.0977(3) Uani 1 1 d . .
N1 N 1.12682(12) 0.74158(15) 0.19255(9) 0.0420(4) Uani 1 1 d . .
N2 N 0.94888(12) 1.12781(16) 0.25590(9) 0.0450(4) Uani 1 1 d . .
O1 O 1.19817(11) 0.62643(15) 0.10065(9) 0.0622(4) Uani 1 1 d . .
O2 O 1.13221(12) 0.50491(14) 0.19075(8) 0.0656(5) Uani 1 1 d . .
O3 O 0.97420(13) 1.24128(17) 0.15941(10) 0.0726(5) Uani 1 1 d . .
O4 O 1.00890(13) 1.11407(16) 0.37695(8) 0.0679(5) Uani 1 1 d . .
C1 C 1.13754(14) 0.86819(18) 0.16731(10) 0.0386(5) Uani 1 1 d . .
C2 C 1.09459(13) 0.95095(18) 0.20658(10) 0.0366(4) Uani 1 1 d . .
C3 C 1.09480(14) 1.09165(18) 0.20475(9) 0.0371(4) Uani 1 1 d . .
C4 C 1.00178(16) 1.1598(2) 0.20472(11) 0.0462(5) Uani 1 1 d . .
C5 C 0.99383(15) 1.0595(2) 0.32037(11) 0.0457(5) Uani 1 1 d . .
C6 C 1.01046(14) 0.9204(2) 0.31263(10) 0.0413(5) Uani 1 1 d . .
C7 C 0.98585(15) 0.8288(2) 0.36012(11) 0.0499(5) Uani 1 1 d . .
C8 C 1.00367(16) 0.7006(2) 0.34676(12) 0.0560(6) Uani 1 1 d . .
H8 H 0.9847 0.6391 0.3769 0.067 Uiso 1 1 calc R U
C9 C 1.04699(17) 0.6579(2) 0.29272(12) 0.0530(6) Uani 1 1 d . .
H9 H 1.0583 0.5708 0.2866 0.064 Uiso 1 1 calc R U
C10 C 1.07335(14) 0.74985(19) 0.24757(11) 0.0407(5) Uani 1 1 d . .
C11 C 1.05316(14) 0.87886(18) 0.25676(10) 0.0381(5) Uani 1 1 d . .
C12 C 1.01067(15) 0.61145(18) 0.08543(10) 0.0419(5) Uani 1 1 d . .
C13 C 0.99766(17) 0.6771(2) 0.02148(11) 0.0510(6) Uani 1 1 d . .
H13 H 1.0501 0.7164 0.0070 0.061 Uiso 1 1 calc R U
C14 C 0.90553(19) 0.6838(2) -0.02081(12) 0.0590(6) Uani 1 1 d . .
H14 H 0.8962 0.7286 -0.0643 0.071 Uiso 1 1 calc R U
C15 C 0.82702(17) 0.6264(2) -0.00104(13) 0.0563(6) Uani 1 1 d . .
C16 C 0.84339(17) 0.5569(3) 0.06209(13) 0.0644(7) Uani 1 1 d . .
H16 H 0.7916 0.5140 0.0756 0.077 Uiso 1 1 calc R U
C17 C 0.93455(17) 0.5494(2) 0.10561(12) 0.0582(6) Uani 1 1 d . .
H17 H 0.9445 0.5025 0.1484 0.070 Uiso 1 1 calc R U
C18 C 0.72616(19) 0.6367(3) -0.04718(17) 0.0873(9) Uani 1 1 d . .
H18A H 0.6953 0.7136 -0.0347 0.131 Uiso 1 1 calc R U
H18B H 0.6884 0.5630 -0.0391 0.131 Uiso 1 1 calc R U
H18C H 0.7304 0.6401 -0.0972 0.131 Uiso 1 1 calc R U
C19 C 1.19277(15) 0.90098(19) 0.11170(10) 0.0410(5) Uani 1 1 d . .
C20 C 1.14864(16) 0.9722(2) 0.05328(11) 0.0509(6) Uani 1 1 d . .
H20 H 1.0827 0.9924 0.0470 0.061 Uiso 1 1 calc R U
C21 C 1.2015(2) 1.0146(2) 0.00338(12) 0.0637(7) Uani 1 1 d . .
H21 H 1.1714 1.0629 -0.0364 0.076 Uiso 1 1 calc R U
C22 C 1.2977(2) 0.9849(2) 0.01331(13) 0.0598(6) Uani 1 1 d . .
C23 C 1.34282(18) 0.9117(3) 0.07025(13) 0.0612(6) Uani 1 1 d . .
H23 H 1.4085 0.8905 0.0757 0.073 Uiso 1 1 calc R U
C24 C 1.29014(16) 0.8698(2) 0.11940(12) 0.0518(6) Uani 1 1 d . .
H24 H 1.3204 0.8197 0.1584 0.062 Uiso 1 1 calc R U
C25 C 1.17132(16) 1.1616(2) 0.20010(10) 0.0460(5) Uani 1 1 d . .
H25A H 1.2301 1.1219 0.1977 0.055 Uiso 1 1 calc R U
H25B H 1.1667 1.2510 0.1992 0.055 Uiso 1 1 calc R U
C26 C 0.85480(17) 1.1981(2) 0.25673(14) 0.0627(7) Uani 1 1 d . .
C27 C 0.8774(3) 1.3386(3) 0.27685(19) 0.1019(11) Uani 1 1 d . .
H27A H 0.9232 1.3428 0.3222 0.153 Uiso 1 1 calc R U
H27B H 0.8183 1.3822 0.2809 0.153 Uiso 1 1 calc R U
H27C H 0.9050 1.3792 0.2401 0.153 Uiso 1 1 calc R U
C28 C 0.7883(2) 1.1820(4) 0.18390(17) 0.1115(13) Uani 1 1 d . .
H28A H 0.8152 1.2270 0.1481 0.167 Uiso 1 1 calc R U
H28B H 0.7251 1.2167 0.1853 0.167 Uiso 1 1 calc R U
H28C H 0.7822 1.0922 0.1718 0.167 Uiso 1 1 calc R U
C29 C 0.8056(2) 1.1368(3) 0.31250(18) 0.0916(10) Uani 1 1 d . .
H29A H 0.8042 1.0450 0.3063 0.137 Uiso 1 1 calc R U
H29B H 0.7400 1.1687 0.3065 0.137 Uiso 1 1 calc R U
H29C H 0.8413 1.1578 0.3601 0.137 Uiso 1 1 calc R U
C30 C 0.9422(2) 0.8617(3) 0.42367(13) 0.0687(7) Uani 1 1 d . .
H30A H 0.9086 0.7879 0.4370 0.103 Uiso 1 1 calc R U
H30B H 0.8970 0.9315 0.4112 0.103 Uiso 1 1 calc R U
H30C H 0.9931 0.8867 0.4636 0.103 Uiso 1 1 calc R U
loop_
_atom_site_aniso_label
_atom_site_aniso_U_11
_atom_site_aniso_U_22
_atom_site_aniso_U_33
_atom_site_aniso_U_23
_atom_site_aniso_U_13
_atom_site_aniso_U_12
S1 0.0521(3) 0.0307(3) 0.0604(3) -0.0058(2) 0.0023(3) 0.0048(2)
Cl1 0.1248(7) 0.0997(6) 0.0889(5) 0.0037(4) 0.0690(5) -0.0071(5)
N1 0.0480(10) 0.0300(9) 0.0463(9) -0.0012(7) 0.0059(8) 0.0024(7)
N2 0.0511(10) 0.0375(10) 0.0497(10) 0.0012(8) 0.0184(8) 0.0039(8)
O1 0.0505(9) 0.0507(10) 0.0888(11) -0.0225(8) 0.0226(9) 0.0013(7)
O2 0.0825(11) 0.0295(8) 0.0735(11) 0.0017(7) -0.0098(9) 0.0070(8)
O3 0.0818(12) 0.0618(11) 0.0835(12) 0.0344(10) 0.0389(10) 0.0322(9)
O4 0.0945(13) 0.0618(11) 0.0489(9) -0.0125(8) 0.0182(9) -0.0031(9)
C1 0.0405(11) 0.0310(11) 0.0423(10) 0.0005(9) 0.0039(9) 0.0003(8)
C2 0.0378(10) 0.0313(10) 0.0406(10) 0.0006(8) 0.0078(9) -0.0001(8)
C3 0.0464(11) 0.0294(10) 0.0358(10) -0.0007(8) 0.0089(9) -0.0019(9)
C4 0.0561(13) 0.0331(12) 0.0515(12) 0.0008(10) 0.0163(10) 0.0035(10)
C5 0.0493(12) 0.0468(13) 0.0435(12) -0.0018(10) 0.0151(10) -0.0049(10)
C6 0.0406(11) 0.0427(12) 0.0394(10) 0.0030(9) 0.0054(9) -0.0032(9)
C7 0.0486(13) 0.0550(15) 0.0453(12) 0.0087(10) 0.0080(10) -0.0056(11)
C8 0.0599(14) 0.0487(14) 0.0595(14) 0.0207(11) 0.0126(12) -0.0070(11)
C9 0.0621(14) 0.0347(12) 0.0608(14) 0.0092(10) 0.0094(11) -0.0034(10)
C10 0.0411(11) 0.0334(11) 0.0451(11) 0.0034(9) 0.0034(9) -0.0019(9)
C11 0.0392(10) 0.0321(11) 0.0403(10) 0.0014(9) 0.0020(8) -0.0030(9)
C12 0.0484(12) 0.0339(11) 0.0426(11) -0.0036(9) 0.0074(9) 0.0002(9)
C13 0.0613(14) 0.0427(13) 0.0494(12) -0.0024(10) 0.0122(11) -0.0075(11)
C14 0.0770(17) 0.0474(14) 0.0468(12) 0.0030(11) -0.0010(12) 0.0026(13)
C15 0.0553(14) 0.0534(15) 0.0563(13) -0.0177(12) 0.0022(11) 0.0119(12)
C16 0.0519(14) 0.0803(19) 0.0650(15) -0.0080(14) 0.0216(12) -0.0107(13)
C17 0.0613(15) 0.0647(16) 0.0488(12) 0.0074(11) 0.0119(11) -0.0106(12)
C18 0.0617(17) 0.090(2) 0.098(2) -0.0293(17) -0.0115(15) 0.0247(15)
C19 0.0489(12) 0.0329(11) 0.0421(11) -0.0060(9) 0.0111(9) -0.0004(9)
C20 0.0558(13) 0.0499(14) 0.0482(12) -0.0011(10) 0.0132(11) 0.0079(11)
C21 0.092(2) 0.0560(16) 0.0460(13) 0.0071(11) 0.0215(13) 0.0099(14)
C22 0.0779(17) 0.0548(15) 0.0555(14) -0.0098(12) 0.0340(13) -0.0041(13)
C23 0.0565(14) 0.0660(17) 0.0651(15) -0.0091(13) 0.0216(12) 0.0015(12)
C24 0.0512(13) 0.0522(14) 0.0522(12) -0.0002(11) 0.0112(10) 0.0025(11)
C25 0.0562(13) 0.0348(12) 0.0473(11) -0.0025(9) 0.0111(10) -0.0020(10)
C26 0.0593(15) 0.0581(16) 0.0785(16) 0.0120(13) 0.0321(13) 0.0177(12)
C27 0.142(3) 0.0556(18) 0.131(3) 0.0077(17) 0.082(2) 0.0354(18)
C28 0.0578(18) 0.169(4) 0.104(2) 0.024(2) 0.0081(17) 0.026(2)
C29 0.0723(18) 0.101(2) 0.117(2) 0.0285(19) 0.0546(18) 0.0188(16)
C30 0.0777(17) 0.0768(18) 0.0566(14) 0.0135(13) 0.0253(13) -0.0058(14)
loop_
_atom_type_symbol
_atom_type_description
_atom_type_scat_dispersion_real
_atom_type_scat_dispersion_imag
_atom_type_scat_source
C C 0.0033 0.0016 'International Tables Vol C Tables 4.2.6.8 and 6.1.1.4'
H H 0.0000 0.0000 'International Tables Vol C Tables 4.2.6.8 and 6.1.1.4'
N N 0.0061 0.0033 'International Tables Vol C Tables 4.2.6.8 and 6.1.1.4'
O O 0.0106 0.0060 'International Tables Vol C Tables 4.2.6.8 and 6.1.1.4'
S S 0.1246 0.1234 'International Tables Vol C Tables 4.2.6.8 and 6.1.1.4'
Cl Cl 0.1484 0.1585 'International Tables Vol C Tables 4.2.6.8 and 6.1.1.4'
loop_
_geom_angle_atom_site_label_1
_geom_angle_atom_site_label_2
_geom_angle_atom_site_label_3
_geom_angle
O1 S1 O2 120.37(11)
O1 S1 N1 106.33(9)
O2 S1 N1 104.92(11)
O1 S1 C12 110.08(11)
O2 S1 C12 110.09(10)
N1 S1 C12 103.52(9)
C10 N1 C1 107.60(16)
C10 N1 S1 122.01(14)
C1 N1 S1 123.99(14)
C4 N2 C5 120.71(18)
C4 N2 C26 119.22(17)
C5 N2 C26 117.40(17)
C2 C1 N1 108.33(18)
C2 C1 C19 127.17(18)
N1 C1 C19 124.36(17)
C1 C2 C11 108.63(18)
C1 C2 C3 128.17(18)
C11 C2 C3 123.03(17)
C25 C3 C2 124.13(19)
C25 C3 C4 117.68(19)
C2 C3 C4 118.13(17)
O3 C4 N2 121.9(2)
O3 C4 C3 119.12(19)
N2 C4 C3 119.01(18)
O4 C5 N2 119.5(2)
O4 C5 C6 123.6(2)
N2 C5 C6 116.71(18)
C11 C6 C7 118.7(2)
C11 C6 C5 118.81(18)
C7 C6 C5 122.5(2)
C8 C7 C6 117.3(2)
C8 C7 C30 118.9(2)
C6 C7 C30 123.8(2)
C9 C8 C7 124.9(2)
C8 C9 C10 117.1(2)
C9 C10 C11 120.2(2)
C9 C10 N1 131.9(2)
C11 C10 N1 107.77(17)
C6 C11 C10 121.80(18)
C6 C11 C2 130.09(19)
C10 C11 C2 107.65(18)
C17 C12 C13 120.9(2)
C17 C12 S1 119.91(17)
C13 C12 S1 119.20(17)
C12 C13 C14 118.6(2)
C15 C14 C13 122.0(2)
C14 C15 C16 117.8(2)
C14 C15 C18 121.5(2)
C16 C15 C18 120.7(3)
C17 C16 C15 121.3(2)
C12 C17 C16 119.3(2)
C20 C19 C24 119.0(2)
C20 C19 C1 119.18(19)
C24 C19 C1 121.67(18)
C19 C20 C21 120.4(2)
C22 C21 C20 119.2(2)
C21 C22 C23 121.5(2)
C21 C22 Cl1 119.0(2)
C23 C22 Cl1 119.5(2)
C22 C23 C24 119.1(2)
C23 C24 C19 120.8(2)
C28 C26 N2 108.3(2)
C28 C26 C29 107.8(2)
N2 C26 C29 109.1(2)
C28 C26 C27 113.1(3)
N2 C26 C27 109.2(2)
C29 C26 C27 109.2(2)
loop_
_geom_bond_atom_site_label_1
_geom_bond_atom_site_label_2
_geom_bond_distance
S1 O1 1.4106(18)
S1 O2 1.4109(18)
S1 N1 1.6835(19)
S1 C12 1.735(2)
Cl1 C22 1.727(3)
N1 C10 1.404(3)
N1 C1 1.417(3)
N2 C4 1.375(3)
N2 C5 1.438(3)
N2 C26 1.508(3)
O3 C4 1.209(3)
O4 C5 1.190(2)
C1 C2 1.355(3)
C1 C19 1.467(3)
C2 C11 1.422(3)
C2 C3 1.461(3)
C3 C25 1.312(3)
C3 C4 1.482(3)
C5 C6 1.475(3)
C6 C11 1.385(3)
C6 C7 1.398(3)
C7 C8 1.388(3)
C7 C30 1.495(3)
C8 C9 1.365(3)
C9 C10 1.380(3)
C10 C11 1.387(3)
C12 C17 1.365(3)
C12 C13 1.367(3)
C13 C14 1.372(3)
C14 C15 1.368(3)
C15 C16 1.373(4)
C15 C18 1.502(3)
C16 C17 1.370(3)
C19 C20 1.366(3)
C19 C24 1.379(3)
C20 C21 1.385(3)
C21 C22 1.356(4)
C22 C23 1.361(3)
C23 C24 1.371(3)
C26 C28 1.503(4)
C26 C29 1.513(4)
C26 C27 1.524(4)
loop_
_geom_torsion_atom_site_label_1
_geom_torsion_atom_site_label_2
_geom_torsion_atom_site_label_3
_geom_torsion_atom_site_label_4
_geom_torsion
O1 S1 N1 C10 -170.94(15)
O2 S1 N1 C10 -42.39(17)
C12 S1 N1 C10 73.06(17)
O1 S1 N1 C1 40.69(18)
O2 S1 N1 C1 169.25(15)
C12 S1 N1 C1 -75.31(17)
C10 N1 C1 C2 1.5(2)
S1 N1 C1 C2 153.70(14)
C10 N1 C1 C19 177.34(17)
S1 N1 C1 C19 -30.5(3)
N1 C1 C2 C11 -1.4(2)
C19 C1 C2 C11 -177.10(17)
N1 C1 C2 C3 173.87(17)
C19 C1 C2 C3 -1.8(3)
C1 C2 C3 C25 -40.8(3)
C11 C2 C3 C25 133.9(2)
C1 C2 C3 C4 136.2(2)
C11 C2 C3 C4 -49.1(3)
C5 N2 C4 O3 -162.3(2)
C26 N2 C4 O3 -1.3(3)
C5 N2 C4 C3 18.2(3)
C26 N2 C4 C3 179.19(19)
C25 C3 C4 O3 48.2(3)
C2 C3 C4 O3 -129.0(2)
C25 C3 C4 N2 -132.3(2)
C2 C3 C4 N2 50.5(3)
C4 N2 C5 O4 109.1(2)
C26 N2 C5 O4 -52.3(3)
C4 N2 C5 C6 -76.3(2)
C26 N2 C5 C6 122.3(2)
O4 C5 C6 C11 -138.0(2)
N2 C5 C6 C11 47.7(3)
O4 C5 C6 C7 41.2(3)
N2 C5 C6 C7 -133.1(2)
C11 C6 C7 C8 -1.7(3)
C5 C6 C7 C8 179.1(2)
C11 C6 C7 C30 178.1(2)
C5 C6 C7 C30 -1.1(3)
C6 C7 C8 C9 2.9(3)
C30 C7 C8 C9 -177.0(2)
C7 C8 C9 C10 -1.1(3)
C8 C9 C10 C11 -1.8(3)
C8 C9 C10 N1 172.7(2)
C1 N1 C10 C9 -176.0(2)
S1 N1 C10 C9 31.2(3)
C1 N1 C10 C11 -1.0(2)
S1 N1 C10 C11 -153.85(14)
C7 C6 C11 C10 -1.0(3)
C5 C6 C11 C10 178.18(18)
C7 C6 C11 C2 -172.21(19)
C5 C6 C11 C2 7.0(3)
C9 C10 C11 C6 2.9(3)
N1 C10 C11 C6 -172.79(16)
C9 C10 C11 C2 175.82(18)
N1 C10 C11 C2 0.1(2)
C1 C2 C11 C6 172.95(19)
C3 C2 C11 C6 -2.6(3)
C1 C2 C11 C10 0.8(2)
C3 C2 C11 C10 -174.78(17)
O1 S1 C12 C17 154.78(18)
O2 S1 C12 C17 19.8(2)
N1 S1 C12 C17 -91.9(2)
O1 S1 C12 C13 -25.62(19)
O2 S1 C12 C13 -160.61(16)
N1 S1 C12 C13 87.69(18)
C17 C12 C13 C14 2.6(3)
S1 C12 C13 C14 -177.02(17)
C12 C13 C14 C15 -0.3(3)
C13 C14 C15 C16 -2.3(3)
C13 C14 C15 C18 178.8(2)
C14 C15 C16 C17 2.7(4)
C18 C15 C16 C17 -178.3(2)
C13 C12 C17 C16 -2.2(3)
S1 C12 C17 C16 177.41(18)
C15 C16 C17 C12 -0.5(4)
C2 C1 C19 C20 -57.6(3)
N1 C1 C19 C20 127.4(2)
C2 C1 C19 C24 117.6(2)
N1 C1 C19 C24 -57.4(3)
C24 C19 C20 C21 -1.3(3)
C1 C19 C20 C21 174.1(2)
C19 C20 C21 C22 -0.2(4)
C20 C21 C22 C23 1.6(4)
C20 C21 C22 Cl1 -176.98(17)
C21 C22 C23 C24 -1.5(4)
Cl1 C22 C23 C24 177.09(18)
C22 C23 C24 C19 -0.1(3)
C20 C19 C24 C23 1.4(3)
C1 C19 C24 C23 -173.8(2)
C4 N2 C26 C28 57.2(3)
C5 N2 C26 C28 -141.2(2)
C4 N2 C26 C29 174.3(2)
C5 N2 C26 C29 -24.1(3)
C4 N2 C26 C27 -66.4(3)
C5 N2 C26 C27 95.3(2)
