#------------------------------------------------------------------------------
#$Date: 2016-02-18 17:37:37 +0200 (Thu, 18 Feb 2016) $
#$Revision: 176729 $
#$URL: svn://www.crystallography.net/cod/cif/1/51/69/1516972.cif $
#------------------------------------------------------------------------------
#
# This file is available in the Crystallography Open Database (COD),
# http://www.crystallography.net/
#
# All data on this site have been placed in the public domain by the
# contributors.
#
data_1516972
loop_
_publ_author_name
'Li, Lijun'
'Su, Cunxiang'
'Liu, Xiaoqin'
'Tian, Hua'
'Shi, Yian'
_publ_section_title
;
 Catalytic Asymmetric Intermolecular Bromoesterification of
 Unfunctionalized Olefins.
;
_journal_issue                   14
_journal_name_full               'Organic letters'
_journal_page_first              3728
_journal_paper_doi               10.1021/ol501542r
_journal_volume                  16
_journal_year                    2014
_chemical_formula_moiety         'C17 H18 Br N O2 S'
_chemical_formula_sum            'C17 H18 Br N O2 S'
_chemical_formula_weight         380.29
_chemical_name_systematic
;
 ?
;
_space_group_crystal_system      triclinic
_space_group_IT_number           2
_space_group_name_Hall           '-P 1'
_space_group_name_H-M_alt        'P -1'
_symmetry_space_group_name_Hall  '-P 1'
_symmetry_space_group_name_H-M   'P -1'
_atom_sites_solution_hydrogens   mixed
_audit_creation_date             2014-03-25
_audit_creation_method
;
Olex2 1.2
(compiled 2013.12.10 svn.r2850 for OlexSys, GUI svn.r4736)
;
_cell_angle_alpha                113.270(2)
_cell_angle_beta                 114.370(2)
_cell_angle_gamma                96.320(2)
_cell_formula_units_Z            2
_cell_length_a                   10.027(3)
_cell_length_b                   10.035(3)
_cell_length_c                   10.325(4)
_cell_measurement_reflns_used    2750
_cell_measurement_temperature    173.1500
_cell_measurement_theta_max      27.4767
_cell_measurement_theta_min      2.4224
_cell_volume                     821.8(5)
_computing_cell_refinement       'CrystalClear (Rigaku Inc., 2007)'
_computing_data_collection       'CrystalClear (Rigaku Inc., 2007)'
_computing_data_reduction        'CrystalClear (Rigaku Inc., 2007)'
_computing_molecular_graphics    'Olex2 (Dolomanov et al., 2009)'
_computing_publication_material  'Olex2 (Dolomanov et al., 2009)'
_computing_structure_refinement  'XL (Sheldrick, 2013)'
_computing_structure_solution
;
'XS (Sheldrick, 2013)'
;
_diffrn_ambient_temperature      173.1500
_diffrn_detector_area_resol_mean 28.5714
_diffrn_measured_fraction_theta_full 0.991
_diffrn_measured_fraction_theta_max 0.987
_diffrn_measurement_device
;
Saturn724+ (2x2 bin mode)
;
_diffrn_measurement_device_details
;
AFC10: Fixed Chi 2 circle
;
_diffrn_measurement_device_type  'Saturn724+ CCD'
_diffrn_measurement_method       '\w scans at fixed \c = 45\%'
_diffrn_orient_matrix_type       d*Trek
_diffrn_orient_matrix_UB_11      -0.1153
_diffrn_orient_matrix_UB_12      0.0036
_diffrn_orient_matrix_UB_13      0.0101
_diffrn_orient_matrix_UB_21      -0.0355
_diffrn_orient_matrix_UB_22      0.1081
_diffrn_orient_matrix_UB_23      -0.0147
_diffrn_orient_matrix_UB_31      -0.0687
_diffrn_orient_matrix_UB_32      0.0271
_diffrn_orient_matrix_UB_33      -0.0967
_diffrn_radiation_detector       CCD
_diffrn_radiation_monochromator  'Graphite Monochromator'
_diffrn_radiation_type           MoK\a
_diffrn_radiation_wavelength     0.71073
_diffrn_reflns_av_R_equivalents  0.0396
_diffrn_reflns_av_unetI/netI     0.0433
_diffrn_reflns_Laue_measured_fraction_full 0.991
_diffrn_reflns_Laue_measured_fraction_max 0.987
_diffrn_reflns_limit_h_max       12
_diffrn_reflns_limit_h_min       -13
_diffrn_reflns_limit_k_max       13
_diffrn_reflns_limit_k_min       -12
_diffrn_reflns_limit_l_max       13
_diffrn_reflns_limit_l_min       -13
_diffrn_reflns_number            7536
_diffrn_reflns_point_group_measured_fraction_full 0.991
_diffrn_reflns_point_group_measured_fraction_max 0.987
_diffrn_reflns_theta_full        25.242
_diffrn_reflns_theta_max         27.480
_diffrn_reflns_theta_min         3.049
_diffrn_source                   'Sealed Tube'
_diffrn_source_current           30.0000
_diffrn_source_power             1.5000
_diffrn_source_voltage           50.0000
_exptl_absorpt_coefficient_mu    2.634
_exptl_absorpt_correction_T_max  1.0000
_exptl_absorpt_correction_T_min  0.6331
_exptl_absorpt_correction_type   multi-scan
_exptl_absorpt_process_details   'CrystalClear (Rigaku Inc., 2007)'
_exptl_crystal_colour            Colorless
_exptl_crystal_density_diffrn    1.537
_exptl_crystal_description       block
_exptl_crystal_F_000             388
_exptl_crystal_size_max          0.19
_exptl_crystal_size_mid          0.19
_exptl_crystal_size_min          0.17
_refine_diff_density_max         0.486
_refine_diff_density_min         -0.487
_refine_diff_density_rms         0.081
_refine_ls_extinction_method     none
_refine_ls_goodness_of_fit_ref   1.085
_refine_ls_hydrogen_treatment    mixed
_refine_ls_matrix_type           full
_refine_ls_number_parameters     204
_refine_ls_number_reflns         3721
_refine_ls_number_restraints     0
_refine_ls_restrained_S_all      1.085
_refine_ls_R_factor_all          0.0414
_refine_ls_R_factor_gt           0.0384
_refine_ls_shift/su_max          0.000
_refine_ls_shift/su_mean         0.000
_refine_ls_structure_factor_coef Fsqd
_refine_ls_weighting_details
'w=1/[\s^2^(Fo^2^)+(0.0410P)^2^+0.4344P] where P=(Fo^2^+2Fc^2^)/3'
_refine_ls_weighting_scheme      calc
_refine_ls_wR_factor_gt          0.0913
_refine_ls_wR_factor_ref         0.0935
_reflns_Friedel_coverage         0.000
_reflns_number_gt                3491
_reflns_number_total             3721
_reflns_threshold_expression     'I > 2\s(I)'
_cod_data_source_file            ol501542r_si_004.cif
_cod_data_source_block           sa3282
_cod_depositor_comments
'Adding full bibliography for 1516968--1516972.cif.'
_cod_database_code               1516972
#BEGIN Tags that were not found in dictionaries:
_shelxl_version_number           2013-4
_shelx_space_group_comment
;
The symmetry employed for this shelxl refinement is uniquely defined
by the following loop, which should always be used as a source of
symmetry information in preference to the above space-group names.
They are only intended as comments.
;
_diffrn_number_total             3725
_olex2_refinement_description
;
1. Fixed Uiso
 At 1.2 times of:
  All C(H) groups, All C(H,H) groups
 At 1.5 times of:
  All C(H,H,H) groups
2.a Ternary CH refined with riding coordinates:
 C1(H1A), C2(H2)
2.b Secondary CH2 refined with riding coordinates:
 C3(H3A,H3B), C4(H4A,H4B)
2.c Aromatic/amide H refined with riding coordinates:
 C6(H6), C7(H7), C8(H8), C9(H9), C12(H12), C13(H13), C15(H15), C16(H16)
2.d Idealised Me refined as rotating group:
 C17(H17A,H17B,H17C)
;
_shelx_res_file
;
TITL sa3282 in P-1
CELL 0.71073 10.027 10.035 10.325 113.27 114.37 96.32
ZERR 2 0.0033 0.0033 0.0035 0.002 0.002 0.002
LATT 1

SFAC C H Br N O S
UNIT 34 36 2 2 4 2
EQIV $1 -X,1-Y,-Z

L.S. 5
PLAN  -20
HTAB N1 O2_$1
BOND $H
fmap 2
acta
MORE -1
HTAB
CONF
OMIT 1 0 0
OMIT -1 0 1
OMIT 0 0 1
OMIT 0 1 0
REM <HKL>D:/D/SXRD/sa(3200-3299)/sa3282/sa3282.hkl</HKL>

WGHT    0.041000    0.434400
FVAR       7.37501
BR1   3    0.224119    0.429674    0.621839    11.00000    0.03558    0.04177 =
         0.02985    0.02227    0.01856    0.01575
S1    6    0.162960    0.661077    0.261584    11.00000    0.02778    0.02117 =
         0.02482    0.01192    0.01356    0.00854
O1    5    0.198935    0.750419    0.426705    11.00000    0.03873    0.02681 =
         0.02817    0.01048    0.01952    0.01077
O2    5    0.037110    0.669631    0.134110    11.00000    0.03026    0.02757 =
         0.03087    0.01637    0.01302    0.01286
N1    4    0.122735    0.482961    0.217901    11.00000    0.03052    0.02229 =
         0.02329    0.01250    0.01261    0.00707
C1    1    0.207291    0.440443    0.343656    11.00000    0.02183    0.02511 =
         0.02444    0.01381    0.01188    0.00663
AFIX  13
H1A   2    0.301093    0.527090    0.432641    11.00000   -1.20000
AFIX   0
C2    1    0.100420    0.414728    0.407991    11.00000    0.02661    0.03497 =
         0.02633    0.01942    0.01571    0.01348
AFIX  13
H2    2    0.053372    0.496237    0.422292    11.00000   -1.20000
AFIX   0
C3    1   -0.028218    0.261392    0.291107    11.00000    0.02374    0.03964 =
         0.03729    0.02242    0.01621    0.00751
AFIX  23
H3A   2   -0.091403    0.258982    0.188864    11.00000   -1.20000
H3B   2   -0.093842    0.249647    0.336085    11.00000   -1.20000
AFIX   0
C4    1    0.036485    0.128344    0.259764    11.00000    0.03085    0.02977 =
         0.03748    0.01939    0.01579    0.00477
AFIX  23
H4A   2    0.068343    0.109505    0.351548    11.00000   -1.20000
H4B   2   -0.045239    0.036651    0.164235    11.00000   -1.20000
AFIX   0
C5    1    0.172400    0.156334    0.234186    11.00000    0.02757    0.02734 =
         0.02453    0.01432    0.01017    0.00827
C6    1    0.224027    0.034012    0.174807    11.00000    0.04277    0.02514 =
         0.02928    0.01408    0.01297    0.01086
AFIX  43
H6    2    0.170410   -0.063965    0.146018    11.00000   -1.20000
AFIX   0
C7    1    0.352972    0.056219    0.158248    11.00000    0.04665    0.03670 =
         0.03382    0.01780    0.02074    0.02570
AFIX  43
H7    2    0.385172   -0.026687    0.118198    11.00000   -1.20000
AFIX   0
C8    1    0.434801    0.201057    0.200827    11.00000    0.03536    0.04803 =
         0.04009    0.02581    0.02362    0.02198
AFIX  43
H8    2    0.522775    0.216400    0.191326    11.00000   -1.20000
AFIX   0
C9    1    0.383797    0.323148    0.257916    11.00000    0.02998    0.03300 =
         0.03265    0.01939    0.01811    0.01067
AFIX  43
H9    2    0.437289    0.420479    0.285005    11.00000   -1.20000
AFIX   0
C10   1    0.253697    0.302110    0.275254    11.00000    0.02459    0.02572 =
         0.02365    0.01356    0.01175    0.00873
C11   1    0.331319    0.710047    0.250550    11.00000    0.02764    0.02073 =
         0.02860    0.01428    0.01415    0.00759
C12   1    0.324238    0.647373    0.100722    11.00000    0.03206    0.03083 =
         0.02736    0.01386    0.01305    0.00461
AFIX  43
H12   2    0.232352    0.577530    0.006655    11.00000   -1.20000
AFIX   0
C13   1    0.456075    0.690234    0.092968    11.00000    0.04115    0.03683 =
         0.03446    0.02016    0.02286    0.01186
AFIX  43
H13   2    0.452571    0.646768   -0.006832    11.00000   -1.20000
AFIX   0
C14   1    0.592922    0.796887    0.231794    11.00000    0.03094    0.03531 =
         0.04304    0.02737    0.01968    0.01290
C15   1    0.597170    0.856724    0.380365    11.00000    0.02559    0.02820 =
         0.03571    0.01583    0.01036    0.00686
AFIX  43
H15   2    0.688591    0.927542    0.474398    11.00000   -1.20000
AFIX   0
C16   1    0.467736    0.812956    0.391303    11.00000    0.03121    0.02562 =
         0.02822    0.01366    0.01292    0.00988
AFIX  43
H16   2    0.472643    0.852241    0.491800    11.00000   -1.20000
AFIX   0
C17   1    0.734827    0.848703    0.223134    11.00000    0.03813    0.06811 =
         0.06238    0.04395    0.02880    0.01433
AFIX 137
H17A  2    0.770517    0.763469    0.187723    11.00000   -1.50000
H17B  2    0.814961    0.928426    0.328830    11.00000   -1.50000
H17C  2    0.709188    0.887145    0.147343    11.00000   -1.50000
AFIX   0
H1    2    0.093177    0.431348    0.129805    11.00000    0.03111
HKLF 4

REM  sa3282 in P-1
REM R1 =  0.0384 for    3491 Fo > 4sig(Fo)  and  0.0414 for all    3721 data
REM    204 parameters refined using      0 restraints

END

WGHT      0.0411      0.4348

REM Instructions for potential hydrogen bonds
EQIV $2 -x, -y+1, -z+1
HTAB C2 Br1_$2
HTAB N1 O2_$1

REM Highest difference peak  0.486,  deepest hole -0.487,  1-sigma level  0.081
Q1    1   0.1985  0.4428  0.6905  11.00000  0.05    0.48
Q2    1   0.2587  0.4213  0.5515  11.00000  0.05    0.48
Q3    1   0.2435  0.5330  0.6690  11.00000  0.05    0.47
Q4    1   0.1949  0.3252  0.5796  11.00000  0.05    0.44
Q5    1   0.1443  0.5673  0.2401  11.00000  0.05    0.43
Q6    1   0.7148  0.7931  0.0228  11.00000  0.05    0.42
Q7    1   0.1693  0.6966  0.3613  11.00000  0.05    0.40
Q8    1   0.2383  0.6811  0.2382  11.00000  0.05    0.39
Q9    1   0.3131  0.4126  0.6410  11.00000  0.05    0.38
Q10   1   0.3851  0.4769  0.4831  11.00000  0.05    0.38
Q11   1   0.1532  0.4222  0.3777  11.00000  0.05    0.36
Q12   1   0.3316  0.3157  0.3016  11.00000  0.05    0.36
Q13   1   0.1201  0.4073  0.4823  11.00000  0.05    0.35
Q14   1   0.1098  0.4624  0.6012  11.00000  0.05    0.33
Q15   1   0.7136  0.7947  0.1061  11.00000  0.05    0.33
Q16   1   0.2542  0.3335  0.6541  11.00000  0.05    0.32
Q17   1   0.5360  0.8080  0.3791  11.00000  0.05    0.31
Q18   1   0.8061  0.8442  0.2795  11.00000  0.05    0.31
Q19   1   0.6667  0.8252  0.2393  11.00000  0.05    0.31
Q20   1   0.4005  0.6538  0.1263  11.00000  0.05    0.30
;
_shelx_res_checksum              1972
_shelx_hkl_file
;
   0   0   1  -59.14   32.48   1-0.62881 0.67200-0.44267 0.47231 0.63924-0.57037
   0   0   1  -43.45   18.78   1 0.14626-0.10301-0.92155 0.95123 0.35965-0.29074
   0   0   313695.21  265.92   1-0.59289 0.72246-0.39181 0.48071 0.70353-0.49693
   0   0  -311352.35  224.68   1-0.68503 0.55543-0.53342 0.44448 0.49617-0.70279
   0   0   313058.25  172.01   1-0.76448 0.89412-0.00497 0.09375 0.64462-0.43789
   0   0  -313430.14  273.27   1 0.03428-0.16389-0.97166 0.88268 0.23385-0.44046
   0   0   441229.50  463.51   1-0.57296 0.74573-0.36496 0.48349 0.73383-0.45837
   0   0   442666.74  316.18   1 0.24878-0.07614 0.91048-0.79191-0.33034 0.60585
   0   0   439695.45  301.42   1-0.76402 0.93687 0.17781-0.05943 0.62020-0.34456
   0   0   575309.08 1837.30   1-0.55169 0.76765-0.33714 0.48530 0.76287-0.41854
   0   0   582671.60 1932.93   1 0.08413 0.13186 0.97590-0.82736-0.20134 0.54595
   0   0   578887.51 1844.52   1-0.73008 0.94616 0.38577-0.23781 0.56405-0.21957
   0   0   669963.46 1740.79   1-0.52903 0.78819-0.30831 0.48611 0.79061-0.37742
   0   0   675814.41 1775.37   1-0.14987 0.40887 0.98868-0.81077-0.00560 0.41889
   0   0   674420.30 1743.48   1-0.62439 0.88370 0.64485-0.46723 0.44078-0.02748
   0   0   7 3677.40  283.11   1-0.50493 0.80736-0.27854 0.48564 0.81697-0.33513
   0   0   872713.64 2806.34   1-0.47935 0.82498-0.24761 0.48430 0.84196-0.29129
   0   0   916196.90  990.16   1-0.45220 0.84103-0.21555 0.48182 0.86547-0.24596
   0   0  10  514.53  204.37   1-0.42338 0.85542-0.18228 0.47814 0.88742-0.19907
   0  -1  11 3553.43  427.08   1-0.43775 0.88641-0.19878 0.44714 0.87684-0.11966
   0  -1  10 1115.53  317.27   1-0.47001 0.87547-0.23650 0.45528 0.85037-0.16203
   0  -1   9  467.90  231.23   1-0.50095 0.86320-0.27368 0.46287 0.82106-0.20155
   0  -1   841735.59 2339.91   1-0.53080 0.84978-0.31054 0.47052 0.78854-0.23762
   0  -1   796283.48 2312.14   1-0.55995 0.83574-0.34786 0.47820 0.75195-0.26990
   0  -1   6 3283.01  260.56   1-0.58884 0.82143-0.38629 0.48700 0.70996-0.29677
   0  -1   6 3289.96  269.20   1 0.18378 0.04907-0.89768 0.99871 0.40047 0.01294
   0  -1   510064.69  661.06   1-0.61816 0.80756-0.42721 0.49829 0.65981-0.31548
   0  -1   510404.51  631.38   1-0.63371 0.82321 0.62865-0.55768 0.45077-0.10635
   0  -1   5 6175.94  375.89   1-0.76745 0.95692 0.09717-0.02627 0.63369-0.28914
   0  -1   510823.11  709.63   1 0.13636 0.05323-0.92723 0.99857 0.34876-0.00424
   0  -1   4122671.0 1391.39   1-0.64897 0.79521-0.47352 0.51501 0.59549-0.31999
   0   1  -4112851.1 1296.14   1-0.72426 0.57801-0.62162 0.58015 0.29835-0.57385
   0  -1   4118891.2 1245.05   1-0.53274 0.67899 0.77210-0.73071 0.34647-0.07091
   0  -1   4125192.8 1313.29   1-0.60504 0.75134-0.54252 0.58399 0.58274-0.30729
   0  -1   4114279.9 1313.24   1 0.07758 0.06876-0.95595 0.99760 0.28307-0.00746
   0   1  -3736765.847887.17   1-0.72699 0.62394-0.63160 0.61977 0.26936-0.47598
   0   1  -3721013.5 7532.48   1-0.15620 0.05322-0.98770 0.97576 0.00563-0.21226
   0  -1   214512.82  224.78   1-0.72210 0.78194-0.61475 0.59694 0.31722-0.17947
   0   1  -212144.39  192.02   1-0.73082 0.67098-0.66628 0.68410 0.14821-0.28597
   0  -1   213853.02  167.40   1-0.62080 0.68064 0.65088-0.66872 0.43696-0.29920
   0  -1   213129.53  201.23   1-0.14545 0.20524-0.98918 0.97147 0.01897 0.11878
   0   1  -214512.58  212.06   1-0.24136 0.18156-0.96503 0.98273-0.10227-0.03547
   0   1   0   24.07   21.00   1-0.15753 0.18410 0.09742-0.02038 0.98269-0.98269
   0   1   0   19.31   27.77   1-0.74848 0.77508 0.30150-0.22445 0.59065-0.59065
   0   1   1374333.8 3926.67   1-0.43001 0.49980-0.18987 0.29654 0.88262-0.81379
   0  -1  -1424253.3 4441.27   1-0.51145 0.44167-0.28655 0.17988 0.81012-0.87895
   0   1   1399095.9 4162.17   1-0.76221 0.83202 0.19946-0.09280 0.61582-0.54691
   0  -1  -216972.51  272.80   1-0.59607 0.48312-0.39618 0.25983 0.69838-0.83611
   0   1   220599.00  270.88   1-0.76277 0.87580 0.19324-0.05698 0.61711-0.47929
   0  -1  -217259.88  243.25   1-0.72805 0.61513-0.23280 0.09653 0.64477-0.78249
   0   1   3  414.45  160.26   1-0.49857 0.65476-0.27077 0.43661 0.82347-0.61696
   0   1   3  158.08   84.22   1-0.75735 0.91360 0.24402-0.07819 0.60569-0.39900
   0  -1  -3  221.23   61.48   1-0.66244 0.50627-0.42753 0.26171 0.61512-0.82169
   0  -1  -3   85.25   65.08   1 0.16383-0.32023-0.91083 0.74468 0.37886-0.58557
   0   1   430140.99  417.21   1-0.49508 0.69448-0.26655 0.46197 0.82694-0.55160
   0   1   428463.75  271.83   1-0.74271 0.94218 0.33138-0.13596 0.58185-0.30627
   0  -1  -426689.54  272.56   1-0.56871 0.36930-0.60241 0.40687 0.56005-0.83550
   0   1   512417.65  694.27   1-0.48392 0.72652-0.25309 0.47809 0.83771-0.49354
   0   1   514298.20  744.54   1-0.71233 0.95501 0.44705-0.22204 0.54103-0.19656
   0  -1  -510701.60  563.18   1-0.44680 0.20420-0.75644 0.53160 0.47765-0.82201
   0   1   628634.73  806.63   1-0.46804 0.75385-0.23417 0.48876 0.85211-0.43910
   0   1   630435.60  728.86   1-0.65438 0.94029 0.58969-0.33503 0.47332-0.06002
   0   1   7 8734.28  678.63   1-0.44877 0.77777-0.21155 0.49573 0.86824-0.38640
   0   1   820935.66  992.84   1-0.42674 0.79895-0.18612 0.49989 0.88501-0.33433
   0   1   913072.34  984.78   1-0.40228 0.81769-0.15837 0.50172 0.90171-0.28220
   0   1  10 1838.03  416.31   1-0.37550 0.83404-0.12888 0.50172 0.91781-0.22942
   0  -2  11 1134.92  291.81   1-0.48114 0.90322-0.24975 0.42104 0.84031-0.08313
   0  -2  10 9751.54 2034.80   1-0.51496 0.89384-0.29087 0.43257 0.80634-0.11800
   0  -2   9 3870.12  235.84   1-0.54777 0.88338-0.33210 0.44463 0.76788-0.14810
   0  -2   8 6150.93  338.76   1-0.58001 0.87242-0.37437 0.45726 0.72348-0.17256
   0  -2   8 7789.30  436.88   1 0.18215 0.11054-0.89879 0.98210 0.39872 0.15250
   0  -2   7121254.2 2864.35   1-0.61203 0.86125-0.41846 0.47172 0.67104-0.18899
   0  -2   7136140.0 3228.80   1 0.13187 0.11758-0.92973 0.98335 0.34379 0.13852
   0  -2   672893.46 1143.16   1-0.64409 0.85018-0.46601 0.48969 0.60660-0.19337
   0  -2   674149.56 1033.83   1-0.76744 0.97353 0.06934-0.04591 0.63735-0.22389
   0  -2   673830.80 1029.61   1-0.65077 0.85694-0.45288 0.47658 0.60941-0.19623
   0  -2   679133.75 1250.97   1 0.07298 0.13322-0.95784 0.98177 0.27786 0.13555
   0  -2   523139.69  344.52   1-0.67688 0.83977-0.51904 0.51307 0.52194-0.17757
   0   2  -519447.12 1182.32   1 0.18892-0.35168 0.94006-0.93415-0.28387-0.06052
   0  -2   522457.88  192.18   1-0.72885 0.89174 0.39046-0.39661 0.56240-0.21793
   0  -2   524736.16  428.13   1 0.00013 0.16262-0.98095 0.97519 0.19421 0.15013
   0  -2   4166253.7 1833.80   1-0.70906 0.82874-0.58148 0.54585 0.39888-0.12338
   0   2  -4148784.5 1650.83   1-0.72660 0.60692-0.68434 0.71998 0.06101-0.33654
   0   2  -4164900.5 1745.52   1-0.21920 0.09954 0.97414-0.93863 0.05470-0.33023
   0  -2   4156667.7 1656.28   1-0.70593 0.82560 0.46631-0.50205 0.53310-0.25752
   0  -2   4159426.6 1771.89   1-0.09576 0.21532-0.99218 0.95676 0.07994 0.19553
   0   2  -4165036.6 1813.74   1-0.28751 0.16793-0.94388 0.97930-0.16251-0.11299
   0   2  -342259.29  487.28   1-0.49741 0.42098 0.80955-0.74429 0.31178-0.51845
   0  -2   343608.73  497.07   1-0.70773 0.78418 0.46103-0.52636 0.53531-0.32863
   0  -2   340579.20  510.88   1-0.23274 0.30913-0.96825 0.90318-0.09117 0.29780
   0   2  -346363.47  568.35   1-0.36819 0.29177-0.88912 0.95425-0.27183 0.06523
   0  -2   2138334.8 1483.86   1-0.67483 0.70809-0.70520 0.61027-0.21742 0.35520
   0   2  -2130762.6 1404.98   1-0.64766 0.61442 0.60286-0.50798 0.46592-0.60369
   0  -2   2137920.0 1475.49   1-0.72556 0.75879 0.40270-0.49763 0.55802-0.42023
   0  -2   2129837.8 1407.61   1-0.43080 0.46400-0.82749 0.73272-0.36007 0.49781
   0  -2   181443.89  885.27   1-0.30952 0.29956-0.50303 0.37847-0.80693 0.87579
   0   2  -174306.42  828.56   1-0.71459 0.72457 0.43994-0.31542 0.54387-0.61277
   0   2   028813.93  360.48   1-0.12476 0.17789 0.12922 0.02485 0.98373-0.98373
   0  -2   032833.08  403.67   1-0.25329 0.20012 0.00115-0.15527 0.96738-0.96738
   0   2   1264669.9 2827.46   1-0.31284 0.40921-0.06104 0.24474 0.94783-0.87900
   0  -2  -1247173.0 2625.84   1-0.76647 0.67005 0.03151-0.21524 0.64150-0.71041
   0   2   217861.93  310.31   1-0.38551 0.52508-0.13962 0.35295 0.91207-0.77440
   0  -2  -221445.93  342.76   1-0.54853 0.40902-0.33308 0.11964 0.76691-0.90464
   0   2   221105.59  307.99   1-0.74774 0.88738 0.30555-0.09226 0.58949-0.45170
   0   2   3  252.93  125.08   1-0.41353 0.59630-0.17107 0.41399 0.89427-0.68776
   0   2   3  333.22   95.87   1-0.74014 0.92299 0.34347-0.10059 0.57810-0.37142
   0  -2  -3  136.90   60.01   1-0.71392 0.53117-0.28488 0.04202 0.63964-0.84621
   0   2   480690.26 1975.09   1-0.42123 0.64720-0.17982 0.45233 0.88894-0.61360
   0   2   476146.25 1811.00   1-0.72417 0.95024 0.40768-0.13520 0.55619-0.28061
   0  -2  -464505.30 1541.76   1-0.65538 0.42943-0.44360 0.17115 0.61129-0.88673
   0   2   537496.87 1011.43   1-0.41789 0.68707-0.17603 0.47812 0.89127-0.54710
   0   2   541706.16 1022.75   1-0.69613 0.96541 0.49377-0.19166 0.52113-0.17672
   0  -2  -534731.85  862.16   1-0.57143 0.30225-0.59821 0.29601 0.56178-0.90610
   0   2   6 7293.36  403.45   1-0.40765 0.72004-0.16442 0.49610 0.89820-0.48520
   0   2   6 7205.33  332.73   1-0.64945 0.96195 0.59941-0.26770 0.46788-0.05458
   0   2   7 1336.91  187.05   1-0.39255 0.74814-0.14747 0.50873 0.90782-0.42598
   0   2   8  637.32  224.94   1-0.37364 0.77238-0.12683 0.51758 0.91885-0.36815
   0   2   911348.82 1447.91   1-0.35162 0.79356-0.10272 0.52304 0.93048-0.31093
   0  -3  11 6413.40  860.80   1-0.52251 0.91801-0.30024 0.39444 0.79801-0.04084
   0  -3  1011025.57  702.17   1-0.55752 0.90975-0.34469 0.40976 0.75521-0.06657
   0  -3   917447.43  764.16   1-0.59176 0.90080-0.39027 0.42571 0.70534-0.08555
   0  -3   919633.25  857.58   1 0.15177 0.15753-0.91827 0.95417 0.36569 0.25444
   0  -3   8  276.87  138.30   1-0.62538 0.89123-0.43765 0.44346 0.64602-0.09511
   0  -3   8  145.06   79.73   1 0.09622 0.16983-0.94777 0.95397 0.30408 0.24714
   0  -3   7148370.8 3544.25   1-0.65823 0.88096-0.48811 0.46433 0.57312-0.09101
   0  -3   7155413.8 3631.41   1-0.76368 0.98647-0.01157-0.01216 0.64548-0.16348
   0  -3   7173363.0 4176.17   1 0.03177 0.19075-0.97244 0.94897 0.23096 0.25112
   0  -3   675281.26 1172.41   1-0.69010 0.86964-0.54273 0.48931 0.47874-0.06550
   0   3  -680236.03 1155.06   1-0.02939-0.15021 0.99370-0.94029-0.10812-0.30541
   0  -3   677270.88 1108.82   1-0.75877 0.93825 0.23195-0.28560 0.60865-0.19519
   0  -3   680470.13 1266.31   1-0.04479 0.22412-0.98896 0.93583 0.14121 0.27200
   0  -3   532456.82  405.76   1-0.71792 0.85424-0.60294 0.51986 0.34792-0.00354
   0   3  -528838.29  279.87   1-0.31676 0.18051 0.93780-0.85481 0.14209-0.48653
   0  -3   529988.60  286.90   1-0.74327 0.87955 0.32867-0.41187 0.58268-0.23821
   0  -3   531090.86  450.16   1-0.13951 0.27570-0.98986 0.90709 0.02631 0.31806
   0  -3   4 3741.56  158.72   1-0.73086 0.82396-0.66556 0.55282 0.15118 0.12434
   0   3  -4 2658.00  118.78   1-0.66831 0.57522-0.70441 0.81718-0.23906-0.03647
   0   3  -4 2802.16  108.89   1-0.50757 0.41454 0.79929-0.68661 0.32169-0.59725
   0  -3   4 3092.72  106.63   1-0.73636 0.82942 0.36023-0.47303 0.57271-0.29713
   0  -3   4 3828.65  445.38   1-0.26002 0.35303-0.95728 0.84484-0.12648 0.40199
   0  -3   369198.86  799.24   1-0.69003 0.73992-0.70558 0.56318-0.16121 0.36787
   0   3  -359075.52  688.42   1-0.56671 0.51683-0.66831 0.81065-0.48185 0.27519
   0   3  -362645.23  729.26   1-0.62221 0.57234 0.64854-0.50621 0.43845-0.64510
   0  -3   368325.30  782.20   1-0.73909 0.78894 0.34827-0.49066 0.57658-0.36989
   0  -3   362389.91  744.65   1-0.40900 0.45880-0.85119 0.70903-0.32890 0.53550
   0  -3   287252.33  970.80   1-0.50156 0.50818-0.63280 0.46075-0.58991 0.72763
   0   3  -278501.24  878.12   1-0.31935 0.31269-0.51035 0.68237-0.79846 0.66074
   0   3  -278312.57  899.46   1-0.68510 0.67845 0.52196-0.35003 0.50812-0.64589
   0  -3   286900.55  982.69   1-0.74825 0.75488 0.30277-0.47475 0.59029-0.45250
   0  -3   155454.10  639.53   1-0.02604-0.01055 0.22191-0.42343 0.97471-0.90586
   0   3   0 2126.89  234.60   1-0.09158 0.17128 0.16088 0.07023 0.98271-0.98271
   0  -3   0 2237.83  259.53   1-0.28451 0.20475-0.03118-0.19999 0.95816-0.95816
   0   3   0 2549.28  154.26   1-0.73111 0.81091 0.38175-0.15058 0.56545-0.56545
   0  -3   0 1888.76   97.12   1-0.76648 0.68668 0.13516-0.36637 0.62788-0.62788
   0   3   1118472.0 1345.49   1-0.23315 0.35611 0.02174 0.23901 0.97219-0.90335
   0  -3  -1129047.9 1445.11   1-0.43487 0.31192-0.19546-0.06536 0.87902-0.94785
   0   3   2100511.6  867.11   1-0.30405 0.47020-0.05172 0.34206 0.95124-0.81357
   0   3   3 1726.43  217.07   1-0.33830 0.54765-0.08829 0.40821 0.93688-0.73036
   0   3   3 1703.42  172.40   1-0.72346 0.93292 0.41020-0.09026 0.55526-0.34858
   0  -3  -3 1756.61  160.11   1-0.72733 0.51815-0.23566-0.08428 0.64455-0.85112
   0   3   418851.68  954.08   1-0.35245 0.60500-0.10362 0.45312 0.93007-0.65471
   0   3   421221.78  574.92   1-0.70653 0.95920 0.46457-0.11504 0.53384-0.25826
   0   3   581238.84 3076.34   1-0.35449 0.65023-0.10584 0.48491 0.92904-0.58485
   0   3   5106118.4 3872.91   1-0.67918 0.97506 0.53611-0.15697 0.50127-0.15686
   0   3   6 6415.87  929.56   1-0.34851 0.68745-0.09934 0.50799 0.93202-0.51899
   0   3   6 6907.04  496.28   1-0.63680 0.97590 0.62311-0.21436 0.45410-0.04080
   0   3   7 1163.70  270.10   1-0.33677 0.71890-0.08664 0.52487 0.93758-0.45571
   0   3   8 1320.50  336.76   1-0.32055 0.74588-0.06925 0.53706 0.94469-0.39398
   0   3   9   47.68  108.10   1-0.30061 0.76913-0.04809 0.54548 0.95253-0.33298
   0  -4  11 8736.69  985.05   1-0.56125 0.93012-0.34955 0.36717 0.75019 0.00731
   0  -4  1111412.54  785.66   1 0.18417 0.18498-0.89741 0.91558 0.40090 0.35703
   0  -4  1020210.19  925.85   1-0.59701 0.92268-0.39748 0.38546 0.69683-0.00819
   0  -4  1023278.27 1078.45   1 0.13185 0.19404-0.92974 0.91823 0.34378 0.34525
   0  -4   915732.26 1105.37   1-0.63164 0.91412-0.44685 0.40520 0.63352-0.01373
   0  -4   916722.84  937.78   1 0.07367 0.20898-0.95756 0.91636 0.27865 0.34148
   0  -4   8 7752.19  421.70   1-0.66469 0.90407-0.49856 0.42733 0.55643-0.00545
   0   4  -8 7008.07  296.00   1 0.21999-0.45919 0.92556-0.85447-0.30810-0.24293
   0  -4   8 8958.54  564.33   1 0.00746 0.23164-0.97919 0.90835 0.20277 0.34818
   0  -4   7 4745.99  345.15   1-0.69548 0.89167-0.55295 0.45208 0.45884 0.02326
   0   4  -7 4449.14  286.06   1-0.11078-0.08539 0.99307-0.89240-0.03909-0.44307
   0  -4   7 4914.36  308.15   1-0.76686 0.96296 0.12480-0.22592 0.62956-0.14719
   0  -4   7 5222.30  522.07   1-0.06873 0.26463-0.99126 0.89075 0.11260 0.36949
   0  -4   6187016.2 2709.85   1-0.72053 0.87349-0.61012 0.47958 0.32952 0.08372
   0   4  -6193413.3 2742.19   1-0.33897 0.18609 0.92669-0.79628 0.16227-0.57559
   0  -4   6179904.6 2548.14   1-0.75898 0.91187 0.23014-0.36085 0.60907-0.19561
   0  -4   6196062.2 2865.19   1-0.15833 0.31112-0.98738 0.85724 0.00297 0.41028
   0  -4   548244.95  507.29   1-0.73084 0.84058-0.66583 0.50562 0.15009 0.19431
   0   4  -542874.35  414.92   1-0.49377 0.38413 0.81311-0.65300 0.30825-0.65270
   0  -4   544314.80  409.95   1-0.75217 0.86185 0.27976-0.44002 0.59662-0.25215
   0  -4   544464.70  516.14   1-0.26451 0.37412-0.95525 0.79546-0.13233 0.47672
   0  -4   4 2952.65  239.90   1-0.70302 0.76953-0.70354 0.51367-0.10386 0.37941
   0   4  -4 2083.25  164.72   1-0.53860 0.47208-0.65381 0.84359-0.53144 0.25589
   0   4  -4 2337.47  187.54   1-0.59441 0.52798 0.69242-0.50270 0.40892-0.68447
   0  -4   4 2618.44  202.71   1-0.75014 0.81660 0.29202-0.48187 0.59329-0.31772
   0  -4   4 2384.64  218.80   1-0.38623 0.45264-0.87332 0.68376-0.29687 0.57234
   0  -4   315132.69  266.49   1-0.59124 0.61454-0.67978 0.46037-0.43395 0.64061
   0   4  -312771.75  218.39   1-0.36401 0.34078-0.54267 0.76220-0.75696 0.55037
   0   4  -313106.29  261.04   1-0.65607 0.63280 0.58630-0.36693 0.47519-0.68184
   0  -4   314631.92  252.70   1-0.75292 0.77616 0.27506-0.49450 0.59787-0.39118
   0  -4   2189396.6 2034.04   1 0.11092-0.13079 0.34317-0.59226 0.93269-0.79505
   0  -4   2190445.6 2056.56   1-0.37147 0.35150-0.54796 0.29881-0.74949 0.88721
   0   4  -2175255.2 1932.36   1-0.69204 0.71198 0.50452-0.25555 0.51627-0.65403
   0  -4   2181857.9 1989.60   1-0.75863 0.73866 0.23385-0.48289 0.60810-0.47031
   0   4  -1 8590.50  198.61   1 0.12528-0.06220 0.35537-0.07669 0.92629-0.99511
   0  -4   1 9578.02  382.23   1-0.13546 0.07230 0.11889-0.39744 0.98362-0.91477
   0   4  -111004.30  272.40   1-0.71143 0.77462 0.44983-0.17120 0.53991-0.60880
   0  -4   1 9043.44  227.86   1-0.76445 0.70126 0.17193-0.45061 0.62133-0.55242
   0   4   011628.05  839.99   1-0.05800 0.16426 0.19240 0.11575 0.97960-0.97960
   0  -4   012208.48  846.44   1-0.31531 0.20897-0.06367-0.24456 0.94684-0.94684
   0   4   013990.37  949.10   1-0.72031 0.82671 0.42114-0.11292 0.55117-0.55117
   0   4   1 4716.17  375.43   1-0.17085 0.32020 0.08435 0.25340 0.98167-0.91282
   0   4   1 4390.05  331.49   1-0.72182 0.87144 0.41596-0.07815 0.55312-0.48423
   0   4   2116966.2 2814.95   1-0.23543 0.42817 0.01942 0.34796 0.97169-0.83401
   0   4   2114792.7 2733.08   1-0.71724 0.91008 0.43136-0.06396 0.54724-0.40945
   0   4   360044.82 1517.42   1-0.27110 0.50703-0.01722 0.41419 0.96239-0.75588
   0   4   360817.37 1496.60   1-0.70650 0.94255 0.46465-0.06766 0.53380-0.32712
   0   4   4 5506.41  923.13   1-0.28851 0.56764-0.03537 0.46193 0.95682-0.68146
   0   4   4 4673.75  595.98   1-0.68846 0.96771 0.51363-0.08704 0.51205-0.23652
   0   4   528009.10 2247.11   1-0.29393 0.61626-0.04106 0.49719 0.95494-0.61074
   0   4   526326.94 1477.34   1-0.66088 0.98336 0.57645-0.12026 0.48054-0.13613
   0   4   6 7259.63 1075.21   1-0.29097 0.65649-0.03795 0.52366 0.95597-0.54294
   0   4   6 8339.49  689.65   1-0.62012 0.98582 0.65202-0.16622 0.43624-0.02294
   0   4   7 1732.85  361.01   1-0.28177 0.69048-0.02832 0.54361 0.95906-0.47719
   0   4   813412.98 1718.44   1-0.26763 0.71954-0.01363 0.55849 0.96342-0.41271
   0  -5  12  342.73  206.51   1-0.55976 0.94525-0.34761 0.31777 0.75221 0.07416
   0  -5  12 1498.23  319.17   1 0.17457 0.21119-0.90388 0.87465 0.39052 0.43632
   0  -5  1016434.04  763.62   1-0.63249 0.93160-0.44810 0.35900 0.63178 0.05686
   0  -5  1018858.06 1748.55   1 0.06145 0.23780-0.96235 0.87374 0.26475 0.42427
   0  -5   914076.49  993.02   1-0.66583 0.92186-0.50043 0.38176 0.55337 0.06648
   0  -5   915559.70 1173.92   1-0.00469 0.26037-0.98205 0.86383 0.18856 0.43127
   0  -5   8 2876.86  221.18   1-0.69615 0.90898-0.55424 0.40592 0.45626 0.09471
   0   5  -8 2903.37  250.79   1-0.13541-0.07742 0.99062-0.84255-0.01803-0.53302
   0  -5   8 3775.50  408.77   1-0.07880 0.29127-0.99181 0.84393 0.10048 0.45047
   0  -5   7 1941.43  220.35   1-0.72016 0.88976-0.60908 0.43110 0.33221 0.14990
   0   5  -7 1544.64  164.08   1-0.33226 0.16274 0.93016-0.75232 0.15616-0.63836
   0  -5   7 1789.64  177.27   1-0.76608 0.93558 0.14422-0.32241 0.62635-0.14398
   0  -5   7 2255.34  331.31   1-0.16276 0.33216-0.98666 0.80915-0.00254 0.48469
   0  -5   625039.35  491.01   1-0.73109 0.85748-0.66084 0.45321 0.16969 0.24355
   0   5  -623546.93 1225.48   1-0.46963 0.34338 0.83560-0.62806 0.28495-0.69829
   0  -5   623836.05 1418.49   1-0.25790 0.38412-0.95821 0.75105-0.12372 0.53699
   0  -5   5118800.8 2820.57   1-0.71375 0.79692-0.69893 0.46162-0.04522 0.38963
   0   5  -5110773.6 2631.87   1-0.56391 0.48087 0.73440-0.49725 0.37769-0.72214
   0  -5   5114059.2 2723.54   1-0.36248 0.44549-0.89382 0.65688-0.26396 0.60830
   0  -5   465395.94  587.16   1-0.64276 0.68270-0.69879 0.43182-0.31389 0.58944
   0   5  -463490.83  570.44   1-0.37279 0.33295-0.54889 0.81590-0.74815 0.47269
   0   5  -459519.13  577.05   1-0.62603 0.58614 0.64205-0.37524 0.44253-0.71806
   0  -5   3 8961.29  611.17   1-0.49702 0.49366-0.63012 0.33349-0.59657 0.80316
   0   5  -3 8184.32  555.60   1-0.18153 0.18484-0.40263 0.69921-0.89717 0.69059
   0   5  -3 7003.83  491.36   1-0.66563 0.66895 0.56645-0.27004 0.48586-0.69251
   0  -5   2260367.7 1776.72   1-0.02769-0.01893 0.22040-0.54639 0.97501-0.83731
   0   5  -2256795.4 1834.12   1-0.68957 0.73612 0.51082-0.18480 0.51336-0.65113
   0   5  -1 4615.33  342.85   1 0.11524-0.02559 0.34685 0.00888 0.93081-0.99963
   0   5  -1 4978.00  398.82   1-0.70272 0.79248 0.47566-0.12004 0.52907-0.59795
   0   5   0 2397.71  374.80   1-0.02401 0.15683 0.22377 0.16141 0.97434-0.97434
   0   5   0 1824.68  187.35   1-0.70806 0.84107 0.46003-0.07476 0.53573-0.53573
   0   5   154716.70 1002.33   1-0.11693 0.29285 0.13673 0.27806 0.98368-0.91482
   0   5   153611.08  898.11   1-0.70733 0.88355 0.46221-0.04734 0.53482-0.46593
   0   5   214694.31 1174.78   1-0.17538 0.39440 0.07988 0.36451 0.98125-0.84355
   0   5   213098.16  810.57   1-0.70101 0.92043 0.48046-0.03603 0.52700-0.38923
   0   5   337334.10 1475.18   1-0.20977 0.47229 0.04536 0.42866 0.97669-0.77018
   0   5   336291.36 1379.24   1-0.68869 0.95133 0.51303-0.03900 0.51233-0.30568
   0   5   441611.99 2354.06   1-0.22849 0.53420 0.02648 0.47713 0.97318-0.69783
   0   5   437677.80 2097.49   1-0.66933 0.97518 0.55844-0.05481 0.49003-0.21450
   0   5   5 8216.92  838.34   1-0.23586 0.58477 0.01899 0.51419 0.97160-0.62740
   0   5   5 9287.24  771.66   1-0.64097 0.99004 0.61547-0.08224 0.45862-0.11421
   0   5   615572.98 1503.14   1-0.23489 0.62700 0.01997 0.54279 0.97181-0.55878
   0   5   7 4007.60  912.75   1-0.22751 0.66281 0.02747 0.56487 0.97338-0.49151
   0  -6  12 4920.61  688.28   1-0.59216 0.95109-0.39083 0.28391 0.70468 0.12168
   0  -6  12 5303.50  737.21   1 0.11669 0.24242-0.93780 0.83147 0.32696 0.49988
   0  -6  11  360.89  169.76   1-0.62885 0.94458-0.44273 0.30618 0.63916 0.11834
   0  -6  11  672.43  232.53   1 0.05737 0.25848-0.96387 0.82785 0.26011 0.49783
   0  -6  1021639.21  964.56   1-0.66285 0.93553-0.49556 0.32943 0.56127 0.12745
   0  -6  1025678.31 1157.82   1-0.00783 0.28008-0.98272 0.81714 0.18488 0.50381
   0  -6   915853.97 1107.28   1-0.69343 0.92290-0.54899 0.35321 0.46664 0.15320
   0   6  -914158.43  993.49   1-0.13018-0.09932 0.99123-0.79575-0.02251-0.59741
   0  -6   917050.05 1088.28   1-0.07931 0.30835-0.99183 0.79658 0.09986 0.51996
   0  -6   8  742.63  120.15   1-0.71773 0.90396-0.60243 0.37699 0.34919 0.20180
   0   6  -8  587.71   84.90   1-0.31043 0.12428 0.94076-0.71549 0.13637-0.68747
   0  -6   8 1447.97  260.54   1-0.15813 0.34414-0.98741 0.76254 0.00322 0.54779
   0  -6   7 5991.06  535.14   1-0.73065 0.87368-0.65238 0.39730 0.20135 0.28076
   0   6  -7 5930.84  506.83   1-0.43972 0.29675 0.86092-0.60602 0.25581-0.73802
   0  -6   7 6111.54  774.81   1-0.24484 0.38766-0.96366 0.70914-0.10677 0.58892
   0  -6   6  519.53  121.88   1-0.72201 0.82181-0.69172 0.40695 0.01453 0.39875
   0   6  -6  577.31  109.99   1-0.53070 0.43106 0.77440-0.48983 0.34445-0.75779
   0  -6   6  727.70  129.27   1-0.33772 0.43734-0.91266 0.62833-0.23016 0.64336
   0  -6   5153551.1 2235.26   1-0.67627 0.73284-0.70533 0.39089-0.21246 0.55689
   0   6  -5165658.7 2420.82   1-0.59437 0.53794 0.69248-0.37830 0.40887-0.75332
   0  -6   476914.28 1849.29   1-0.57807 0.59141-0.67377 0.32984-0.46027 0.73582
   0   6  -472602.15 1770.41   1-0.63728 0.62399 0.62223-0.27837 0.45463-0.73016
   0  -6   3 1209.71  168.02   1-0.43099 0.40103-0.58866 0.21492-0.68390 0.89049
   0   6  -3  815.40  129.68   1-0.66534 0.69526 0.56707-0.19362 0.48553-0.69218
   0  -6   274724.67 1821.44   1-0.26687 0.19375-0.47059 0.06726-0.84102 0.97874
   0   6  -267485.49 1664.35   1-0.68251 0.75566 0.52821-0.12515 0.50512-0.64289
   0   6  -182424.79 1287.32   1 0.12170-0.00549 0.35234 0.08046 0.92792-0.99674
   0   6  -178130.97 1251.21   1-0.69162 0.80798 0.50558-0.07292 0.51578-0.58466
   0   6   0  560.77   98.09   1 0.01037 0.14903 0.25510 0.20729 0.96685-0.96685
   0   6   0  301.42  177.25   1-0.69439 0.85397 0.49838-0.03612 0.51906-0.51906
   0   6   138094.94 1015.11   1-0.06796 0.27045 0.18310 0.30872 0.98074-0.91188
   0   6   139038.58 1037.29   1-0.69166 0.89445 0.50549-0.01362 0.51582-0.44694
   0   6   217449.25 1061.50   1-0.12023 0.36581 0.13357 0.38786 0.98371-0.84601
   0   6   218049.71 1078.05   1-0.68357 0.92958 0.52567-0.00420 0.50634-0.36858
   0   6   343899.82 2555.89   1-0.15320 0.44188 0.10165 0.44938 0.98295-0.77639
   0   6   342479.58 2370.86   1-0.66964 0.95887 0.55775-0.00668 0.49039-0.28374
   0   6   451688.79 2386.02   1-0.17206 0.50383 0.08316 0.49747 0.98156-0.70616
   0   6   450643.76 2126.77   1-0.64881 0.98126 0.60065-0.01997 0.46718-0.19164
   0   6   5  519.73  186.94   1-0.61925 0.99492 0.65346-0.04318 0.43531-0.09090
   0   6   6 8846.43 1034.05   1-0.18069 0.59865 0.07464 0.56519 0.98070-0.56759
   0  -7  12 7232.13  759.23   1-0.62112 0.95348-0.43147 0.24746 0.65424 0.17212
   0  -7  12 6033.59 1188.80   1 0.05984 0.27261-0.96295 0.77953 0.26292 0.56391
   0  -7  11 1271.01  340.40   1-0.65625 0.94557-0.48495 0.27137 0.57805 0.17954
   0  -7  11 1332.21  377.44   1-0.00406 0.29288-0.98191 0.76895 0.18930 0.56827
   0  -7  10 3959.61  495.49   1-0.68776 0.93389-0.53839 0.29516 0.48693 0.20179
   0  -7  10 3277.29  534.96   1-0.07290 0.31852-0.99151 0.74889 0.10758 0.58111
   0  -7   937164.79 1549.48   1-0.71328 0.91615-0.59126 0.31836 0.37634 0.24352
   0   7  -935656.85 1441.97   1-0.27857 0.07579 0.95435-0.68166 0.10775-0.72773
   0  -7   936784.19 1543.37   1-0.14729 0.34991-0.98895 0.71672 0.01668 0.60321
   0  -7   823299.88 1324.59   1-0.72896 0.88863-0.64066 0.33812 0.24116 0.30983
   0   7  -823079.47 1299.66   1-0.40399 0.24438 0.88736-0.58502 0.22222-0.77331
   0  -7   822595.13 1305.82   1-0.22747 0.38690-0.97012 0.66823-0.08440 0.63542
   0  -7   7  313.15  159.18   1-0.72770 0.84414-0.68170 0.34947 0.07561 0.40656
   0   7  -7  717.57  206.29   1-0.49462 0.37837 0.81229-0.48029 0.30907-0.79129
   0  -7   7  184.08  119.76   1-0.31192 0.42813-0.92979 0.59807-0.19543 0.67750
   0  -7   6  938.26  160.39   1-0.69932 0.77252-0.70442 0.34251-0.12137 0.53469
   0   7  -6  623.27  124.32   1-0.56040 0.48736 0.73889-0.37728 0.37414-0.78748
   0  -7   6  292.61  122.99   1-0.39770 0.47070-0.86249 0.50113-0.31295 0.72615
   0  -7   522462.24  620.47   1-0.63281 0.66280-0.69577 0.30422-0.33977 0.68420
   0   7  -522384.32  635.42   1-0.60674 0.57683 0.67353-0.28224 0.42213-0.76655
   0  -7   4124629.9 2978.99   1-0.52523 0.51198-0.64649 0.22548-0.55332 0.82887
   0   7  -4120460.5 2910.56   1-0.63870 0.65200 0.61964-0.19875 0.45616-0.73169
   0  -7   365097.40 1606.65   1-0.39082 0.33427-0.56149 0.11065-0.72936 0.93595
   0   7  -360051.87 1512.19   1-0.65975 0.71626 0.57881-0.12831 0.47927-0.68592
   0  -7   2 1232.42  177.75   1-0.25466 0.15494-0.46111-0.01932-0.85001 0.98773
   0   7  -2 1639.18  202.93   1-0.67246 0.77220 0.55151-0.07140 0.49358-0.63135
   0   7  -179948.24 1977.82   1 0.13720 0.00557 0.36542 0.14445 0.92067-0.98949
   0   7  -173339.01 1832.46   1-0.67858 0.82154 0.53752-0.02781 0.50058-0.56947
   0   7   027320.11  774.43   1 0.04525 0.14072 0.28618 0.25327 0.95710-0.95710
   0   7   028912.76  831.44   1-0.67913 0.86531 0.53623 0.00307 0.50122-0.50122
   0   7   116516.78 1085.75   1-0.02194 0.25098 0.22567 0.34320 0.97395-0.90510
   0   7   115076.73  515.80   1-0.67455 0.90394 0.54680 0.02210 0.49596-0.42708
   0   7   2  507.54  182.05   1-0.06862 0.34077 0.18248 0.41598 0.98080-0.84310
   0   7   2  308.69  172.06   1-0.66473 0.93734 0.56836 0.03015 0.48485-0.34708
   0   7   314731.36 1100.15   1-0.09925 0.41449 0.15360 0.47446 0.98313-0.77657
   0   7   313660.23 1112.59   1-0.64913 0.96496 0.60002 0.02808 0.46753-0.26088
   0   7   4 3497.74  524.29   1-0.11748 0.47582 0.13620 0.52146 0.98368-0.70828
   0   7   4 3962.97  314.93   1-0.62665 0.98570 0.64099 0.01672 0.44319-0.16766
   0   7   5 4716.47 1220.33   1-0.12605 0.52749 0.12797 0.55930 0.98373-0.63947
   0  -8  1210179.40 1024.52   1-0.64607 0.95205-0.46905 0.20801 0.60213 0.22433
   0  -8  12 7385.84 1516.83   1 0.00518 0.30021-0.97976 0.71942 0.20010 0.62633
   0  -8  1122229.81 1554.13   1-0.06121 0.32340-0.99068 0.70069 0.12161 0.63595
   0  -8  10  965.77  213.61   1-0.70662 0.92620-0.57571 0.25538 0.41137 0.27735
   0  -8  10  546.69  162.27   1-0.13187 0.35109-0.99062 0.67103 0.03574 0.65302
   0  -8   923307.87 1041.09   1-0.72543 0.90173-0.62565 0.27566 0.28688 0.33298
   0   8  -923335.05 1012.14   1-0.36352 0.18729 0.91307-0.56332 0.18475-0.80473
   0  -8   924096.75 1089.25   1-0.20690 0.38294-0.97663 0.62738-0.05814 0.67804
   0  -8   818399.57  779.03   1-0.73062 0.86369-0.66866 0.28896 0.13810 0.41295
   0   8  -818414.34  757.35   1-0.45612 0.32307 0.84751-0.46811 0.27139-0.82249
   0  -8   816605.51  978.86   1-0.28513 0.41797-0.94514 0.56624-0.15937 0.71039
   0  -8   7 7793.88  595.99   1-0.71519 0.80505-0.69799 0.28865-0.03604 0.51822
   0   8  -7 8056.87  618.77   1-0.52391 0.43426 0.78195-0.37291 0.33774-0.81996
   0  -8   7 8090.91  637.81   1-0.36420 0.45381-0.89242 0.48367-0.26633 0.74840
   0  -8   626022.13  745.23   1-0.67095 0.71756-0.70477 0.26575-0.23047 0.64379
   0   8  -626926.39  773.30   1-0.57390 0.52747 0.72125-0.28260 0.38784-0.80118
   0  -8   5  642.20  153.73   1-0.59350 0.59688-0.68077 0.21231-0.42928 0.77372
   0   8  -5  835.71  179.34   1-0.60957 0.60625 0.66911-0.20077 0.42509-0.76951
   0  -8   450110.55 1251.73   1-0.48800 0.44805-0.62472 0.12641-0.60956 0.88502
   0   8  -447356.39 1214.01   1-0.63438 0.67428 0.62746-0.12951 0.45149-0.72702
   0  -8   344925.87 1706.01   1-0.36969 0.28654-0.54670 0.01876-0.75129 0.95788
   0   8  -337503.65 1450.09   1-0.65064 0.73375 0.59709-0.06954 0.46919-0.67584
   0  -8   230098.99 1186.70   1-0.25571 0.12940-0.46193-0.09561-0.84925 0.98697
   0   8  -226263.07 1140.00   1-0.66005 0.78638 0.57819-0.02104 0.47961-0.61737
   0   8  -121405.53  659.13   1 0.15825 0.01109 0.38298 0.20395 0.91009-0.97891
   0   8  -119217.62  615.75   1-0.66373 0.83328 0.57050 0.01625 0.48372-0.55260
   0   8   044130.59 2516.74   1 0.08060 0.13194 0.31711 0.29941 0.94495-0.94495
   0   8   042904.84 2406.36   1-0.66229 0.87506 0.57352 0.04282 0.48211-0.48211
   0   8   1  358.71  222.01   1 0.02235 0.23339 0.26583 0.38028 0.96375-0.89493
   0   8   1  576.00  227.72   1-0.65590 0.91189 0.58665 0.05930 0.47500-0.40612
   0   8   2  519.74  217.95   1-0.01941 0.31812 0.22798 0.44753 0.97347-0.83576
   0   8   2  527.33  181.07   1-0.64434 0.94354 0.60918 0.06636 0.46229-0.32452
   0   8   3  -29.36  154.29   1-0.04751 0.38932 0.20213 0.50297 0.97820-0.77164
   0   8   3    5.32  154.82   1-0.62696 0.96938 0.64047 0.06468 0.44352-0.23687
   0   8   4 2820.93  563.76   1-0.06467 0.44957 0.18618 0.54853 0.98038-0.70497
   0   8   4 2878.51  424.98   1-0.60265 0.98829 0.67985 0.05490 0.41785-0.14232
   0  -9  1125909.63 1769.93   1-0.69717 0.93340-0.55625 0.18847 0.45224 0.30535
   0  -9  1123629.15 2317.25   1-0.11301 0.34856-0.99184 0.62481 0.05892 0.69864
   0  -9  1015210.75 1093.63   1-0.71946 0.91241-0.60713 0.20969 0.33727 0.35147
   0  -9  1013805.29 1133.10   1-0.18375 0.37639-0.98254 0.58594-0.02885 0.71763
   0  -9   9  649.41  207.16   1-0.73062 0.88036-0.65210 0.22502 0.20235 0.41752
   0   9  -9  537.03  201.48   1-0.41353 0.26384 0.88065-0.45382 0.23115-0.85113
   0  -9   9  164.91  113.61   1-0.25707 0.40653-0.95857 0.53231-0.12264 0.74254
   0  -9   820955.94  925.65   1-0.72528 0.83178-0.68691 0.23011 0.04589 0.50515
   0   9  -822117.65  987.24   1-0.48458 0.37833 0.82192-0.36545 0.29935-0.85047
   0  -9   820967.64  959.78   1-0.33105 0.43726-0.91733 0.46119-0.22113 0.77207
   0  -9   7 9514.13  689.54   1-0.69768 0.76092-0.70473 0.21824-0.12882 0.61102
   0   9  -7 9653.95  713.41   1-0.53829 0.47525 0.76572-0.27965 0.35199-0.83421
   0  -9   7 9437.47  710.27   1-0.40334 0.46634-0.85693 0.37115-0.32090 0.80297
   0  -9   6 6897.35  527.91   1-0.64338 0.66342-0.69897 0.18285-0.31223 0.72555
   0   9  -6 8115.96  653.80   1-0.57791 0.55809 0.71581-0.20013 0.39194-0.80527
   0  -9   5 7734.69  586.57   1-0.56307 0.53985-0.66651 0.12097-0.48858 0.83301
   0   9  -5 7306.63  605.77   1-0.60636 0.62963 0.67414-0.12875 0.42173-0.76614
   0  -9   4 7072.75  563.86   1-0.46503 0.39849-0.61058 0.03516-0.64104 0.91649
   0   9  -4 6070.03  500.41   1-0.62614 0.69263 0.64188-0.06689 0.44264-0.71818
   0  -9   318541.10 1340.89   1-0.36199 0.25225-0.54123-0.06381-0.75896 0.96555
   0   9  -317661.72 1293.12   1-0.63881 0.74852 0.61944-0.01485 0.45628-0.66293
   0  -9   211650.44  876.71   1-0.26542 0.11252-0.46947-0.16517-0.84210 0.97982
   0   9  -2 9269.12  727.43   1-0.64556 0.79848 0.60688 0.02731 0.46362-0.60138
   0  -9   1  543.97  315.58   1-0.18276-0.01336-0.40363-0.26065-0.89647 0.96533
   0   9  -1  492.77  201.04   1-0.64709 0.84324 0.60395 0.05984 0.46530-0.53418
   0   9   018746.60  877.87   1 0.11643 0.12267 0.34787 0.34572 0.93028-0.93028
   0   9   016992.95  813.21   1-0.64377 0.88314 0.61025 0.08314 0.46167-0.46167
   0   9   1 9763.12 1414.11   1 0.06548 0.21682 0.30396 0.41922 0.95043-0.88161
   0   9   1 9899.03 1191.57   1-0.63559 0.91818 0.62528 0.09771 0.45280-0.38392
   0   9   2  318.51  134.30   1 0.02833 0.29717 0.27117 0.48159 0.96211-0.82446
   0   9   2  215.07  163.99   1-0.62222 0.94802 0.64852 0.10407 0.43846-0.30070
   0   9   3 1156.35  477.09   1 0.00285 0.36585 0.24833 0.53403 0.96867-0.76220
   0   9   3 1535.14  307.89   1-0.60293 0.97195 0.67942 0.10278 0.41815-0.21150
   0 -10  1118510.09 1988.41   1-0.15835 0.36760-0.98737 0.54340 0.00295 0.75470
   0 -10  1018687.70 1097.31   1-0.72709 0.89346-0.63201 0.15747 0.26813 0.42061
   0  10 -1018287.39 1075.49   1-0.36710 0.20077 0.91097-0.43672 0.18803-0.87690
   0 -10  1019405.98 1160.29   1-0.22780 0.39386-0.97000 0.49638-0.08483 0.77361
   0 -10   9 2151.24  293.59   1-0.73030 0.85342-0.67135 0.16710 0.12624 0.49369
   0  10  -9 2117.61  307.00   1-0.44278 0.31963 0.85849-0.35459 0.25870-0.87868
   0 -10   9 2531.48  385.14   1-0.29775 0.42056-0.93817 0.43464-0.17656 0.79637
   0 -10   8 4895.89  584.02   1-0.71580 0.79572-0.69756 0.16366-0.03206 0.58312
   0  10  -8 4577.97  568.16   1-0.49977 0.42013 0.80719-0.27369 0.31408-0.86520
   0 -10   8 5090.70  636.80   1-0.36656 0.44616-0.89047 0.35731-0.26958 0.82052
   0 -10   7 9502.48  776.61   1-0.67950 0.71617-0.70556 0.14197-0.20112 0.68332
   0  10  -710259.27  852.57   1-0.54334 0.50691 0.75980-0.19670 0.35702-0.83925
   0 -10   7 9489.80  806.64   1-0.43169 0.46808-0.82647 0.26366-0.36136 0.84343
   0 -10   6 8100.10  686.69   1-0.62034 0.61375-0.69158 0.09859-0.36999 0.78331
   0  10  -6 7296.50  640.94   1-0.57569 0.58247 0.71884-0.12613 0.38966-0.80300
   0 -10   5 3924.20  279.23   1-0.54226 0.49246-0.65577 0.03316-0.52526 0.86970
   0  10  -5 3608.37  300.00   1-0.59901 0.64901 0.68559-0.06327 0.41369-0.75814
   0 -10   4 1312.81  208.40   1-0.45348 0.36035-0.60327-0.04925-0.65605 0.93151
   0  10  -4 1411.26  243.04   1-0.61486 0.70795 0.66065-0.00862 0.43067-0.70620
   0 -10   3 7403.39  649.10   1-0.36385 0.22752-0.54256-0.13959-0.75712 0.96371
   0  10  -3 6301.84  579.09   1-0.62466 0.76096 0.64440 0.03723 0.44106-0.64771
   0 -10   212083.53 1030.16   1-0.28112 0.10163-0.48155-0.23019-0.83010 0.96782
   0  10  -210125.79  870.34   1-0.62910 0.80863 0.63676 0.07446 0.44581-0.58358
   0 -10   1 4957.02  473.86   1-0.21024-0.01247-0.42592-0.31547-0.87999 0.94885
   0  10  -1 3535.02  354.57   1-0.62866 0.85140 0.63753 0.10330 0.44534-0.51423
   0  10   0 9301.37 1957.16   1 0.15279 0.11288 0.37845 0.39221 0.91292-0.91292
   0  10   0 7579.10  916.06   1-0.62350 0.88946 0.64636 0.12407 0.43983-0.43983
   0  10   1 8601.42  662.79   1 0.10800 0.20087 0.34068 0.45956 0.93395-0.86513
   0  10   1 7446.58  590.75   1-0.61349 0.92267 0.66286 0.13718 0.42922-0.36034
   0  10   2  369.17  101.19   1 0.07489 0.27718 0.31216 0.51767 0.94707-0.80942
   0  10   2  119.80  151.39   1-0.59824 0.95074 0.68674 0.14281 0.41289-0.27511
   0  11 -1012886.04 1395.88   1-0.39668 0.25690 0.89232-0.34100 0.21541-0.90427
   0 -11  1011296.23 1541.92   1-0.26406 0.40355-0.95546 0.40482-0.13175 0.82052
   0  11  -910715.78  789.92   1-0.45804 0.36179 0.84568-0.26476 0.27386-0.89387
   0 -11   910588.42  810.27   1-0.32987 0.42606-0.91814 0.33759-0.21953 0.83934
   0 -11   8  357.89  174.70   1-0.70497 0.75832-0.70293 0.09193-0.09430 0.64536
   0  11  -8   76.39  151.19   1-0.50575 0.45272 0.80116-0.19062 0.31992-0.87103
   0 -11   8  175.60  157.38   1-0.39307 0.44606-0.86693 0.25674-0.30644 0.85738
   0 -11   717711.84 1258.14   1-0.66353 0.67362-0.70364 0.06295-0.25418 0.73638
   0  11  -718447.41 1337.45   1-0.54199 0.53217 0.76140-0.12126 0.35568-0.83790
   0 -11   611820.21  737.53   1-0.60358 0.57040-0.68505 0.01499-0.40790 0.82122
   0  11  -610039.66 1216.95   1-0.56893 0.60232 0.72785-0.05811 0.38279-0.79612
   0 -11   5 2175.00  359.78   1-0.53027 0.45387-0.64928-0.05041-0.54520 0.88963
   0  11  -5 2240.21  368.09   1-0.58823 0.66484 0.70138-0.00203 0.40253-0.74698
   0 -11   4  911.56  231.43   1-0.45086 0.33113-0.60159-0.12803-0.65940 0.93485
   0  11  -4  995.42  276.69   1-0.60111 0.72093 0.68242 0.04653 0.41588-0.69143
   0 -11   3 3972.22  515.85   1-0.37270 0.20977-0.54883-0.21042-0.74824 0.95483
   0  11  -3 2967.80  438.70   1-0.60835 0.77125 0.67103 0.08764 0.42381-0.63046
   0 -11   2 1687.72  376.31   1-0.30119 0.09510-0.49678-0.29207-0.81393 0.95165
   0  11  -2 1493.90  289.90   1-0.61070 0.81682 0.66731 0.12096 0.42629-0.56405
   0 -11   113246.46  986.60   1-0.23980-0.00950-0.44946-0.36903-0.86050 0.92936
   0  11  -110133.37  802.17   1-0.60836 0.85770 0.67101 0.14687 0.42383-0.49271
   0  11   0 2550.06  409.66   1-0.60142 0.89409 0.68195 0.16542 0.41620-0.41620
   0  12  -912273.29 1336.63   1-0.46487 0.39523 0.83980-0.18183 0.28039-0.90040
   0 -12   912278.69 1351.82   1-0.35432 0.42390-0.90031 0.24273-0.25276 0.87257
   0  12  -8 3233.36  491.91   1-0.50519 0.47876 0.80173-0.11416 0.31937-0.87048
   0 -12   8 2187.12  373.60   1-0.41210 0.43847-0.84798 0.16076-0.33330 0.88424
   0 -12   717001.34 1184.76   1-0.65136 0.63487-0.70106-0.01672-0.29022 0.77243
   0  12  -717238.41 1230.56   1-0.53588 0.55266 0.76851-0.05133 0.34959-0.83181
   0 -12   616547.34 1171.37   1-0.59321 0.53345-0.68065-0.06648-0.42988 0.84321
   0  12  -614032.04 1018.03   1-0.55861 0.61860 0.74115 0.00562 0.37234-0.78567
   0 -12   5  141.00  155.75   1-0.52580 0.42282-0.64681-0.12996-0.55240 0.89684
   0  12  -5  423.42  214.16   1-0.57464 0.67785 0.72025 0.05612 0.38860-0.73304
   0 -12   4  269.04  209.13   1-0.45519 0.30887-0.60436-0.20236-0.65386 0.92932
   0  12  -4  663.73  291.47   1-0.58490 0.73133 0.70611 0.09987 0.39910-0.67466
   0 -12   3 2195.95  375.26   1-0.38682 0.19730-0.55872-0.27763-0.73361 0.94020
   0  12  -3 1812.94  407.66   1-0.59003 0.77967 0.69880 0.13679 0.40439-0.61105
   0 -12   2 1984.93  403.25   1-0.32458 0.09190-0.51422-0.35173-0.79385 0.93157
   0  12  -2 1596.10  358.23   1-0.59041 0.82326 0.69826 0.16694 0.40477-0.54255
  -1  13  -5  177.09  166.99   1-0.59274 0.64024 0.69487 0.15854 0.40718-0.75163
  -1  13  -6   91.00  165.34   1-0.57820 0.58249 0.71541 0.10839 0.39223-0.80557
  -1  12  -1 2696.96  389.75   1-0.62676 0.82040 0.64080 0.25412 0.44332-0.51220
   1 -12   2  293.42  282.12   1-0.33662 0.18629-0.52306-0.34289-0.78299 0.92071
  -1  12  -2   41.37  203.25   1-0.62897 0.77939 0.63699 0.22833 0.44567-0.58344
   1 -12   3 8581.19  677.72   1-0.40848 0.30131-0.57360-0.26275-0.71001 0.91660
  -1  12  -3 5971.59  818.11   1-0.62700 0.73420 0.64039 0.19532 0.44357-0.65022
   1 -12   410955.07  808.91   1-0.48597 0.42201-0.62350-0.18322-0.61242 0.88788
  -1  12  -4 9618.15  772.85   1-0.62060 0.68458 0.65122 0.15489 0.43675-0.71228
  -1  12  -5 1427.19  371.41   1-0.60925 0.63002 0.66961 0.10690 0.42476-0.76918
  -1  12  -6 2480.51  404.07   1-0.59229 0.56997 0.69552 0.05125 0.40672-0.82006
  -1  12  -7  870.09  297.53   1-0.56828 0.50275 0.72871-0.01154 0.38212-0.86435
  -1  12  -8 6325.58  734.69   1-0.53577 0.42702 0.76864-0.08107 0.34948-0.90059
   1 -12   8 5819.75  685.36   1-0.38678 0.49545-0.87281 0.18559-0.29763 0.84857
  -1  12  -9 1630.79  274.30   1-0.49259 0.34063 0.81426-0.15630 0.30710-0.92711
   1 -12   9 1327.76  243.88   1-0.32831 0.48019-0.91920 0.26162-0.21743 0.83723
  -1  11   1 1017.03  284.10   1 0.13780 0.11536 0.36592 0.51139 0.92038-0.85156
  -1  11   1   73.09  163.66   1-0.63524 0.88871 0.62592 0.25116 0.45241-0.38353
   1 -11   0  968.54  379.48   1-0.18387-0.02630-0.40455-0.44359-0.89583 0.89583
  -1  11   0 1115.38  360.54   1-0.64410 0.85436 0.60962 0.23785 0.46203-0.46203
   1 -11   122605.70 1346.38   1-0.24284 0.07588-0.45185-0.36664-0.85840 0.92726
  -1  11  -118610.91 1155.65   1-0.64876 0.81580 0.60074 0.21713 0.46713-0.53601
   1 -11   2  589.21  287.60   1-0.31469 0.19095-0.50689-0.28196-0.80251 0.94022
  -1  11  -2  352.69  199.07   1-0.64933 0.77315 0.59964 0.18863 0.46775-0.60551
   1 -11   319353.34 1128.17   1-0.39769 0.31712-0.56624-0.19301-0.72194 0.92853
  -1  11  -314193.03  884.97   1-0.64566 0.72627 0.60667 0.15200 0.46374-0.67038
   1 -11   419564.10 1136.25   1-0.48646 0.44909-0.62379-0.10582-0.61174 0.88719
  -1  11  -416783.53 1009.58   1-0.63736 0.67475 0.62209 0.10698 0.45471-0.73024
   1 -11   5 4159.57  329.08   1-0.57267 0.57862-0.67121-0.02848-0.47065 0.81509
   1 -11   6 3189.38  273.84   1-0.64615 0.69538-0.69973 0.02940-0.30471 0.71803
  -1  11  -6 2911.95  299.58   1-0.60357 0.55453 0.67844-0.00856 0.41882-0.83211
  -1  11  -7 2799.22  383.32   1-0.57560 0.48346 0.71895-0.07881 0.38958-0.87180
   1 -11   7 2816.46  413.76   1-0.42489 0.51696-0.83417 0.19434-0.35158 0.83365
  -1  11  -8 3530.21  451.41   1-0.53737 0.40202 0.76678-0.15625 0.35108-0.90219
   1 -11   8 3789.74  496.52   1-0.36525 0.50053-0.89156 0.28136-0.26777 0.81871
  -1  11  -9 9248.71  685.94   1-0.48616 0.30759 0.82043-0.23950 0.30087-0.92088
   1 -11   9 9530.03  745.82   1-0.30191 0.48040-0.93578 0.35523-0.18208 0.80188
   1 -11  10 1034.95  205.45   1-0.23682 0.45858-0.96675 0.41611-0.09642 0.78520
  -1  10   2  224.12  180.42   1 0.05439 0.21540 0.29424 0.53559 0.95418-0.81653
  -1  10   2  958.97  295.51   1-0.64725 0.91735 0.60365 0.22599 0.46547-0.32770
  -1  10   1 1792.10  337.01   1 0.09314 0.13345 0.32794 0.47230 0.94009-0.87127
  -1  10   0  709.11  243.90   1 0.14564 0.03774 0.37249 0.39817 0.91653-0.91653
  -1  10   0  429.25  195.89   1-0.66591 0.84957 0.56585 0.20458 0.48617-0.48617
   1 -10   114310.46  723.77   1-0.21327 0.07290-0.42836-0.31303-0.87807 0.94693
  -1  10  -111806.40  626.19   1-0.66895 0.80939 0.55927 0.18156 0.48960-0.55848
   1 -10   220246.70  932.87   1-0.29683 0.19969-0.49349-0.21825-0.81752 0.95524
  -1  10  -219916.78  957.54   1-0.66792 0.76514 0.56152 0.14971 0.48843-0.62620
   1 -10   3 6284.48  308.85   1-0.39352 0.33954-0.56336-0.11878-0.72647 0.93306
  -1  10  -3 5501.67  300.36   1-0.66253 0.71654 0.57302 0.10861 0.48238-0.68903
   1 -10   446759.73 1906.52   1-0.49538 0.48460-0.62915-0.02336-0.59896 0.87441
  -1  10  -447033.47 1958.31   1-0.65217 0.66296 0.59409 0.05793 0.47087-0.74640
   1 -10   524256.91 1019.68   1-0.59033 0.62288-0.67938 0.05676-0.43581 0.78025
  -1  10  -525242.62 1125.46   1-0.63581 0.60338 0.62490-0.00247 0.45303-0.79744
   1 -10   6  305.85  150.00   1-0.66519 0.74100-0.70393 0.11070-0.24899 0.66231
  -1  10  -6  210.67  164.81   1-0.61195 0.53630 0.66533-0.07250 0.42760-0.84090
   1 -10   7  617.00  130.93   1-0.71174 0.83079-0.70008 0.13654-0.05739 0.53956
  -1  10  -7  638.62  163.53   1-0.57864 0.45989 0.71481-0.15171 0.39268-0.87491
   1 -10   7  847.88  222.57   1-0.40195 0.52063-0.85831 0.29551-0.31893 0.80100
   1 -10   8 2677.28  382.83   1-0.73014 0.89239-0.67238 0.13849 0.12158 0.42947
  -1  10  -8 2671.32  405.53   1-0.53270 0.37073 0.77214-0.23864 0.34643-0.89755
   1 -10   8 2488.32  398.93   1-0.33626 0.49815-0.91370 0.38054-0.22818 0.77912
  -1  10  -915464.62 1101.62   1-0.47027 0.26509 0.83503-0.33114 0.28556-0.90557
   1 -10   914705.17 1506.25   1-0.26822 0.47338-0.95353 0.45026-0.13718 0.75708
   1 -10  10 8654.68  831.25   1-0.19966 0.44801-0.97864 0.50501-0.04895 0.73772
  -1   9   4 2676.96  667.44   1-0.04393 0.37310 0.20545 0.60630 0.97768-0.70227
  -1   9   4 3499.04  431.23   1-0.63610 0.96604 0.62436 0.18743 0.45335-0.17782
  -1   9   3 5097.60 1195.67   1-0.02533 0.31141 0.22256 0.55959 0.97458-0.76803
  -1   9   3 6349.67  850.04   1-0.65627 0.94299 0.58591 0.19629 0.47541-0.26876
  -1   9   2  539.78  170.21   1 0.00446 0.23876 0.24977 0.50299 0.96829-0.83065
  -1   9   2  304.45  293.08   1-0.67074 0.91425 0.55532 0.19727 0.49163-0.35387
  -1   9   1 1066.74  241.21   1 0.04768 0.15234 0.28833 0.43485 0.95634-0.88752
  -1   9   1 1382.59  244.52   1-0.68045 0.88074 0.53312 0.18987 0.50274-0.43386
  -1   9   0 3889.89  276.60   1 0.10746 0.04936 0.34022 0.35336 0.93418-0.93418
  -1   9   0 3266.02  349.15   1-0.68595 0.84302 0.51986 0.17352 0.50912-0.50912
   1  -9   122385.92  988.29   1-0.18605 0.07227-0.40632-0.25796-0.89458 0.96344
  -1   9  -117253.19  772.40   1-0.68745 0.80130 0.51615 0.14763 0.51087-0.57975
   1  -9   210344.61  779.64   1-0.28448 0.21393-0.48412-0.15052-0.82746 0.96518
  -1   9  -210156.66  788.92   1-0.68484 0.75547 0.52258 0.11161 0.50783-0.64559
   1  -9   3  851.36  247.49   1-0.39830 0.37092-0.56666-0.03838-0.72128 0.92787
  -1   9  -3  544.85  271.97   1-0.67765 0.70506 0.53969 0.06489 0.49951-0.70616
   1  -9   4  704.63  182.14   1-0.51510 0.53102-0.64078 0.06560-0.56926 0.84481
  -1   9  -4  741.57  269.92   1-0.66495 0.64914 0.56790 0.00707 0.48509-0.76062
   1  -9   536475.48 2031.98   1-0.61687 0.67600-0.69029 0.14475-0.37810 0.72253
  -1   9  -536391.12 2057.59   1-0.64528 0.58626 0.60739-0.06201 0.46332-0.80774
   1  -9   646510.17 1783.70   1-0.68803 0.79042-0.70568 0.18956-0.16917 0.58249
  -1   9  -646553.32 1820.32   1-0.61654 0.51430 0.65792-0.14213 0.43244-0.84574
   1  -9   7  982.56  139.56   1-0.72391 0.86953-0.68916 0.20272 0.03182 0.45035
  -1   9  -7  835.53  154.94   1-0.57590 0.43054 0.71855-0.23248 0.38988-0.87211
   1  -9   7  405.71  137.73   1-0.37035 0.51564-0.88730 0.40152-0.27482 0.75689
   1  -9   8  987.23  158.44   1-0.73044 0.91930-0.65039 0.19367 0.20841 0.34257
  -1   9  -8 1678.15  228.72   1-0.51893 0.33036 0.78735-0.33088 0.33283-0.88395
   1  -9   8 1206.69  201.61   1-0.29857 0.48707-0.93770 0.48156-0.17765 0.72859
   1  -9   9 5484.88  388.29   1-0.71675 0.94882-0.59988 0.17280 0.35553 0.26434
  -1   9  -9 5909.04  408.57   1-0.44073 0.20872 0.86013-0.43330 0.25676-0.87674
   1  -9   9 5340.25  675.42   1-0.22632 0.45806-0.97051 0.54425-0.08292 0.70282
   1  -9  1016061.72 1719.87   1-0.15537 0.43030-0.98783 0.59122 0.00665 0.68212
   1  -9  11 3259.76  865.30   1-0.08721 0.40506-0.99208 0.62505 0.09032 0.66725
  -1   8   5 1529.41  395.94   1-0.10910 0.45480 0.14423 0.62008 0.98351-0.63925
  -1   8   4  185.57  125.93   1-0.09922 0.40183 0.15363 0.58108 0.98313-0.70772
  -1   8   4  219.30  197.36   1-0.66192 0.96526 0.57429 0.16046 0.48170-0.20617
  -1   8   317137.02 1561.73   1-0.07955 0.33906 0.17223 0.53288 0.98183-0.77528
  -1   8   316358.67  969.83   1-0.67987 0.94000 0.53450 0.17065 0.50207-0.29542
  -1   8   232188.22 1437.91   1-0.04740 0.26381 0.20224 0.47327 0.97818-0.84048
  -1   8   230420.74 1337.41   1-0.69240 0.90930 0.50359 0.17196 0.51669-0.37893
  -1   8   1 5357.69  792.67   1 0.00088 0.17257 0.24654 0.39957 0.96913-0.90030
  -1   8   1 4562.39  418.19   1-0.70038 0.87407 0.48220 0.16374 0.52624-0.45736
  -1   8   052267.51 1380.38   1 0.06938 0.06087 0.30736 0.30916 0.94905-0.94905
  -1   8   046101.10 1244.07   1-0.70433 0.83480 0.47108 0.14527 0.53103-0.53103
  -1   8  -1  766.41  268.73   1-0.70436 0.79161 0.47099 0.11575 0.53107-0.59995
   1  -8   2 2164.08  336.94   1-0.28000 0.23604-0.48069-0.07684-0.83097 0.96869
  -1   8  -2 1482.99  238.36   1-0.70019 0.74422 0.48275 0.07439 0.52600-0.66377
   1  -8   343779.63 1098.27   1-0.41562 0.41483-0.57843 0.05048-0.70190 0.90849
  -1   8  -341102.23 1092.16   1-0.69104 0.69185 0.50708 0.02045 0.51509-0.72174
   1  -8   4 8827.10  744.16   1-0.54812 0.59062-0.65887 0.16077-0.51521 0.79076
  -1   8  -4 8317.62  731.68   1-0.67554 0.63314 0.54454-0.04660 0.49709-0.77263
   1  -8   525268.20 1467.94   1-0.65143 0.73719-0.70108 0.23243-0.29001 0.63444
  -1   8  -526713.41 1058.65   1-0.65155 0.56593 0.59530-0.12696 0.47019-0.81461
   1  -8   6125647.8 3057.43   1-0.71091 0.83989-0.70051 0.26154-0.06227 0.47556
  -1   8  -6123343.4 3040.17   1-0.61596 0.48712 0.65886-0.22013 0.43183-0.84513
   1  -8   6115276.0 2850.16   1-0.40458 0.53326-0.85569 0.41730-0.32265 0.73585
   1  -8   7 5376.12  384.31   1-0.73064 0.90284-0.66844 0.25910 0.13904 0.34312
  -1   8  -7 4322.59  268.90   1-0.56453 0.39256 0.73360-0.32456 0.37832-0.86054
   1  -8   7 4470.06  310.36   1-0.32827 0.50017-0.91922 0.51048-0.21738 0.69945
   1  -8   820353.20  872.16   1-0.72359 0.93902-0.61940 0.23978 0.30454 0.24645
  -1   8  -818450.99  787.70   1-0.49070 0.27553 0.81609-0.43666 0.30527-0.85639
   1  -8   820018.16 1201.56   1-0.25120 0.46633-0.96107 0.58217-0.11501 0.66603
   1  -8   9 7182.97  398.53   1-0.70091 0.95961-0.56372 0.21375 0.43696 0.18289
  -1   8  -9 6832.21  337.25   1-0.38631 0.12775 0.89912-0.54936 0.20577-0.82575
   1  -8   9 7267.64  699.49   1-0.17593 0.43425-0.98421 0.63497-0.01902 0.63892
   1  -8  10 3308.05  415.27   1-0.66967 0.97157-0.50679 0.18647 0.54285 0.14586
   1  -8  10 2978.66  729.01   1-0.10429 0.40557-0.99210 0.67245 0.06957 0.61912
   1  -8  11 3892.44  547.95   1-0.63387 0.97880-0.45015 0.15943 0.62893 0.12857
   1  -8  11 3491.81  805.92   1-0.03650 0.38099-0.98784 0.69785 0.15107 0.60650
  -1   7   6 1992.81  534.36   1-0.16743 0.52966 0.08771 0.62916 0.98197-0.56886
  -1   7   512558.97  774.78   1-0.66347 0.98343 0.57104 0.11628 0.48343-0.13902
  -1   7   4  480.60  149.38   1-0.15639 0.43243 0.09853 0.55914 0.98276-0.70736
  -1   7   4  416.37  183.98   1-0.68583 0.96258 0.52014 0.13757 0.50898-0.23345
  -1   7   324452.06 1695.84   1-0.13615 0.36910 0.11822 0.50985 0.98360-0.77705
  -1   7   322457.48  975.31   1-0.70164 0.93517 0.47869 0.14942 0.52776-0.32111
  -1   7   217099.38 1488.95   1-0.10175 0.29160 0.15123 0.44724 0.98324-0.84554
  -1   7   216137.74 1170.72   1-0.71221 0.90258 0.44741 0.15114 0.54089-0.40310
  -1   7   118903.56 1139.96   1-0.04815 0.19490 0.20155 0.36732 0.97829-0.90944
  -1   7   118578.78 1124.68   1-0.71855 0.86570 0.42705 0.14191 0.54890-0.48001
  -1   7   0 8097.49  759.37   1 0.03117 0.07251 0.27370 0.26575 0.96130-0.96130
  -1   7   0 8711.32  750.51   1-0.72104 0.82497 0.41864 0.12073 0.55211-0.55211
  -1   7  -1 4430.27  327.92   1 0.14281-0.08232 0.37012 0.13974 0.91793-0.98675
  -1   7  -1 4535.49  348.52   1-0.71968 0.78040 0.42326 0.08652 0.55036-0.61925
   1  -7   247027.08 1187.78   1-0.28747 0.27010-0.48639 0.00595-0.82509 0.96281
  -1   7  -240006.67 1069.24   1-0.71393 0.73143 0.44203 0.03816 0.54304-0.68083
   1  -7   355793.65 1370.13   1-0.45074 0.47654-0.60151 0.15067-0.65955 0.86614
  -1   7  -351022.07 1302.73   1-0.70266 0.67688 0.47583-0.02533 0.52900-0.73565
   1  -7   416952.62  483.73   1-0.59591 0.66500-0.68182 0.26080-0.42426 0.69981
  -1   7  -415383.80  946.92   1-0.68356 0.61456 0.52569-0.10480 0.50633-0.78187
   1  -7   5  408.97  160.97   1-0.68927 0.80161-0.70562 0.31408-0.16426 0.50869
  -1   7  -5  752.47  235.39   1-0.65342 0.54121 0.59160-0.20031 0.47226-0.81667
   1  -7   6111654.2 2615.84   1-0.72732 0.88288-0.68267 0.32079 0.07037 0.34292
  -1   7  -6114602.7 2702.75   1-0.60741 0.45197 0.67250-0.31081 0.42282-0.83612
   1  -7   6107919.2 2578.78   1-0.35745 0.51275-0.89785 0.53649-0.25706 0.67026
   1  -7   745443.69 1173.93   1-0.72778 0.92658-0.63498 0.30281 0.25907 0.22305
  -1   7  -745137.69 1157.05   1-0.53870 0.34013 0.76525-0.43325 0.35240-0.83462
   1  -7   744805.37 1197.33   1-0.27413 0.47266-0.95070 0.61917-0.14492 0.62706
   1  -7   8 6806.11  499.23   1-0.70793 0.94999-0.57858 0.27606 0.40504 0.14594
  -1   7  -8 6545.21  472.25   1-0.43755 0.19563 0.86264-0.56031 0.25375-0.80484
   1  -7   8 6819.47  694.93   1-0.19338 0.43509-0.98026 0.67838-0.04099 0.59201
   1  -7   9 2706.05  306.80   1-0.67809 0.96334-0.52114 0.24827 0.51825 0.10159
   1  -7   9 2846.57  394.98   1-0.11748 0.40219-0.99163 0.71935 0.05346 0.56636
   1  -7  1010380.46 2151.81   1-0.64335 0.97180-0.46487 0.22164 0.60826 0.08046
   1  -7  1010741.22 1075.05   1-0.04673 0.37464-0.98920 0.74657 0.13892 0.54978
   1  -7  1111177.58  807.06   1-0.60607 0.97756-0.41007 0.19643 0.68154 0.07596
   1  -7  1113418.84 1285.50   1 0.01882 0.35229-0.97621 0.76325 0.21597 0.54159
  -1   6   7 1636.75  569.77   1-0.21784 0.59743 0.03724 0.63216 0.97527-0.49340
  -1   6   6 5888.67 1017.53   1-0.22425 0.56064 0.03077 0.60905 0.97404-0.56101
  -1   6   5  755.86  137.31   1-0.22412 0.51731 0.03090 0.57934 0.97407-0.62987
  -1   6   5  459.25  125.47   1-0.68795 0.98132 0.51490 0.09537 0.51146-0.16704
  -1   6   422486.99 1459.15   1-0.21554 0.46554 0.03956 0.54110 0.97569-0.70033
  -1   6   422587.54  932.82   1-0.70790 0.95811 0.46050 0.12019 0.53553-0.25995
  -1   6   351005.29 1458.61   1-0.19602 0.40241 0.05940 0.49163 0.97879-0.77224
  -1   6   349721.57 1308.68   1-0.72156 0.92854 0.41686 0.13423 0.55278-0.34609
  -1   6   215982.63  528.48   1-0.15993 0.32321 0.09507 0.42635 0.98253-0.84483
  -1   6   216941.37  518.35   1-0.73030 0.89407 0.38489 0.13661 0.56436-0.42657
  -1   6   1253772.720267.64   1-0.10056 0.22075 0.15236 0.33947 0.98319-0.91434
  -1   6   1252867.3 5990.99   1-0.73506 0.85561 0.36573 0.12618 0.57089-0.50199
  -1   6   038713.12  690.05   1-0.00756 0.08469 0.23889 0.22350 0.97101-0.97101
  -1   6   037723.57  700.47   1-0.73623 0.81357 0.36078 0.10154 0.57253-0.57253
  -1   6  -118060.95 1127.19   1 0.13060-0.09667 0.35986 0.07294 0.92381-0.99263
  -1   6  -119745.02 1264.73   1-0.73364 0.76776 0.37161 0.06112 0.56892-0.63781
   1  -6   2 1416.11  243.44   1-0.14723 0.15633 0.10747-0.51050 0.98324-0.84554
   1  -6   2 2024.06  189.12   1-0.31431 0.32354-0.50660 0.10327-0.80284 0.94056
  -1   6  -2 1936.97  190.72   1-0.72633 0.71723 0.39989 0.00324 0.55903-0.69682
   1  -6   343564.85 1069.62   1 0.04689 0.00557 0.28763-0.66127 0.95659-0.75012
   1  -6   342385.57 1043.74   1-0.51039 0.56278-0.63794 0.26421-0.57665 0.78324
  -1   6  -339852.50 1020.07   1-0.71229 0.65997 0.44718-0.07363 0.54098-0.74766
   1  -6   427028.63  687.29   1-0.65499 0.75070-0.70192 0.35784-0.27978 0.55533
  -1   6  -427078.67  684.81   1-0.24969 0.15401-0.45722 0.80126-0.85357 0.57814
  -1   6  -427140.63  741.81   1-0.68818 0.59258 0.51433-0.17048 0.51172-0.78725
   1  -6   513090.86  711.07   1-0.72040 0.85932-0.69355 0.37914 0.00118 0.34322
  -1   6  -512163.53  668.52   1-0.64832 0.50951 0.60158-0.28733 0.46665-0.81106
   1  -6   511265.16  636.88   1-0.38647 0.52516-0.87310 0.55913-0.29720 0.64154
   1  -6   6 2209.45  175.26   1-0.72997 0.91213-0.64674 0.36202 0.22102 0.19222
  -1   6  -6 2397.83  193.22   1-0.58480 0.40284 0.70625-0.42167 0.39900-0.81234
   1  -6   6 2435.23  256.09   1-0.29471 0.47661-0.93988 0.65555-0.17253 0.58573
   1  -6   7116685.9 4263.10   1-0.71214 0.93750-0.58855 0.33347 0.38269 0.09942
  -1   6  -7115737.1 4216.09   1-0.48500 0.25982 0.82153-0.56656 0.29975-0.78197
   1  -6   7121134.1 4862.36   1-0.20691 0.43202-0.97663 0.72211-0.05814 0.54029
   1  -6   817829.68 1271.10   1-0.68284 0.95145-0.52950 0.30408 0.50333 0.04765
  -1   6  -817326.36 1218.43   1-0.33057 0.06211 0.93102-0.70575 0.15462-0.70572
   1  -6   820608.38 1267.50   1-0.12579 0.39393-0.99111 0.76620 0.04326 0.50769
   1  -6   9 2303.42  261.30   1-0.64868 0.96048-0.47308 0.27730 0.59615 0.02370
   1  -6   9 2413.32  367.36   1-0.05166 0.36301-0.98976 0.79451 0.13303 0.48679
   1  -6  10 8404.62  581.00   1-0.61245 0.96732-0.41907 0.25288 0.67027 0.01836
   1  -6  10 8033.48 1097.50   1 0.01580 0.33874-0.97703 0.81145 0.21247 0.47623
   1  -6  1111978.44  868.76   1-0.57463 0.97269-0.36718 0.23063 0.73141 0.02609
   1  -6  1111497.61 1324.90   1 0.07782 0.32036-0.95585 0.81983 0.28335 0.47458
  -1   5   8 1690.46  400.42   1-0.26139 0.65758-0.00717 0.62910 0.96520-0.41449
  -1   5   7 1507.31  402.27   1-0.27469 0.62769-0.02095 0.61330 0.96130-0.47943
  -1   5   6  -15.13  141.52   1-0.28298 0.59278-0.02958 0.59235 0.95866-0.54563
  -1   5   6  326.41  138.48   1-0.68473 0.99473 0.52284 0.03999 0.50770-0.09440
  -1   5   5  886.58  155.91   1-0.28492 0.55153-0.03162 0.56481 0.95802-0.61383
  -1   5   5  813.37  139.87   1-0.71071 0.97753 0.45205 0.08117 0.53901-0.19453
  -1   5   442957.13 1163.33   1-0.27841 0.50182-0.02482 0.52843 0.96014-0.68478
  -1   5   444756.30 1177.60   1-0.72821 0.95181 0.39289 0.11074 0.56154-0.28596
  -1   5   354870.08 1379.68   1-0.25988 0.44010-0.00562 0.47965 0.96562-0.75910
  -1   5   355857.05 1381.32   1-0.73956 0.91994 0.34613 0.12791 0.57726-0.37058
  -1   5   2 6616.61  777.06   1-0.22330 0.36032 0.03173 0.41272 0.97423-0.83655
  -1   5   2 6388.88  421.17   1-0.74635 0.88352 0.31300 0.13145 0.58734-0.44955
  -1   5   1137425.3 3268.55   1-0.15860 0.25223 0.09637 0.31842 0.98262-0.91377
  -1   5   1126797.9 3025.40   1-0.74960 0.84355 0.29516 0.11970 0.59243-0.52353
  -1   5   050746.21  624.02   1-0.04751 0.09804 0.20214 0.18305 0.97820-0.97820
  -1   5   054260.02  593.76   1-0.74968 0.80041 0.29469 0.09057 0.59256-0.59256
  -1   5  -146982.80  456.73   1 0.13139-0.12404 0.36053-0.00479 0.92344-0.99226
   1  -5   145807.02  467.02   1-0.24653 0.23910 0.00809-0.36381 0.96909-0.90026
  -1   5  -143255.41  515.97   1-0.74615 0.75367 0.31406 0.04161 0.58703-0.65593
   1  -5   2  932.23  128.00   1-0.03405 0.06971 0.21456-0.54055 0.97611-0.83841
   1  -5   2  906.48  100.34   1-0.37472 0.41050-0.55025 0.22399-0.74618 0.88391
  -1   5  -2 1034.18  133.83   1-0.73735 0.70165 0.35597-0.02988 0.57410-0.71189
   1  -5   3 2605.84  204.70   1-0.59812 0.67717-0.68277 0.38627-0.41961 0.62627
  -1   5  -3 1513.66  127.17   1-0.22276 0.14371-0.43595 0.73253-0.87196 0.66538
  -1   5  -3 1547.21  152.81   1-0.71978 0.64086 0.42294-0.12644 0.55048-0.75716
   1  -5   482645.88 1964.22   1-0.70951 0.83180-0.70118 0.43423-0.07020 0.34573
  -1   5  -474849.45 1781.81   1-0.43829 0.31610-0.59345 0.86046-0.67505 0.39960
  -1   5  -473755.29 1780.34   1-0.68737 0.56518 0.51634-0.24953 0.51078-0.78631
   1  -5   477246.77 1869.36   1-0.41587 0.53796-0.84400 0.57742-0.33867 0.61414
   1  -5   515274.65  956.09   1-0.73082 0.89633-0.65438 0.41712 0.19409 0.15027
  -1   5  -514834.94  924.47   1-0.56683 0.40133-0.66837 0.90559-0.48164 0.13720
  -1   5  -512547.79  790.82   1-0.62980 0.46439 0.63554-0.39833 0.44657-0.79098
   1  -5   513218.25  826.99   1-0.76329 0.92866-0.02085-0.21652 0.64571-0.30116
   1  -5   513453.53  858.90   1-0.31248 0.47778-0.92944 0.69250-0.19618 0.54051
   1  -5   6  359.11  130.80   1-0.71361 0.92233-0.59206 0.38443 0.37445 0.03879
  -1   5  -6  223.41  112.23   1-0.53144 0.32287 0.77357-0.56603 0.34518-0.75852
   1  -5   6  167.54   42.05   1-0.75569 0.96448-0.08841-0.11900 0.64893-0.23578
   1  -5   6  611.61  175.44   1-0.21513 0.42364-0.97416 0.76701-0.06862 0.48189
   1  -5   761594.73 2277.10   1-0.68355 0.93550-0.53076 0.35279 0.50104-0.01893
  -1   5  -761670.58 2254.23   1-0.36709 0.11526 0.91097-0.73313 0.18803-0.67023
   1  -5   765162.51 2378.91   1-0.73391 0.98590-0.20841 0.03061 0.64648-0.16448
   1  -5   765942.01 2458.84   1-0.12761 0.37918-0.99097 0.81343 0.04102 0.44106
   1  -5   855704.69 3081.07   1-0.64930 0.94445-0.47403 0.32571 0.59472-0.04373
  -1   5  -853787.97 2943.25   1-0.08276-0.21240 0.99458-0.84650-0.06288-0.48816
   1  -5   859176.00 3362.45   1-0.04981 0.34459-0.98955 0.84168 0.13523 0.41572
   1  -5   9 2536.95  221.49   1-0.61378 0.95202-0.42096 0.30222 0.66787-0.04809
   1  -5   9 3494.64  555.11   1 0.01937 0.31860-0.97606 0.85784 0.21661 0.40321
   1  -5  10 4632.14  360.80   1-0.57730 0.95873-0.37074 0.28164 0.72750-0.03886
   1  -5  10 4768.57  769.77   1 0.08181 0.29977-0.95416 0.86556 0.28786 0.40117
   1  -5  1115292.11 1078.90   1-0.54003 0.96465-0.32221 0.26275 0.77751-0.02000
   1  -5  1117138.47 1235.46   1 0.13824 0.28659-0.92617 0.86725 0.35083 0.40710
  -1   4   812537.11 1506.94   1-0.31686 0.68647-0.06532 0.61018 0.94621-0.39550
  -1   4   7 4591.58  590.13   1-0.33230 0.65871-0.08183 0.59712 0.93961-0.45774
  -1   4   620116.59 1125.81   1-0.34320 0.62641-0.09358 0.57929 0.93458-0.52155
  -1   4   623151.37  976.54   1-0.70859 0.99202 0.45845 0.02731 0.53638-0.12301
  -1   4   515436.72  968.38   1-0.34825 0.58827-0.09906 0.55519 0.93215-0.58795
  -1   4   517176.47  515.38   1-0.73179 0.97201 0.37905 0.07712 0.56638-0.22191
  -1   4   4  713.71  143.58   1-0.34525 0.54207-0.09580 0.52235 0.93360-0.65825
  -1   4   4  471.97  119.53   1-0.74635 0.94335 0.31303 0.11354 0.58733-0.31175
  -1   4   313268.38  983.76   1-0.33020 0.48383-0.07957 0.47655 0.94054-0.73403
  -1   4   313201.53  724.39   1-0.75496 0.90875 0.26143 0.13555 0.60139-0.39470
  -1   4   2 3686.27  323.48   1-0.29551 0.40594-0.04272 0.41012 0.95438-0.81670
  -1   4   2 3477.58  277.22   1-0.75948 0.87001 0.22583 0.14162 0.61006-0.47224
  -1   4   1138852.5 1071.90   1-0.22585 0.29309 0.02914 0.30866 0.97372-0.90488
  -1   4   1147813.8 1150.05   1-0.76127 0.82859 0.20916 0.12870 0.61376-0.54485
  -1   4   0366681.7 3893.22   1-0.09036 0.11432 0.16203 0.14611 0.98263-0.98263
   1  -4   0342749.5 3629.13   1-0.37285 0.34881-0.12597-0.18226 0.91929-0.91929
  -1   4   0374081.8 4000.86   1-0.76072 0.78482 0.21455 0.09372 0.61258-0.61258
   1  -4   1  655.47  107.52   1-0.17296 0.19209 0.08227-0.36083 0.98148-0.91263
  -1   4  -1  483.65   81.77   1-0.75706 0.73797 0.24626 0.03236 0.60515-0.67404
   1  -4   1  606.08   80.25   1-0.76113 0.78048-0.04126-0.23722 0.64727-0.57841
   1  -4   2145895.2 1571.07   1-0.49225 0.55463-0.62728 0.37812-0.60348 0.74121
  -1   4  -2135004.7 1515.06   1-0.74708 0.68478 0.30912-0.06009 0.58847-0.72626
   1  -4   2138565.9 1536.28   1-0.76447 0.82680-0.00508-0.24400 0.64463-0.50681
   1  -4   389154.30  996.89   1-0.69329 0.79894-0.70532 0.48582-0.14782 0.35448
  -1   4  -381920.78  920.58   1-0.45338 0.34780-0.60320 0.82273-0.65618 0.44959
  -1   4  -382055.71  962.85   1-0.72409 0.61857 0.40800-0.18856 0.55608-0.76276
   1  -4   383708.68  962.59   1-0.76518 0.87072 0.00594-0.22543 0.64378-0.43705
  -1   4  -4175719.7 1250.34   1-0.67529 0.52650 0.54512-0.35536 0.49680-0.77234
   1  -4   4169014.7 1182.18   1-0.76376 0.91252-0.01485-0.17504 0.64532-0.36968
   1  -4   4180637.0 1349.83   1-0.32608 0.47478-0.92069 0.73114-0.21443 0.48990
   1  -4   535991.10  898.97   1-0.71136 0.90345-0.58674 0.42657 0.38688-0.04251
  -1   4  -534440.38  842.09   1-0.57786 0.38590 0.71588-0.55578 0.39188-0.73633
   1  -4   535004.09  852.14   1-0.75693 0.94906-0.07883-0.08117 0.64871-0.30442
   1  -4   535154.20  907.47   1-0.21553 0.40742-0.97404 0.81425-0.06912 0.41351
   1  -4   614683.65  787.71   1-0.67890 0.91421-0.52255 0.39204 0.51576-0.10253
  -1   4  -615240.62  791.19   1-0.39268 0.15748 0.89497-0.76456 0.21169-0.62501
   1  -4   615769.26  818.31   1-0.73394 0.96926-0.20828 0.07789 0.64648-0.23334
   1  -4   615185.18  838.77   1-0.12028 0.35528-0.99147 0.86131 0.05002 0.36319
   1  -4   737901.88  960.45   1-0.64408 0.92259-0.46599 0.36512 0.60662-0.12451
  -1   4  -739258.72  914.34   1-0.03229-0.24632 0.99387-0.89296-0.10570-0.37675
   1  -4   738548.62  896.82   1-0.64232 0.92069-0.47177 0.37072 0.60402-0.12201
   1  -4   744016.94 1225.25   1-0.03890 0.31710-0.98818 0.88768 0.14822 0.33386
   1  -4   8129282.6 7496.32   1-0.60926 0.93087-0.41455 0.34327 0.67597-0.12505
   1  -4   8155859.7 9064.75   1 0.03133 0.29007-0.97257 0.90173 0.23045 0.32051
   1  -4   9 3793.53  417.16   1-0.57423 0.93903-0.36665 0.32500 0.73199-0.11221
   1  -4   9 4435.49  644.47   1 0.09334 0.27164-0.94909 0.90789 0.30085 0.31928
   1  -4  10  140.39  166.55   1 0.14855 0.25968-0.92020 0.90868 0.36216 0.32687
   1  -4  11 1468.30  255.16   1-0.50284 0.95406-0.27598 0.29311 0.81913-0.06195
  -1   3   9  928.07  336.37   1-0.35113 0.73734-0.10218 0.59956 0.93073-0.31118
  -1   3   825489.33 1816.60   1-0.37246 0.71548-0.12554 0.59334 0.91951-0.36880
  -1   3   719741.35  897.16   1-0.39066 0.69053-0.14536 0.58370 0.90898-0.42714
  -1   3   722923.95  953.26   1-0.69785 0.99786 0.48915-0.05080 0.52319-0.04100
  -1   3   6 1330.33  201.21   1-0.40498 0.66164-0.16141 0.57017 0.89996-0.48695
  -1   3   6  989.35  125.91   1-0.73115 0.98798 0.38159 0.02712 0.56551-0.15214
  -1   3   559582.59 1496.60   1-0.41438 0.62784-0.17204 0.55121 0.89369-0.54951
  -1   3   562253.30 1497.69   1-0.75058 0.96420 0.28942 0.08969 0.59401-0.24953
  -1   3   454271.94  918.09   1-0.41685 0.58711-0.17485 0.52443 0.89199-0.61665
  -1   3   457401.71  906.05   1-0.76094 0.93130 0.21240 0.13717 0.61305-0.33741
  -1   3   3 6882.15  474.80   1-0.40842 0.53547-0.16529 0.48529 0.89769-0.69119
  -1   3   3 6979.17  465.19   1-0.76565 0.89280 0.15253 0.16744 0.62490-0.41817
   1  -3  -3 7238.82  474.68   1-0.67986 0.55283-0.38494 0.06504 0.62417-0.83074
  -1   3   2 1105.19  118.92   1-0.38043 0.46428-0.13399 0.42440 0.91504-0.77737
  -1   3   2 1537.69  159.68   1-0.76720 0.85113 0.11204 0.17834 0.63153-0.49371
   1  -3  -2 1158.26  116.49   1-0.71322 0.62939-0.28725-0.00305 0.63936-0.77708
  -1   3   1 4395.64  370.71   1-0.31116 0.35181-0.05925 0.32001 0.94850-0.87966
   1  -3  -1 4552.70  141.85   1-0.50556 0.46492-0.27931 0.01849 0.81632-0.88515
  -1   3   1 4740.81  178.84   1-0.76747 0.80819 0.09498 0.16581 0.63400-0.56509
   1  -3  -1 3297.89  129.58   1-0.73601 0.69550-0.19909-0.06160 0.64702-0.71587
  -1   3   0607250.8 6376.67   1-0.76730 0.76480 0.10732 0.12388 0.63223-0.63223
   1  -3   0536553.9 5634.98   1-0.75038 0.75306-0.12426-0.10682 0.64921-0.64921
   1  -3   1999998.764982.80   1-0.26058 0.30636-0.46571 0.26405-0.84569 0.91455
   1  -3   2  753.20   69.12   1-0.66698 0.75600-0.70421 0.53217-0.24333 0.38110
  -1   3  -2  772.66   60.43   1-0.44668 0.35770-0.59890 0.77095-0.66467 0.52694
  -1   3  -2  685.64  106.40   1-0.75568 0.66678 0.25637-0.08439 0.60266-0.74045
   1  -3   2  798.74   69.97   1-0.76125 0.85032-0.04009-0.13174 0.64721-0.50950
  -1   3  -375273.37  854.46   1-0.72189 0.58978 0.41569-0.27331 0.55322-0.75990
   1  -3   377872.81  872.78   1-0.76035 0.89262-0.04909-0.09313 0.64765-0.44107
   1  -3   372326.10  864.72   1-0.33266 0.46476-0.91622 0.77405-0.22331 0.42991
   1  -3   4420017.725422.82   1-0.70201 0.87747-0.56598 0.45327 0.43223-0.15674
  -1   3  -4391120.123674.75   1-0.71319 0.53775-0.69927 0.81201-0.04871-0.22681
  -1   3  -4434027.626263.37   1-0.62777 0.45239 0.63906-0.52634 0.44439-0.71993
   1  -3   4411853.424920.98   1-0.75204 0.92751-0.11375 0.00114 0.64922-0.37379
   1  -3   4390654.823654.28   1-0.20310 0.37839-0.97770 0.86527-0.05330 0.32881
   1  -3   5116455.1 2760.69   1-0.66572 0.88438-0.50025 0.41719 0.55366-0.20930
  -1   3  -5114155.0 2667.44   1-0.39613 0.17756 0.89269-0.80970 0.21489-0.55933
   1  -3   5113441.1 2648.88   1-0.71737 0.93592-0.27299 0.18980 0.64097-0.29668
   1  -3   5114298.2 2731.87   1-0.09920 0.31762-0.99217 0.90938 0.07577 0.26857
   1  -3   6 1823.73  168.62   1-0.63090 0.89268-0.44575 0.39229 0.63503-0.22184
   1  -3   6 2725.52  302.62   1-0.01537 0.27700-0.98426 0.93113 0.17603 0.23719
   1  -3   7 8645.56  557.30   1-0.59732 0.90230-0.39791 0.37408 0.69632-0.21427
   1  -3   710221.05  918.02   1 0.05448 0.25064-0.96492 0.94144 0.25681 0.22551
   1  -3   8 7603.89  597.92   1-0.56438 0.91255-0.35365 0.35946 0.74591-0.19500
   1  -3   8 7847.51  621.30   1 0.11417 0.23421-0.93908 0.94529 0.32416 0.22706
   1  -3   961548.86 2581.79   1-0.53141 0.92277-0.31131 0.34675 0.78783-0.16805
   1  -3   972063.37 3039.68   1 0.16677 0.22486-0.90896 0.94485 0.38206 0.23807
   1  -3  1017114.69 1239.03   1-0.49792 0.93252-0.26999 0.33460 0.82412-0.13577
   1  -3  11  458.27  176.70   1-0.46343 0.94123-0.22872 0.32293 0.85610-0.09892
  -1   2  10 5746.84  640.78   1-0.37809 0.78099-0.13140 0.58141 0.91639-0.22805
  -1   2   9 3635.46  520.45   1-0.40420 0.76389-0.16053 0.58096 0.90047-0.28096
  -1   2   812523.16 1039.16   1-0.42800 0.74448-0.18756 0.57841 0.88409-0.33342
  -1   2   757622.64 2252.97   1-0.44933 0.72261-0.21220 0.57346 0.86779-0.38595
  -1   2   764882.38 2451.49   1-0.72260 0.99605 0.41322-0.05197 0.55414-0.07188
  -1   2   618670.07 1123.79   1-0.46785 0.69793-0.23394 0.56562 0.85228-0.43927
  -1   2   626658.28 1010.26   1-0.75173 0.98196 0.28248 0.04917 0.59589-0.18252
   1  -2  -622979.06 1328.12   1-0.41976 0.18969-0.78335 0.45192 0.45841-0.87165
  -1   2   513120.88  728.90   1-0.48290 0.66978-0.25186 0.55395 0.83866-0.49449
  -1   2   514276.41  757.62   1-0.76462 0.95159 0.16944 0.13265 0.62180-0.27725
   1  -2  -513264.50  708.40   1-0.51032 0.32344-0.68374 0.38154 0.52159-0.86591
  -1   2   463096.37 1554.22   1-0.49316 0.63683-0.26422 0.53672 0.82883-0.55350
  -1   2   466989.53 1604.42   1-0.76749 0.91125 0.07442 0.19809 0.63672-0.36108
   1  -2  -458808.75 1414.63   1-0.58223 0.43857-0.58109 0.30852 0.56862-0.84407
  -1   2   382953.30  731.80   1-0.49576 0.59622-0.26736 0.51028 0.82627-0.61977
  -1   2   239081.74  511.55   1-0.48336 0.54062-0.25241 0.46574 0.83823-0.70057
  -1   2   244287.83  554.30   1-0.75963 0.81681-0.05591 0.26921 0.64794-0.51023
  -1   2   113047.41  217.07   1-0.43172 0.44578-0.19183 0.37558 0.88137-0.81253
  -1   2   115765.78  276.21   1-0.75675 0.77073-0.08029 0.26397 0.64875-0.57989
  -1   2   076481.32  830.37   1-0.21614 0.18701 0.03895 0.11516 0.97558-0.97558
   1  -2   076309.80  855.34   1-0.73154 0.76075-0.21850 0.06444 0.64582-0.64582
   1  -2   389344.84 1000.66   1-0.67405 0.83286-0.51418 0.44892 0.53035-0.32373
  -1   2  -385318.32  969.27   1-0.73104 0.57223-0.65836 0.72363 0.17926-0.38588
  -1   2  -390755.33  977.42   1-0.69216 0.53340 0.50420-0.43892 0.51641-0.72306
   1  -2   389091.61  955.13   1-0.71808 0.87688-0.27025 0.20505 0.64133-0.43476
   1  -2   4162782.1 1186.62   1-0.63704 0.83900-0.45489 0.41925 0.62229-0.34683
  -1   2  -4163105.7 1209.90   1-0.72917 0.52715-0.64177 0.67739 0.23756-0.51306
  -1   2  -4166909.1 1065.28   1-0.30377 0.10184 0.94378-0.90821 0.13037-0.40591
   1  -2   4166712.0 1062.77   1-0.58980 0.79186-0.56866 0.53310 0.57336-0.29791
   1  -2   5 2955.59  224.55   1-0.60512 0.85027-0.40873 0.40273 0.68319-0.33887
   1  -2   5 3983.87  588.82   1 0.02617 0.21888-0.97412 0.96836 0.22449 0.11985
   1  -2   6 1482.37  150.10   1-0.57531 0.86366-0.36809 0.39172 0.73042-0.31723
   1  -2   6 2055.28  292.88   1 0.09173 0.19680-0.94981 0.97374 0.29904 0.11437
   1  -2   788599.70 3269.81   1-0.54608 0.87762-0.32994 0.38320 0.77001-0.28796
   1  -2   788296.78 3270.76   1 0.14649 0.18528-0.92141 0.97502 0.35991 0.12241
   1  -2   8 3335.87  295.89   1-0.51662 0.89139-0.29292 0.37545 0.80454-0.25387
   1  -2   962929.80 2639.07   1-0.48637 0.90435-0.25603 0.36814 0.83539-0.21588
   1  -2  1016159.68  995.79   1-0.45502 0.91620-0.21885 0.36055 0.86316-0.17482
  -1   1  10 4614.28  650.89   1-0.42822 0.80454-0.18782 0.56076 0.88393-0.19559
  -1   1   9 3861.70  396.70   1-0.45638 0.78949-0.22044 0.56380 0.86203-0.24253
  -1   1   8 6040.72  307.88   1-0.48285 0.77276-0.25180 0.56557 0.83871-0.28804
  -1   1   717762.37  609.47   1-0.50769 0.75440-0.28193 0.56611 0.81409-0.33225
  -1   1   718339.60  488.10   1-0.74718 0.99402 0.30862-0.02443 0.58861-0.10635
  -1   1   658445.63 1494.51   1-0.53097 0.73437-0.31075 0.56563 0.78835-0.37516
  -1   1   665064.21 1556.24   1 0.27782-0.07466 0.89360-0.63870-0.35254 0.76582
  -1   1   661650.90 1484.40   1-0.76634 0.96993 0.13846 0.11616 0.62733-0.21387
  -1   1   551829.91 1309.79   1-0.55265 0.71286-0.33838 0.56363 0.76162-0.41729
  -1   1   549184.42 1182.87   1-0.76416 0.92453-0.00945 0.23449 0.64494-0.30040
   1  -1  -545215.63 1091.44   1-0.37903 0.21876-0.81997 0.59512 0.42892-0.77328
  -1   1   427727.53  401.61   1-0.57268 0.68969-0.36459 0.56021 0.73423-0.45877
  -1   1   429915.66  315.35   1-0.74774 0.86479-0.13993 0.33544 0.64906-0.37363
   1  -1  -427795.63  300.38   1-0.46292 0.34584-0.73933 0.54405 0.48896-0.76445
  -1   1   3148859.2 1607.21   1-0.72337 0.79722-0.25095 0.41684 0.64323-0.43666
   1  -1  -3138587.0 1505.19   1-0.53011 0.45622-0.65794 0.49203 0.53487-0.74145
  -1   1   240920.23  507.47   1-0.60638 0.63701-0.41050 0.54685 0.68101-0.54328
   1  -1  -242446.87  502.69   1-0.58041 0.54973-0.58402 0.44773 0.56748-0.70520
  -1   1   1 3812.82   91.65   1-0.61617 0.60361-0.42436 0.53108 0.66350-0.59463
   1  -1  -1 4789.16  103.54   1-0.66927 0.68185-0.50613 0.39939 0.54396-0.61283
  -1   1   1 4608.55  117.97   1-0.67257 0.66005-0.40333 0.50997 0.62045-0.55160
   1  -1  -1 3639.04   91.29   1-0.61321 0.62575-0.52781 0.42116 0.58768-0.65654
   1  -1   1 5343.41   86.88   1-0.59277 0.69172-0.39166 0.34420 0.70371-0.63485
  -1   1  -1 4613.72   80.59   1-0.68537 0.58640-0.53404 0.58149 0.49503-0.56390
   1  -1   1 5544.22  124.09   1-0.27202 0.37092-0.95173 0.90436-0.14215 0.21103
  -1   1  -1 4744.51  104.18   1-0.34821 0.24932-0.90498 0.95237-0.24443 0.17556
   1  -1   2 2441.32   99.52   1-0.59247 0.73461-0.39125 0.37343 0.70419-0.56646
  -1   1  -2 2220.82   91.32   1-0.68539 0.54322-0.53407 0.55188 0.49496-0.63271
  -1   1  -2 2582.29   54.85   1-0.76424 0.62210-0.00378 0.02157 0.64491-0.78263
   1  -1   2 3684.27  323.97   1-0.08034 0.22242-0.99187 0.97416 0.09862 0.03911
  -1   1  -2 2119.00  178.15   1-0.20574 0.06366-0.97696 0.99467-0.05666-0.08109
   1  -1   324921.88  358.31   1-0.57797 0.76331-0.37164 0.38345 0.72651-0.51992
  -1   1  -323493.22  345.14   1-0.69340 0.50804-0.54894 0.53710 0.46673-0.67335
  -1   1  -322053.03  346.60   1-0.15394-0.03132-0.98804 0.97609 0.00843-0.21507
   1  -1   423905.73  344.36   1-0.55971 0.78824-0.34754 0.38898 0.75228-0.47682
   1  -1   418700.39 1168.53   1 0.09381 0.13487-0.94887 0.99052 0.30138-0.02576
   1  -1   5106852.7 2555.99   1-0.53921 0.81093-0.32116 0.39224 0.77852-0.43420
   1  -1   5112412.5 2703.82   1 0.14760 0.12433-0.92076 0.99210 0.36111-0.01660
   1  -1   6 9467.61  614.62   1-0.51687 0.83182-0.29324 0.39367 0.80426-0.39126
   1  -1   7 5244.27  313.18   1-0.49287 0.85102-0.26387 0.39389 0.82912-0.34728
   1  -1   9 7550.44  527.91   1-0.43985 0.88441-0.20121 0.39040 0.87523-0.25572
   1  -1  1012845.26  976.95   1-0.41072 0.89849-0.16790 0.38668 0.89616-0.20782
  -1   0  1120050.86 1982.22   1-0.44542 0.83836-0.20766 0.53311 0.87089-0.11372
  -1   0  10 3774.64  528.76   1-0.47697 0.82670-0.24477 0.54063 0.84414-0.15580
  -1   0   9 3060.80  368.32   1-0.50716 0.81369-0.28128 0.54755 0.81465-0.19514
  -1   0   8 4299.00  354.79   1-0.53622 0.79945-0.31738 0.55445 0.78212-0.23120
  -1   0   717401.44  549.79   1-0.56449 0.78452-0.35379 0.56122 0.74577-0.26371
  -1   0   718419.72  451.67   1-0.10523 0.32507 0.99348-0.78590-0.04382 0.52599
  -1   0   719318.04  481.51   1-0.76649 0.98669 0.13480 0.07235 0.62794-0.14557
  -1   0   6125463.6 1907.27   1-0.59231 0.76915-0.39103 0.56883 0.70445-0.29126
  -1   0   6135264.3 1917.15   1 0.02572 0.15112 0.98777-0.80953-0.15374 0.56728
  -1   0   6126953.5 1805.50   1-0.75387 0.93078-0.10146 0.27918 0.64913-0.23599
  -1   0   5106806.3  933.85   1-0.62027 0.75391-0.43024 0.57840 0.65586-0.31153
  -1   0   5110865.3  785.04   1 0.12534 0.00813 0.96422-0.81602-0.23356 0.57796
  -1   0   5110599.6  791.90   1-0.70685 0.84054-0.30805 0.45600 0.63675-0.29246
  -1   0   4  242.47   44.35   1 0.19592-0.10560 0.93695-0.81839-0.28935 0.56487
  -1   0   4  248.41   85.27   1-0.63139 0.72188-0.49400 0.61236 0.59774-0.32231
   1   0  -4  110.51   79.57   1 0.03131-0.12183-0.97258 0.85393 0.23042-0.50590
  -1   0   3131747.1 1465.85   1-0.68077 0.72804-0.52582 0.61476 0.50995-0.30333
  -1   0   3127545.3 1362.49   1 0.23640-0.18924 0.91716-0.82824-0.32080 0.52743
   1   0  -3123098.0 1352.58   1 0.06652-0.11394-0.96040 0.87134 0.27053-0.47724
   1   0  -2122738.7 1335.77   1-0.73007 0.72600-0.64746 0.58818 0.21856-0.35631
  -1   0   2116816.6 1243.92   1 0.23542-0.23142 0.91768-0.85840-0.32004 0.45780
  -1   0   2118577.7 1269.64   1-0.39390 0.39797-0.80712 0.86625 0.43975-0.30201
   1   0  -2113710.5 1221.12   1 0.11066-0.11482-0.94084 0.88147 0.32024-0.45805
  -1   0   1  -32.59   26.03   1-0.71267 0.67354-0.69957 0.72921-0.05186 0.12074
   1   0  -1    2.19   18.22   1 0.23092-0.19175 0.92003-0.94967-0.31656 0.24768
   1   0   0   23.98   18.93   1 0.04117 0.04117 0.98519-0.98519-0.16640 0.16640
   1   0   1271667.2 2856.81   1-0.38341 0.50892-0.13729 0.16688 0.91331-0.84447
  -1   0  -1257098.6 2707.80   1-0.48446 0.35895-0.25373 0.22415 0.83720-0.90604
  -1   0  -1259804.3 2704.67   1-0.42346 0.29796 0.87341-0.90306 0.24046-0.30934
   1   0   1263882.2 2779.00   1 0.12292 0.00265-0.93456 0.96424 0.33389-0.26498
  -1   0  -1243947.3 2572.27   1 0.02365-0.14915-0.97485 0.94519 0.22157-0.29044
   1   0   2368856.9 3894.42   1-0.46533 0.63404-0.23096 0.29014 0.85446-0.71680
  -1   0  -2325862.4 3451.99   1-0.59102 0.42231-0.38926 0.33000 0.70651-0.84424
  -1   0  -2362658.0 3767.78   1-0.74256 0.57386 0.33209-0.39127 0.58164-0.71943
   1   0   2367022.8 3882.30   1 0.16304 0.00578-0.91133 0.97070 0.37800-0.24019
   1   0   4 1487.88  157.66   1-0.48360 0.73872-0.25270 0.37105 0.83801-0.56267
   1   0   4 2095.62  146.05   1-0.15007 0.40506 0.98865-0.87004-0.00543 0.28095
   1   0   584249.87 1320.34   1-0.47361 0.77193-0.24077 0.38870 0.84718-0.50300
   1   0   656922.34 1416.74   1-0.45824 0.79977-0.22263 0.40014 0.86049-0.44748
   1   0   7  512.16  151.37   1-0.43913 0.82387-0.20038 0.40748 0.87578-0.39394
   1   0   8  519.86  241.56   1-0.41707 0.84500-0.17509 0.41178 0.89184-0.34117
   1   0   9  167.67  162.12   1-0.39243 0.86357-0.14733 0.41360 0.90790-0.28839
   1   0  10 6328.66 1239.30   1-0.36538 0.87964-0.11774 0.41353 0.92338-0.23499
  -1  -1  1112566.29  926.51   1-0.49079 0.85715-0.26135 0.50972 0.83114-0.07397
  -1  -1  1023332.97 1373.28   1-0.52376 0.84691-0.30180 0.52058 0.79660-0.10826
  -1  -1   9 8609.15  865.15   1-0.55565 0.83551-0.34227 0.53188 0.75768-0.13790
  -1  -1   8 7031.16  385.56   1-0.58687 0.82353-0.38362 0.54360 0.71302-0.16210
  -1  -1   8 8645.12  353.74   1-0.75905 0.99587 0.22958-0.06991 0.60920-0.05792
  -1  -1   7 2347.95  283.74   1-0.61768 0.81115-0.42653 0.55687 0.66070-0.17865
  -1  -1   7 2507.91  164.14   1-0.39612 0.58949 0.89269-0.76225 0.21489 0.26730
  -1  -1   7 2285.21  153.35   1-0.73590 0.92948-0.19958 0.32990 0.64699-0.16499
  -1  -1   644902.70 1150.38   1-0.64822 0.79853-0.47235 0.57313 0.59723-0.18399
  -1  -1   646365.48 1108.58   1-0.29471 0.44491 0.94773-0.84694 0.12222 0.29109
  -1  -1   648206.35 1147.87   1-0.62890 0.77921-0.49889 0.59939 0.59629-0.18315
  -1  -1   645587.52 1160.69   1 0.18280-0.03228-0.89835 0.99938 0.39942 0.01400
  -1  -1   5354882.5 2441.54   1-0.67903 0.78614-0.52277 0.59390 0.51539-0.17102
  -1  -1   5362552.021938.53   1-0.23527 0.34228 0.96948-0.89828 0.06885 0.27555
  -1  -1   5395843.023952.77   1-0.46801 0.57506-0.73375 0.80457 0.49251-0.14815
  -1  -1   5352411.3 2419.63   1 0.13448-0.02721-0.92828 0.99962 0.34668-0.00216
   1   1  -448683.57  552.85   1 0.26926-0.33305 0.89875-0.94026-0.34602 0.07050
  -1  -1   454179.05  634.99   1-0.21502 0.27886 0.97527-0.93372 0.05103 0.22449
  -1  -1   448409.17  612.23   1 0.07180-0.00778-0.95831 0.99996 0.27653-0.00091
   1   1  -454706.34  662.17   1-0.13455 0.07067-0.99037 0.94877 0.03244-0.30795
   1   1  -3117674.6 1270.70   1 0.04008-0.06079 0.98539-0.99729-0.16551-0.04125
  -1  -1   3114741.1 1228.26   1-0.23993 0.26060 0.96804-0.95614 0.07296 0.13368
  -1  -1   3112651.5 1239.51   1-0.02536 0.04604-0.98609 0.99804 0.16426 0.04234
   1   1  -3117197.3 1274.71   1-0.18422 0.16353-0.98244 0.97049-0.02944-0.17718
   1   1  -225945.01  338.03   1-0.18474 0.20724 0.98247-0.96472 0.02458-0.16234
  -1  -1   228984.86  341.33   1-0.31592 0.29341 0.93819-0.95597 0.14134-0.00357
  -1  -1   227197.37  322.80   1-0.23226 0.20976-0.96842 0.95072-0.09055 0.22831
  -1  -1   1137625.5 1462.42   1-0.41114 0.34540-0.57540 0.52793-0.70701 0.77587
   1   1  -1152936.5 1620.87   1-0.34462 0.41034-0.52888 0.57634-0.77556 0.70670
   1   1   0283637.5 2983.20   1-0.05587 0.16473 0.19438-0.11734 0.97933-0.97933
  -1  -1   0257735.0 2711.82   1-0.15345 0.04459 0.10140-0.17844 0.98293-0.98293
   1   1   0281397.3 2947.24   1-0.49352 0.60245 0.81336-0.73632 0.30801-0.30801
  -1  -1   0275892.3 2892.56   1-0.58298 0.47406 0.70880-0.78584 0.39713-0.39713
   1   1   111499.39  216.10   1-0.28361 0.43569-0.03024 0.13688 0.95846-0.88962
  -1  -1  -1 9444.29  194.26   1-0.41365 0.26156-0.17121 0.06454 0.89419-0.96302
   1   1   110835.88  171.11   1-0.55892 0.71106 0.74075-0.63411 0.37266-0.30377
  -1  -1  -1 9903.16  164.16   1-0.70247 0.55036 0.47637-0.58301 0.52877-0.59765
  -1  -1  -2203860.8 2217.65   1-0.53167 0.33640-0.31163 0.17528 0.78753-0.92526
   1   1   2210690.1 2224.19   1-0.58112 0.77647 0.71140-0.57515 0.39522-0.25744
  -1  -1  -2203933.9 2161.13   1-0.76294 0.56762 0.19124-0.32750 0.61752-0.75534
  -1  -1  -2199521.4 2173.26   1 0.16880-0.36428-0.90766 0.77119 0.38426-0.52207
   1   1   3128610.5 1034.20   1-0.40315 0.64164-0.15935 0.32519 0.90115-0.69464
   1   1   3131200.2  892.92   1-0.57108 0.80964 0.72502-0.55917 0.38497-0.17830
  -1  -1  -3120913.4  842.55   1-0.75267 0.51428-0.10964-0.05625 0.64920-0.85577
   1   1   443098.10 1096.07   1-0.41298 0.69468-0.17045 0.36588 0.89464-0.61930
   1   1   445619.17 1083.62   1-0.53057 0.81235 0.77455-0.57909 0.34432-0.06876
  -1  -1  -438992.42  934.91   1-0.67451 0.39284-0.39851 0.20310 0.62146-0.89689
   1   1   5  768.38  174.29   1-0.41058 0.73549-0.16774 0.39274 0.89626-0.55208
   1   1   5  407.13   50.05   1-0.44909 0.77409 0.85317-0.62810 0.26534 0.07910
  -1  -1  -5  604.87   89.55   1-0.52435 0.19942-0.66562 0.44046 0.53103-0.87534
   1   1   662074.62 1604.60   1-0.40071 0.76882-0.15661 0.41120 0.90271-0.48971
   1   1   667839.41 1623.63   1-0.27593 0.64385 0.95538-0.70045 0.10539 0.30792
   1   1   723667.66  993.99   1-0.38568 0.79700-0.13981 0.42399 0.91197-0.43013
   1   1   8 5570.82  681.14   1-0.36668 0.82113-0.11917 0.43286 0.92268-0.37197
   1   1   9 1494.20  300.94   1-0.34443 0.84208-0.09492 0.43818 0.93399-0.31445
  -1  -2  11  437.63  231.84   1-0.53379 0.87346-0.31431 0.48610 0.78502-0.02751
  -1  -2  1022144.53 1026.79   1-0.56778 0.86426-0.35812 0.50028 0.74119-0.05254
  -1  -2   9 4523.64  399.73   1-0.60081 0.85410-0.40274 0.51526 0.69051-0.07073
  -1  -2   8 9444.35  625.69   1-0.63302 0.84311-0.44889 0.53178 0.63069-0.07978
  -1  -2   810051.50  579.62   1-0.67732 0.88758 0.54045-0.45771 0.49914 0.05192
  -1  -2   8 9548.26  551.60   1-0.70838 0.91851-0.30317 0.38580 0.63739-0.08653
  -1  -2   811564.32  735.02   1 0.17553 0.03484-0.90325 0.98655 0.39156 0.15966
  -1  -2   717371.31  529.44   1-0.66412 0.83108-0.49762 0.55095 0.55795-0.07584
  -1  -2   719327.97  480.37   1-0.58206 0.74902 0.71009-0.65692 0.39618 0.08603
  -1  -2   720096.23  503.69   1-0.51851 0.68558-0.67326 0.72659 0.52711-0.04508
  -1  -2   719124.46  570.19   1 0.12325 0.04386-0.93438 0.98800 0.33425 0.14806
  -1  -2   6 2620.46  255.41   1-0.69383 0.81759-0.54976 0.57344 0.46513-0.05190
  -1  -2   6 2355.50  167.72   1-0.52455 0.64830 0.78124-0.75767 0.33837 0.07496
  -1  -2   6 3316.64  428.87   1 0.06041 0.06345-0.96274 0.98667 0.26358 0.14983
  -1  -2   5124682.3 1012.79   1-0.71917 0.79973-0.60632 0.60033 0.33935 0.00501
   1   2  -5117605.6  855.21   1 0.05522-0.13581 0.98250-0.97660-0.17788-0.16673
  -1  -2   5117429.4  822.66   1-0.49795 0.57849 0.80901-0.81505 0.31231 0.03213
  -1  -2   5116728.8 1013.79   1-0.02054 0.10100-0.98523 0.97947 0.16994 0.17440
  -1  -2   4271351.0 2921.47   1-0.73103 0.76839-0.66431 0.62868 0.15579 0.11970
   1   2  -4259365.4 2746.54   1-0.16423 0.12689 0.98639-0.95089 0.00679-0.28232
  -1  -2   4247017.5 2609.35   1-0.50043 0.53776 0.80653-0.84218 0.31473-0.03917
  -1  -2   4263179.2 2824.19   1-0.13381 0.17111-0.99044 0.95503 0.03335 0.24215
   1   2  -4251361.2 2686.13   1-0.32771 0.29037-0.91960 0.95510-0.21662-0.05883
  -1  -2   3 1718.46  109.39   1-0.69768 0.69180-0.70472 0.63943-0.12879 0.33545
   1   2  -3 1604.01  105.96   1-0.62831 0.63419-0.69428 0.75958-0.35097 0.14432
   1   2  -3 1460.04   79.98   1-0.34509 0.35097 0.92343-0.85822 0.16785-0.37451
  -1  -2   3 1342.34   65.20   1-0.52971 0.52382 0.77551-0.84076 0.34347-0.13680
  -1  -2   3 1443.94   77.50   1-0.30720 0.30132-0.93266 0.86752-0.18912 0.39572
  -1  -2   2230866.0 2452.92   1-0.53841 0.48932-0.65371 0.55882-0.53175 0.66953
   1   2  -2210134.5 2236.38   1-0.43790 0.48704-0.59320 0.68815-0.67553 0.53780
   1   2  -2224670.0 2386.02   1-0.47617 0.52528 0.82971-0.73486 0.29124-0.42902
  -1  -2   2223752.8 2373.18   1-0.58015 0.53105 0.71274-0.80759 0.39423-0.25645
  -1  -2   1142659.9 1534.14   1 0.09705-0.18927 0.33130-0.45585 0.93851-0.86969
  -1  -2   1149149.1 1613.59   1-0.22092 0.12861-0.43448 0.30992-0.87316 0.94202
   1   2  -1150511.6 1625.64   1-0.56063 0.65295 0.73859-0.61413 0.37438-0.44327
   1   2   017736.84  271.54   1-0.06069 0.19611 0.18989-0.03581 0.97992-0.97992
  -1  -2   021070.11  318.86   1-0.20848 0.07300 0.04666-0.20078 0.97691-0.97691
   1   2   021298.21  303.97   1-0.60814 0.74363 0.67135-0.51726 0.42360-0.42360
  -1  -2   018563.95  280.70   1-0.70119 0.56570 0.47995-0.63404 0.52722-0.52722
   1   2   1138186.4 1502.66   1-0.62919 0.80790 0.63660-0.45291 0.44591-0.37703
  -1  -2  -1133482.1 1465.04   1-0.74617 0.56748 0.31396-0.49766 0.58706-0.65596
   1   2   2 1954.67  265.46   1-0.29528 0.51715-0.04248 0.25575 0.95446-0.81678
   1   2   2 1222.27  117.30   1-0.63080 0.85273 0.63379-0.42050 0.44764-0.30987
  -1  -2  -2 1189.32  102.70   1-0.76687 0.54495 0.12438-0.33771 0.62962-0.76744
   1   2   3155634.8 3688.24   1-0.33253 0.59760-0.08208 0.32494 0.93950-0.73299
   1   2   3153926.4 3605.73   1-0.61585 0.88100 0.65904-0.41614 0.43172-0.22507
  -1  -2  -3134447.5 3158.56   1-0.75677 0.49185-0.08010-0.16281 0.64874-0.85531
   1   2   468424.07 1123.67   1-0.34798 0.65624-0.09876 0.37119 0.93228-0.65692
   1   2   469304.28 1027.48   1-0.58335 0.89174 0.70829-0.43580 0.39750-0.12195
  -1  -2  -458793.18  887.21   1-0.71246 0.40422-0.28980 0.01735 0.63906-0.91449
   1   2   540325.15 1568.49   1-0.35052 0.70197-0.10152 0.40353 0.93103-0.58684
   1   2   545129.51 1659.01   1-0.52850 0.88010 0.77687-0.47477 0.34227 0.00217
   1   2   6 4527.75  605.29   1-0.34466 0.73931-0.09516 0.42675 0.93389-0.52085
   1   2   6 4444.56  233.37   1-0.43887 0.83334 0.86160-0.52960 0.25500 0.15831
   1   2   730641.71 1600.83   1-0.33282 0.77067-0.08239 0.44356 0.93938-0.45751
   1   2   8 2035.41  362.33   1-0.31638 0.79742-0.06480 0.45555 0.94641-0.39570
   1   2   9 1716.30  479.27   1-0.29613 0.82037-0.04337 0.46370 0.95416-0.33461
  -1  -3  1211412.97 1249.36   1-0.53831 0.89461-0.32003 0.44437 0.77960 0.04676
  -1  -3  11 7186.59  859.33   1-0.57394 0.88705-0.36627 0.46097 0.73241 0.02509
  -1  -3  10 7238.08  637.77   1-0.60825 0.87817-0.41314 0.47821 0.67774 0.01090
  -1  -3   920408.93 1258.81   1-0.64101 0.86782-0.46131 0.49683 0.61342 0.00643
  -1  -3   923591.57 1386.19   1 0.14145 0.08551-0.92434 0.96023 0.35437 0.26576
  -1  -3   8 5410.60  696.63   1-0.67224 0.85585-0.51111 0.51699 0.53558 0.01539
  -1  -3   8 6123.49  367.75   1-0.71009 0.89375 0.45393-0.44836 0.53824 0.01291
  -1  -3   8 6406.95  385.14   1-0.40769 0.59113-0.79468 0.80019 0.44973 0.10124
  -1  -3   8 7349.23  694.20   1 0.08309 0.10062-0.95362 0.95982 0.28931 0.26191
  -1  -3   7 1039.90  148.13   1-0.70057 0.84099-0.56304 0.53927 0.43836 0.04374
   1   3  -7 1441.86  221.66   1 0.16152-0.30176 0.95136-0.92768-0.26231-0.21984
  -1  -3   7 1379.74  116.07   1-0.66375 0.80419 0.57045-0.59436 0.48375-0.00156
  -1  -3   7 1594.10  293.41   1 0.01398 0.12625-0.97752 0.95405 0.21035 0.27173
  -1  -3   6 1730.24  175.89   1-0.72276 0.81996-0.61678 0.56334 0.31174 0.10150
   1   3  -6 1999.85  262.66   1-0.06565-0.03159 0.99480-0.94140-0.07774-0.33579
  -1  -3   6 2012.10  158.69   1-0.63487 0.73209 0.62657-0.68009 0.45202-0.03872
  -1  -3   6 1984.25  315.93   1-0.07048 0.16751-0.99137 0.93824 0.11049 0.30272
  -1  -3   541004.32  473.04   1-0.73066 0.78464-0.66828 0.58518 0.13972 0.20469
   1   3  -536959.59  356.72   1-0.25391 0.19990 0.96345-0.88054 0.08534-0.42975
  -1  -3   537525.31  354.72   1-0.62379 0.67780 0.64586-0.72898 0.44015-0.09573
  -1  -3   536788.28  437.74   1-0.17842 0.23233-0.98370 0.90092-0.02215 0.36654
   1   3  -4101781.4 1141.92   1-0.39994 0.38919 0.89012-0.77749 0.21845-0.49399
  -1  -3   499611.11 1110.32   1-0.62930 0.64008 0.63642-0.74914 0.44603-0.17049
  -1  -3   498502.67 1124.10   1-0.31883 0.32956-0.92544 0.81292-0.20468 0.48015
   1   3  -382883.96  951.51   1-0.50426 0.53676 0.80267-0.66039 0.31846-0.52513
  -1  -3   387460.39  989.95   1-0.64863 0.61620 0.60098-0.74331 0.46699-0.26034
  -1  -3   2  203.35  175.29   1-0.39491 0.31918-0.56432 0.39227-0.72496 0.86269
   1   3  -2   24.21   83.21   1-0.22635 0.30204-0.43881 0.61083-0.86959 0.73187
   1   3  -2  219.88   82.59   1-0.57381 0.64952 0.72137-0.54948 0.38775-0.52553
  -1  -3   2  206.32   78.05   1-0.67739 0.60174 0.54028-0.71221 0.49922-0.36145
   1   3  -1543693.8 5719.64   1 0.14696-0.02817 0.37359-0.17198 0.91587-0.98469
  -1  -3   1508510.9 5337.25   1-0.03951-0.07937 0.20953-0.41104 0.97700-0.90815
   1   3  -1529611.6 5567.47   1-0.61610 0.73497 0.65864-0.45711 0.43198-0.50086
  -1  -3   1485766.0 5118.43   1-0.70981 0.59096 0.45478-0.65635 0.53789-0.46900
   1   3   0264374.0 2847.58   1-0.04537 0.20735 0.20412 0.02699 0.97789-0.97789
  -1  -3   0247693.6 2661.71   1-0.25097 0.08890 0.00354-0.23472 0.96798-0.96798
   1   3   0272027.1 2912.39   1-0.63844 0.80053 0.62012-0.38899 0.45588-0.45588
  -1  -3   0258406.2 2780.85   1-0.73956 0.57749 0.34612-0.57728 0.57726-0.57726
   1   3   1  401.37   87.45   1-0.16476 0.36985 0.09033 0.17038 0.98218-0.91333
   1   3   1  375.16   77.97   1-0.64587 0.85117 0.60628-0.34555 0.46396-0.39508
  -1  -3  -1  314.26   70.37   1-0.76050 0.55519 0.21663-0.47743 0.61212-0.68103
   1   3   2  810.33  137.58   1-0.23270 0.48116 0.02219 0.26813 0.97229-0.83461
   1   3   2  751.32  113.39   1-0.64107 0.88959 0.61529-0.32495 0.45873-0.32096
  -1  -3  -2  363.35   63.86   1-0.76745 0.51893 0.07010-0.36050 0.63725-0.77507
   1   3   313612.95  770.13   1-0.26985 0.56150-0.01592 0.33584 0.96276-0.75625
   1   3   312717.69  684.18   1-0.62464 0.91638 0.64443-0.32449 0.44104-0.23440
  -1  -3  -313651.57  734.45   1-0.75544 0.46399-0.09025-0.22969 0.64896-0.85553
   1   3   443576.05 1195.63   1-0.28782 0.62266-0.03465 0.38414 0.95705-0.68170
   1   3   444864.92 1091.16   1-0.59515 0.93014 0.69134-0.34181 0.40968-0.13412
   1   3   542345.78 2419.29   1-0.29333 0.67137-0.04043 0.41950 0.95515-0.61096
   1   3   543662.39 2408.29   1-0.54915 0.92735 0.75285-0.37371 0.36283-0.01838
   1   3   6 1677.46  279.45   1-0.29022 0.71146-0.03716 0.44581 0.95623-0.54320
   1   3   723450.76 1805.34   1-0.28074 0.74518-0.02725 0.46548 0.95939-0.47752
   1   3   8 5754.50 1216.51   1-0.26626 0.77389-0.01221 0.48001 0.96382-0.41311
  -1  -4  12 9019.53 1001.50   1-0.57505 0.90478-0.36774 0.41499 0.73080 0.09557
  -1  -4  1115502.16 1124.05   1-0.61050 0.89704-0.41630 0.43392 0.67377 0.08373
  -1  -4  1116868.89 1252.27   1 0.17358 0.11323-0.90453 0.92271 0.38945 0.36848
  -1  -4  10  637.43  233.67   1-0.64390 0.88735-0.46571 0.45378 0.60703 0.08168
  -1  -4  10  206.83  152.45   1 0.11928 0.12429-0.93646 0.92495 0.32985 0.35918
  -1  -4   927775.28 1584.80   1-0.67513 0.87538-0.51602 0.47445 0.52717 0.09268
  -1  -4   930324.84 1738.41   1 0.05814 0.14218-0.96358 0.92238 0.26099 0.35914
  -1  -4   824801.83 1470.62   1-0.70266 0.85972-0.56731 0.49609 0.42944 0.12154
   1   4  -821854.44 1258.07   1 0.08266-0.23978 0.97627-0.90506-0.20015-0.35122
  -1  -4   825315.01 1454.81   1-0.72790 0.88496 0.39406-0.46554 0.56112-0.00997
  -1  -4   826445.55 1143.29   1-0.01249 0.16929-0.98369 0.91285 0.17941 0.37154
  -1  -4   719072.17  574.58   1-0.72338 0.83722-0.61874 0.51785 0.30637 0.17575
   1   4  -717499.28  491.50   1-0.12265 0.00880 0.99202-0.89135-0.02896-0.45321
  -1  -4   718797.80  491.22   1-0.70369 0.81753 0.47279-0.57386 0.53036-0.04810
  -1  -4   719851.13  607.54   1-0.09530 0.20889-0.99218 0.89168 0.08051 0.40157
  -1  -4   6 2722.27  277.90   1-0.73081 0.80142-0.66642 0.53585 0.14762 0.26566
   1   4  -6 2159.37  171.62   1-0.28758 0.21702 0.95072-0.82031 0.11582-0.52914
  -1  -4   6 2441.85  176.18   1-0.68910 0.75972 0.51202-0.64258 0.51280-0.09950
  -1  -4   6 3115.89  346.71   1-0.19441 0.26492-0.98000 0.84986-0.04229 0.45556
  -1  -4   521942.02  353.76   1-0.71155 0.73896-0.70018 0.53997-0.05852 0.40293
   1   4  -520317.56 1255.87   1-0.41393 0.38655 0.88036-0.72031 0.23152-0.57595
  -1  -4   520071.97 1235.27   1-0.68494 0.71235 0.52233-0.68250 0.50794-0.16353
  -1  -4   517801.85 1109.97   1-0.31264 0.33997-0.92934 0.76943-0.19639 0.54073
   1   4  -4164462.7 1213.55   1-0.50515 0.52104 0.80177-0.61206 0.31933-0.59488
  -1  -4   4165553.5 1195.48   1-0.69039 0.67458 0.50873-0.69850 0.51433-0.23879
  -1  -4   3264616.9 2842.51   1-0.50253 0.44342-0.63337 0.41385-0.58846 0.79505
   1   4  -3242030.3 2606.65   1-0.28631 0.34537-0.48551 0.70499-0.82601 0.61943
   1   4  -3251327.5 2719.48   1-0.56847 0.62758 0.72846-0.50914 0.38232-0.58899
  -1  -4   3233281.2 2522.58   1-0.70346 0.64443 0.47357-0.69294 0.52997-0.32332
  -1  -4   223196.64  340.70   1 0.07282-0.17498 0.31036-0.55944 0.94782-0.81018
   1   4  -1139151.2 1568.44   1 0.12108 0.02427 0.35181-0.07313 0.92820-0.99702
   1   4  -1149071.9 1676.13   1-0.63390 0.77937 0.62831-0.34973 0.45098-0.51986
   1   4   0220943.6 1620.77   1-0.02225 0.21080 0.22538 0.08277 0.97401-0.97401
   1   4   0219186.4 1574.32   1-0.64547 0.83415 0.60704-0.29886 0.46352-0.46352
   1   4   117268.42 1087.43   1-0.11798 0.34963 0.13572 0.20202 0.98369-0.91484
   1   4   116323.07 1018.73   1-0.64670 0.87860 0.60470-0.26692 0.46487-0.39598
   1   4   2 1321.46  174.01   1-0.17781 0.45255 0.07748 0.28987 0.98100-0.84330
   1   4   2 1082.73  143.36   1-0.63864 0.91376 0.61975-0.25237 0.45610-0.31833
   1   4   3 1411.21  288.01   1-0.21269 0.53093 0.04243 0.35454 0.97619-0.76968
   1   4   3  941.16  118.04   1-0.62113 0.93946 0.65034-0.25336 0.43731-0.23066
   1   4   4 8458.74  624.21   1-0.23140 0.59283 0.02352 0.40302 0.97257-0.69721
   1   4   410519.66  490.27   1-0.59267 0.95427 0.69497-0.26841 0.40711-0.13156
   1   4   528123.18 1359.58   1-0.23852 0.64315 0.01628 0.43984 0.97100-0.62680
   1   4   529501.07 1208.80   1-0.55044 0.95525 0.75127-0.29511 0.36412-0.01968
   1   4   611802.59  999.08   1-0.23718 0.68501 0.01764 0.46806 0.97130-0.55827
   1   4   716048.76 1779.82   1-0.22937 0.72040 0.02557 0.48970 0.97300-0.49112
  -1  -5  12 8569.07  681.38   1-0.60833 0.91151-0.41325 0.38342 0.67760 0.14877
  -1  -5  12 9691.12  767.94   1 0.16273 0.14069-0.91152 0.88229 0.37766 0.44917
  -1  -5  1122789.10 1611.31   1-0.64255 0.90265-0.46365 0.40427 0.61003 0.14756
  -1  -5  1125642.14 1852.28   1 0.10682 0.15335-0.94273 0.88381 0.31596 0.44198
  -1  -5  1017845.16  828.74   1-0.67413 0.89104-0.51433 0.42530 0.53009 0.15863
  -1  -5  1019833.09 1612.73   1 0.04481 0.17211-0.96830 0.87969 0.24573 0.44330
  -1  -5   9 2193.41  245.44   1-0.70159 0.87530-0.56512 0.44644 0.43404 0.18580
   1   5  -9 2003.91  174.60   1 0.04602-0.21981 0.98430-0.86559-0.17037-0.44992
  -1  -5   9 2406.52  396.82   1-0.02522 0.19859-0.98606 0.86785 0.16442 0.45540
  -1  -5   839698.90 1516.80   1-0.72221 0.85268-0.61509 0.46674 0.31632 0.23467
   1   5  -837989.81 1411.48   1-0.14366 0.01315 0.98956-0.84149-0.01094-0.54010
  -1  -5   840244.79 1551.78   1-0.10464 0.23481-0.99210 0.84422 0.06914 0.48181
  -1  -5   7111284.8 2691.97   1-0.73109 0.81835-0.66070 0.48271 0.17023 0.31189
   1   5  -7106935.4 2555.45   1-0.29336 0.20617 0.94831-0.77047 0.12100-0.60321
  -1  -5   7110487.9 2679.24   1-0.19554 0.28266-0.97971 0.80221-0.04373 0.52587
  -1  -5   671925.89 1138.95   1-0.71873 0.76277-0.69518 0.48751-0.01155 0.42485
   1   5  -669585.25 1079.03   1-0.40838 0.36436 0.88430-0.67682 0.22632-0.63964
  -1  -5   671684.98 1130.11   1-0.29863 0.34256-0.93767 0.73036-0.17773 0.59093
  -1  -5   510842.42  697.10   1-0.67106 0.67186-0.70478 0.46745-0.23010 0.57453
   1   5  -510329.37  666.18   1-0.49300 0.49228 0.81387-0.57672 0.30750-0.65194
  -1  -5   510455.93  671.77   1-0.41006 0.41078-0.85009 0.61315-0.33041 0.67475
  -1  -5   449905.96  526.31   1-0.57374 0.53132-0.67172 0.40487-0.46860 0.74415
   1   5  -445642.35  520.57   1-0.55388 0.59638 0.74705-0.48030 0.36758-0.64314
  -1  -5   333785.84  421.44   1-0.42860 0.34289-0.58708 0.29045-0.68675 0.89334
   1   5  -330591.02  400.43   1-0.59550 0.68121 0.69081-0.39446 0.41005-0.61671
  -1  -5   2195981.5 1469.91   1-0.26462 0.13575-0.46885 0.14262-0.84270 0.98042
   1   5  -2177336.5 1360.46   1-0.62212 0.75096 0.64868-0.32267 0.43836-0.57613
   1   5  -118831.27 1181.94   1 0.11777 0.05415 0.34900 0.00673 0.92968-0.99850
   1   5  -117942.04 1124.64   1-0.63717 0.80923 0.62243-0.26681 0.45451-0.52339
   1   5   0120142.1 2875.98   1 0.00477 0.21035 0.25005 0.13527 0.96821-0.96821
   1   5   0105793.6 2531.52   1-0.64283 0.85811 0.61201-0.22679 0.46065-0.46065
   1   5   137566.31  698.54   1-0.07451 0.33272 0.17696 0.23782 0.98139-0.91253
   1   5   136533.06  657.01   1-0.64033 0.89883 0.61665-0.20183 0.45793-0.38905
   1   5   2  344.76   99.66   1-0.12706 0.42837 0.12700 0.31739 0.98372-0.84602
   1   5   2  753.65  156.87   1-0.63001 0.93172 0.63518-0.19076 0.44679-0.30902
   1   5   3  166.01  161.25   1-0.15988 0.50428 0.09512 0.37886 0.98254-0.77598
   1   5   3  317.15  103.06   1-0.61135 0.95629 0.66628-0.19225 0.42697-0.22032
   1   5   4 4139.73  535.73   1-0.17834 0.56584 0.07695 0.42663 0.98095-0.70554
   1   5   4 4408.79  348.77   1-0.58291 0.97112 0.70890-0.20531 0.39706-0.12150
   1   5   5 2644.69  502.49   1-0.18619 0.61678 0.06918 0.46401 0.98007-0.63581
   1   5   5 3219.45  412.50   1-0.54217 0.97359 0.76119-0.22799 0.35585-0.01141
   1   5   6 3335.85  666.00   1-0.18593 0.65962 0.06943 0.49336 0.98010-0.56699
  -1  -6  12 3757.73  546.99   1-0.63771 0.91432-0.45589 0.34897 0.62087 0.20550
  -1  -6  12 3498.65  764.40   1 0.10224 0.17453-0.94494 0.83861 0.31084 0.51600
  -1  -6  1119351.13 1393.97   1-0.66989 0.90344-0.50716 0.37068 0.54224 0.21535
  -1  -6  1119074.76 1448.93   1 0.04040 0.19312-0.96976 0.83374 0.24067 0.51726
  -1  -6  1057226.32 2411.73   1-0.69797 0.88833-0.55782 0.39170 0.44906 0.23966
  -1  -6  1063973.42 2693.19   1-0.02811 0.21806-0.98655 0.82096 0.16100 0.52769
  -1  -6   920691.90  886.92   1-0.71946 0.86657-0.60712 0.41132 0.33728 0.28258
   1   6  -918717.98  771.32   1-0.14189-0.00528 0.98980-0.79432-0.01246-0.60747
  -1  -6   920238.81  869.85   1-0.10385 0.25060-0.99211 0.79686 0.07010 0.54972
  -1  -6   843452.62 1650.17   1-0.73062 0.83452-0.65209 0.42665 0.20238 0.34860
   1   6  -845079.25 1712.75   1-0.28256 0.17873 0.95276-0.72750 0.11132-0.66241
  -1  -6   842611.55 1617.73   1-0.18788 0.29160-0.98160 0.75673-0.03405 0.58507
  -1  -6   795916.76 2287.41   1-0.72468 0.78536-0.68793 0.43280 0.03958 0.44258
   1   6  -798274.89 2323.04   1-0.39139 0.33074 0.89582-0.64091 0.21049-0.69270
  -1  -6   791451.50 2241.02   1-0.28029 0.34083-0.94764 0.69312-0.15300 0.63514
  -1  -6   616940.83  515.85   1-0.69236 0.70979-0.70541 0.42061-0.15173 0.56505
   1   6  -617415.93  523.23   1-0.47291 0.45559 0.83267-0.54809 0.28810-0.70144
  -1  -6   615765.66  963.07   1-0.37799 0.39531-0.88072 0.59639-0.28539 0.69860
  -1  -6   5 6357.97  394.66   1-0.62359 0.59780-0.69275 0.37844-0.36225 0.70668
   1   6  -5 6166.07  384.46   1-0.53333 0.55922 0.77142-0.45724 0.34706-0.69151
  -1  -6   4 3761.62  318.48   1-0.51570 0.44669-0.64112 0.29718-0.56833 0.84388
   1   6  -4 3122.09  249.73   1-0.57633 0.64543 0.71797-0.37419 0.39032-0.66587
  -1  -6   314372.77  924.68   1-0.38137 0.26906-0.55492 0.18118-0.73933 0.94592
   1   6  -311783.39  760.27   1-0.60546 0.71768 0.67553-0.30208 0.42078-0.62743
  -1  -6   285277.82 1356.28   1-0.24481 0.08935-0.45340 0.05007-0.85702 0.99474
   1   6  -276139.60 1217.47   1-0.62372 0.77916 0.64599-0.24293 0.44006-0.57783
   1   6  -128179.28  558.83   1 0.12662 0.07186 0.35650 0.07629 0.92567-0.99449
   1   6  -125589.08  523.10   1-0.63309 0.83174 0.62976-0.19710 0.45010-0.51898
   1   6   0 9026.59  775.89   1 0.03426 0.20743 0.27645 0.18594 0.96041-0.96041
   1   6   0 7924.96  534.80   1-0.63486 0.87674 0.62659-0.16433 0.45201-0.45201
   1   6   127717.73 1239.30   1-0.03290 0.31768 0.21561 0.27621 0.97592-0.90707
   1   6   125464.40 1496.84   1-0.62965 0.91474 0.63581-0.14394 0.44640-0.37752
   1   6   2 1638.13  206.64   1-0.07924 0.40711 0.17252 0.34890 0.98181-0.84410
   1   6   2  881.25  120.96   1-0.61740 0.94572 0.65650-0.13503 0.43336-0.29559
   1   6   3  435.94  125.61   1-0.10931 0.48028 0.14402 0.40701 0.98351-0.77696
   1   6   3  206.55  113.84   1-0.59745 0.96905 0.68793-0.13690 0.41206-0.20540
   1   6   4  536.39  151.23   1-0.12689 0.54096 0.12716 0.45347 0.98373-0.70832
   1   6   4  164.00  105.48   1-0.56841 0.98322 0.72855-0.14792 0.38225-0.10669
   1   6   5  232.46  100.88   1-0.13479 0.59195 0.11954 0.49069 0.98363-0.63937
   1   6   6 2789.75  706.45   1-0.13501 0.63527 0.11932 0.52051 0.98363-0.57052
  -1  -7  12  292.05  157.51   1-0.66259 0.91279-0.49513 0.31120 0.56197 0.26450
  -1  -7  12   71.80   89.76   1 0.04300 0.20713-0.96890 0.78548 0.24365 0.58319
  -1  -7  1111820.20  886.51   1-0.69190 0.89890-0.54609 0.33251 0.47228 0.28531
  -1  -7  1111330.81 1045.71   1-0.02370 0.23022-0.98580 0.77284 0.16621 0.59136
  -1  -7  1049831.26 2109.54   1-0.71497 0.87872-0.59539 0.35213 0.36649 0.32225
  -1  -7  1051332.65 2187.84   1-0.09599 0.25930-0.99218 0.74956 0.07967 0.60902
  -1  -7   935213.52 1397.39   1-0.72894 0.84949-0.64056 0.36767 0.24147 0.37839
   1   7  -934743.30 1350.15   1-0.26102 0.14033 0.96097-0.68843 0.09165-0.71159
  -1  -7   936167.44 1444.92   1-0.17439 0.29472-0.98452 0.71230-0.01709 0.63699
  -1  -7   8 4387.93  302.08   1-0.72886 0.80617-0.67818 0.37559 0.09387 0.45717
   1   7  -8 3891.16  232.54   1-0.36648 0.28919 0.91134-0.60900 0.18746-0.73856
  -1  -7   8 5055.09  545.46   1-0.25881 0.33596-0.95781 0.65593-0.12490 0.67592
  -1  -7   740664.03 1545.62   1-0.70834 0.74244-0.70169 0.36945-0.07663 0.55881
   1   7  -740804.08 1547.60   1-0.44770 0.41359 0.85451-0.52253 0.26337-0.74558
  -1  -7   737990.98 1449.24   1-0.34690 0.38082-0.90597 0.57425-0.24263 0.72470
  -1  -7   624164.83  682.20   1-0.66001 0.65086-0.70298 0.34107-0.26494 0.67826
   1   7  -624000.77  672.69   1-0.50821 0.51750 0.79863-0.43702 0.32232-0.73566
  -1  -7   512464.11  781.75   1-0.58009 0.52770-0.67472 0.28334-0.45633 0.80077
   1   7  -511422.16  716.47   1-0.55314 0.60563 0.74797-0.35676 0.36683-0.71128
  -1  -7   4 -310.18  156.01   1-0.47343 0.37774-0.61582 0.19461-0.62977 0.90522
   1   7  -4  431.25  212.81   1-0.58500 0.68071 0.70597-0.28515 0.39920-0.67476
  -1  -7   3 1495.07  227.72   1-0.35450 0.21567-0.53602 0.08523-0.76616 0.97273
   1   7  -3 1305.37  183.87   1-0.60628 0.74509 0.67426-0.22376 0.42164-0.62829
  -1  -7   227522.60  818.82   1-0.24038 0.05831-0.44991-0.03052-0.86011 0.99783
   1   7  -222160.27  669.47   1-0.61901 0.80104 0.65387-0.17376 0.43505-0.57282
   1   7  -151203.78 1315.09   1 0.14281 0.08225 0.37011 0.13975 0.91794-0.98676
   1   7  -146408.13 1202.02   1-0.62442 0.84967 0.64480-0.13509 0.44081-0.50970
   1   7   0  397.80  202.85   1-0.62327 0.89174 0.64674-0.10743 0.43959-0.43959
   1   7   125797.20 1483.60   1 0.00770 0.30376 0.25269 0.31635 0.96751-0.89869
   1   7   124755.70 1413.86   1-0.61580 0.92749 0.65912-0.09021 0.43166-0.36278
   1   7   2 5334.91  680.22   1-0.03334 0.38778 0.21521 0.38326 0.97599-0.83829
   1   7   2 4617.55  230.42   1-0.60176 0.95667 0.68120-0.08269 0.41692-0.27916
   1   7   3 2313.88  376.18   1-0.06065 0.45818 0.18993 0.43814 0.97992-0.77336
   1   7   3 2583.64  344.23   1-0.58037 0.97857 0.71244-0.08438 0.39445-0.18778
   1   7   4  284.45  233.92   1-0.07699 0.51762 0.17463 0.48303 0.98161-0.70621
   1   7   4  288.63  169.91   1-0.55023 0.99165 0.75153-0.09387 0.36391-0.08836
   1   7   5 1085.08  326.47   1-0.08450 0.56823 0.16756 0.51971 0.98223-0.63797
  -1  -8  12  735.35  281.54   1-0.68320 0.90686-0.53014 0.26911 0.50216 0.32431
  -1  -8  12  229.18  135.49   1-0.01363 0.23672-0.98392 0.72358 0.17807 0.64836
  -1  -8  11 1152.45  317.12   1-0.70848 0.88893-0.57979 0.28911 0.40235 0.35524
  -1  -8  11 1341.23  333.22   1-0.08284 0.26273-0.99196 0.70197 0.09559 0.66197
  -1  -8  10 6480.04  390.63   1-0.72552 0.86270-0.62600 0.30566 0.28587 0.40287
   1   8 -10 5828.78  446.38   1-0.23036 0.09301 0.97096-0.65101 0.06452-0.75334
  -1  -8  10 6441.05  820.62   1-0.15667 0.29361-0.98763 0.66804 0.00503 0.68374
  -1  -8   936512.97 1515.68   1-0.73085 0.82479-0.66566 0.31560 0.15079 0.46914
   1   8  -935035.66 1442.27   1-0.33527 0.24136 0.92862-0.57886 0.15890-0.77888
  -1  -8   934711.12 2213.86   1-0.23500 0.32875-0.96743 0.61818-0.09407 0.71397
  -1  -8   8 7925.39  584.00   1-0.71982 0.77055-0.69414 0.31445-0.00334 0.55440
   1   8  -8 8315.79  607.82   1-0.41706 0.36632 0.87811-0.49871 0.23445-0.78555
  -1  -8   8 8456.02  639.93   1-0.31597 0.36650-0.92726 0.54815-0.20086 0.75179
  -1  -8   730706.27  852.09   1-0.68692 0.69440-0.70570 0.29633-0.17353 0.65573
   1   8  -730945.75  879.00   1-0.47915 0.47182 0.82699-0.41795 0.29410-0.77633
  -1  -8   728848.28  811.38   1-0.39678 0.40410-0.86338 0.45463-0.31166 0.79373
  -1  -8   623648.44 1401.58   1-0.62851 0.59279-0.69435 0.25533-0.35048 0.76380
   1   8  -623090.16 1370.98   1-0.52641 0.56230 0.77919-0.34054 0.34021-0.75355
  -1  -8   5 7581.14  492.19   1-0.54560 0.46663-0.65754 0.18908-0.51956 0.86400
   1   8  -5 6659.09  452.11   1-0.56108 0.64019 0.73801-0.26977 0.37484-0.71928
  -1  -8   4 5035.47  654.20   1-0.44616 0.32387-0.59856 0.10025-0.66531 0.94077
   1   8  -4 4846.78  641.19   1-0.58548 0.70780 0.70529-0.20743 0.39970-0.67526
  -1  -8   3 5299.35  740.79   1-0.34242 0.17698-0.52728-0.00060-0.77763 0.98421
   1   8  -3 5064.70  664.87   1-0.60140 0.76693 0.68199-0.15453 0.41617-0.62284
  -1  -8   222803.17  713.61   1-0.24593 0.03728-0.45428-0.10325-0.85623 0.99395
   1   8  -218955.19  607.78   1-0.61005 0.81868 0.66835-0.11120 0.42560-0.56337
   1   8  -122453.81 1302.99   1-0.61241 0.86426 0.66459-0.07784 0.42809-0.49697
   1   8   010282.61  759.23   1 0.09783 0.19700 0.33197 0.28455 0.93820-0.93820
   1   8   010586.41  801.53   1-0.60883 0.90390 0.67027-0.05392 0.42432-0.42432
   1   8   1 2640.04  431.62   1 0.04768 0.29034 0.28833 0.35778 0.95634-0.88751
   1   8   1 2270.53  336.50   1-0.59934 0.93772 0.68510-0.03921 0.41403-0.34514
   1   8   2 7861.64  553.06   1-0.58349 0.96509 0.70810-0.03261 0.39765-0.25987
   1   8   3 4728.80 1118.93   1-0.01330 0.43740 0.23354 0.47157 0.97225-0.76570
   1   8   3 5583.79  649.16   1-0.56047 0.98528 0.73880-0.03371 0.37421-0.16755
   1   8   4 2172.21  460.51   1-0.02820 0.49539 0.21993 0.51478 0.97510-0.69970
  -1  -9  12  737.13  253.66   1-0.69938 0.89648-0.56064 0.22250 0.44332 0.38314
  -1  -9  12  579.86  159.01   1-0.06552 0.26198-0.99103 0.65366 0.11645 0.70999
  -1  -9  11  960.08  276.24   1-0.71984 0.87365-0.60816 0.24036 0.33460 0.42301
  -1  -9  11  467.55  170.37   1-0.13562 0.28917-0.99027 0.62331 0.03112 0.72653
  -1  -9  10  343.04  165.57   1-0.73038 0.84100-0.64988 0.25244 0.21021 0.47853
   1   9 -10  206.97   98.39   1-0.29847 0.18792 0.94611-0.54893 0.12560-0.81446
  -1  -9  10 -147.77  135.63   1-0.20918 0.31954-0.97596 0.57936-0.06104 0.74982
  -1  -9   920748.04  947.32   1-0.72724 0.79461-0.68286 0.25570 0.06930 0.55063
   1   9  -920481.27  916.13   1-0.38203 0.31465 0.90184-0.47501 0.20181-0.82179
  -1  -9   919654.21  910.30   1-0.28485 0.35202-0.94529 0.51903-0.15900 0.77890
  -1  -9   827475.04 1187.92   1-0.70661 0.73077-0.70236 0.24557-0.08585 0.63691
   1   9  -826361.32 1119.40   1-0.44703 0.42284 0.85505-0.39858 0.26274-0.81383
  -1  -9   825919.57 1125.87   1-0.36033 0.38424-0.89556 0.43942-0.26100 0.81194
  -1  -9   7 7518.81  579.13   1-0.66500 0.64590-0.70389 0.21741-0.24959 0.73180
   1   9  -7 6802.63  525.39   1-0.49634 0.51562 0.81060-0.32453 0.31074-0.79297
  -1  -9   640232.57 1577.11   1-0.60185 0.53951-0.68434 0.16843-0.41163 0.82495
   1   9  -638130.19 1518.97   1-0.53397 0.59647 0.77069-0.25501 0.34770-0.76104
  -1  -9   513682.53 1015.76   1-0.52121 0.41565-0.64424 0.09870-0.55971 0.90414
   1   9  -512352.11  929.60   1-0.56146 0.66717 0.73754-0.19226 0.37521-0.71966
  -1  -9   4 4814.19  332.03   1-0.43106 0.28217-0.58871 0.01329-0.68381 0.95927
   1   9  -4 5203.40  348.63   1-0.58049 0.72941 0.71227-0.13739 0.39457-0.67013
  -1  -9   3 1049.29  218.79   1-0.34080 0.14877-0.52611-0.07888-0.77914 0.98571
   1   9  -3 1012.77  199.89   1-0.59234 0.78448 0.69545-0.09096 0.40677-0.61344
  -1  -9   2 3552.67  321.01   1-0.25834 0.02309-0.46397-0.17066-0.84733 0.98505
   1   9  -2 2365.74  265.31   1-0.59790 0.83325 0.68725-0.05315 0.41254-0.55032
  -1  -9   1 6838.62  684.25   1-0.18797-0.09049-0.40789-0.25639-0.89346 0.96232
   1   9  -1 5688.56  695.93   1-0.59770 0.87627 0.68755-0.02384 0.41233-0.48122
   1   9   022466.54 1057.15   1 0.13127 0.19012 0.36043 0.33316 0.92350-0.92350
   1   9   020736.96  970.70   1-0.59193 0.91371 0.69605-0.00274 0.40635-0.40635
   1   9   1 7387.43 1202.69   1 0.08742 0.27717 0.32302 0.40016 0.94234-0.87352
   1   9   1 6640.74  783.39   1-0.58044 0.94543 0.71234 0.01057 0.39452-0.32563
   1   9   2 1275.46  341.42   1 0.05531 0.35248 0.29505 0.45772 0.95387-0.81623
   1   9   2 1460.73  289.90   1-0.56273 0.97094 0.73591 0.01660 0.37650-0.23872
  -1 -10  11  316.40  189.64   1-0.72679 0.85404-0.63080 0.18590 0.27177 0.48584
  -1 -10  11  310.97  140.51   1-0.18154 0.30850-0.98303 0.53906-0.02607 0.78372
  -1 -10  10 1273.33  319.12   1-0.73071 0.81471-0.66774 0.19312 0.14206 0.54676
   1  10 -10 1582.32  361.39   1-0.34265 0.25864 0.92474-0.45049 0.16562-0.85449
  -1 -10  10 1170.67  342.64   1-0.25294 0.33672-0.96034 0.48672-0.11727 0.80605
  -1 -10   9 4591.91  571.88   1-0.72018 0.76097-0.69378 0.18952-0.00053 0.62047
   1  10  -9 2756.78  363.04   1-0.41059 0.36976 0.88274-0.37885 0.22839-0.84837
  -1 -10   9 3831.17  491.23   1-0.32427 0.36478-0.92190 0.41838-0.21199 0.83179
  -1 -10   820954.81  946.36   1-0.69220 0.68974-0.70543 0.17148-0.15236 0.70345
   1  10  -819825.68  908.43   1-0.46294 0.46562 0.84148-0.30798 0.27854-0.82966
  -1 -10   818480.76  864.85   1-0.39350 0.39080-0.86653 0.33336-0.30704 0.85798
  -1 -10   7 9464.45  803.46   1-0.64561 0.59994-0.69958 0.13600-0.30619 0.78839
   1  10  -7 9979.42  848.60   1-0.50372 0.54961 0.80322-0.24012 0.31793-0.80016
  -1 -10   610186.71  839.30   1-0.58188 0.49295-0.67555 0.08257-0.45280 0.86612
   1  10  -6 9959.24  836.12   1-0.53436 0.62346 0.77025-0.17754 0.34808-0.76142
  -1 -10   521445.79  973.41   1-0.50614 0.37386-0.63548 0.01258-0.58308 0.92739
   1  10  -519405.70  921.95   1-0.55651 0.68882 0.74379-0.12147 0.37022-0.71467
  -1 -10   415668.54  766.02   1-0.42549 0.25001-0.58502-0.06749-0.69043 0.96588
   1  10  -411411.07  947.55   1-0.57143 0.74696 0.72456-0.07263 0.38532-0.66088
  -1 -10   3 1475.16  276.27   1-0.34681 0.12819-0.53047-0.15163-0.77351 0.98008
   1  10  -3  910.45  273.18   1-0.58004 0.79879 0.71289-0.03136 0.39412-0.60078
  -1 -10   2  -60.71  231.62   1-0.27568 0.01383-0.47738-0.23437-0.83433 0.97204
   1  10  -2  419.15  278.68   1-0.58296 0.84492 0.70884 0.00228 0.39710-0.53488
  -1 -10   1  316.82  255.55   1-0.21492-0.09014-0.42968-0.31171-0.87703 0.94588
   1  10  -1  378.33  244.84   1-0.58048 0.88566 0.71228 0.02845 0.39457-0.46346
   1  10   015412.20  963.04   1-0.57265 0.92104 0.72293 0.04741 0.38657-0.38657
   1  10   113850.12 1534.50   1 0.12715 0.26402 0.35695 0.44330 0.92542-0.85660
   1  10   111723.61 1293.75   1-0.55919 0.95079 0.74041 0.05953 0.37293-0.30404
  -1 -11  10  267.69  176.67   1-0.72825 0.78567-0.68018 0.12846 0.08367 0.60515
   1  11 -10 -106.00  112.16   1-0.37030 0.31284 0.90906-0.35774 0.19099-0.87985
  -1 -11  10  204.42   99.83   1-0.28824 0.34543-0.94350 0.39285-0.16347 0.85225
  -1 -11   9  602.36  236.71   1-0.71173 0.72595-0.70009 0.11873-0.05747 0.67741
   1  11  -9  607.01  256.68   1-0.42678 0.41250 0.87092-0.28996 0.24359-0.86357
  -1 -11   9  370.71  166.99   1-0.35461 0.36852-0.90008 0.31953-0.25317 0.87297
  -1 -11   8 3181.27  418.00   1-0.67897 0.64993-0.70553 0.09448-0.20300 0.75409
   1  11  -8 3916.87  529.36   1-0.47027 0.49955 0.83504-0.22450 0.28556-0.83668
  -1 -11   8 3186.57  455.16   1-0.41746 0.38816-0.84230 0.23211-0.34094 0.89188
  -1 -11   742972.63 2971.41   1-0.63043 0.55818-0.69499 0.05430-0.34573 0.82793
   1  11  -738740.81 2698.57   1-0.50419 0.57668 0.80275-0.16261 0.31839-0.80061
  -1 -11   6 9269.98  642.68   1-0.56874 0.45322-0.66930-0.00075-0.47807 0.89139
   1  11  -6 8016.07  568.58   1-0.52950 0.64521 0.77574-0.10600 0.34327-0.75660
  -1 -11   5 5879.17  464.68   1-0.49912 0.34024-0.63136-0.06862-0.59350 0.93782
   1  11  -5 4803.17  389.29   1-0.54749 0.70641 0.75485-0.05550 0.36117-0.70561
  -1 -11   418371.32 1342.11   1-0.42735 0.22528-0.58625-0.14336-0.68823 0.96368
   1  11  -414075.44 1042.46   1-0.55908 0.76122 0.74055-0.01159 0.37282-0.64838
  -1 -11   3 7715.21  949.42   1-0.35868 0.11340-0.53887-0.22038-0.76220 0.96879
   1  11  -3 7512.20  909.67   1-0.56496 0.81031 0.73304 0.02552 0.37876-0.58543
   1  11  -2  670.62  250.34   1-0.56552 0.85409 0.73231 0.05585 0.37933-0.51711
  -1 -11   1  568.82  243.92   1-0.24388-0.08777-0.45267-0.36582-0.85767 0.92653
   1  11  -1  418.77  203.88   1-0.56092 0.89270 0.73822 0.07954 0.37467-0.44356
  -1 -12   9  659.26  185.34   1-0.70357 0.69122-0.70335 0.04489-0.10130 0.72124
   1  12  -9 1046.36  249.22   1-0.43413 0.44639 0.86531-0.20728 0.25052-0.87049
  -1 -12   9  827.09  262.49   1-0.37707 0.36437-0.88152 0.22394-0.28412 0.90392
  -1 -12   8  742.23  227.27   1-0.66831 0.61269-0.70441 0.01625-0.23906 0.79015
   1  12  -8  345.73  166.79   1-0.47084 0.52673 0.83453-0.14696 0.28611-0.83723
  -1 -12   7 5761.82  787.02   1-0.61995 0.52105-0.69143-0.02606-0.37091 0.85312
   1  12  -7 5725.64  774.63   1-0.49943 0.59853 0.80754-0.09036 0.31375-0.79598
  -1 -12   627458.30 1901.29   1-0.56194 0.41983-0.66595-0.08119-0.49063 0.90396
   1  12  -625129.16 1761.41   1-0.52053 0.66284 0.78563-0.03885 0.33440-0.74774
  -1 -12   5  322.37  228.14   1-0.49874 0.31328-0.63114-0.14595-0.59405 0.93837
   1  12  -5  709.06  248.24   1-0.53511 0.72064 0.76940 0.00698 0.34882-0.69327
  -1 -12   412172.29 1359.72   1-0.43504 0.20637-0.59133-0.21539-0.67901 0.95446
   1  12  -412239.28 1357.70   1-0.54388 0.77263 0.75916 0.04682 0.35756-0.63312
  -1 -12   3 7517.88  890.49   1-0.37482 0.10295-0.55033-0.28602-0.74608 0.95267
   1  12  -3 6148.00  731.06   1-0.54733 0.81929 0.75504 0.08055 0.36101-0.56768
  -2  13  -522774.74 2229.97   1-0.62226 0.58732 0.64845 0.20510 0.43851-0.78292
   2 -12   1 1157.47  401.41   1-0.28610 0.17489-0.48535-0.41025-0.82618 0.89504
  -2  12  -1  408.01  275.31   1-0.66097 0.77231 0.57626 0.31865 0.48064-0.54952
  -2  12  -2  366.10  243.70   1-0.66157 0.72969 0.57502 0.29030 0.48131-0.61908
  -2  12  -3 2330.76  392.60   1-0.65841 0.68332 0.58154 0.25417 0.47779-0.68444
  -2  12  -4 1892.31  323.97   1-0.65113 0.63282 0.59612 0.20999 0.46974-0.74527
  -2  12  -510419.06  720.76   1-0.63909 0.57755 0.61894 0.15757 0.45658-0.80099
  -2  12  -620888.48 1474.94   1-0.62128 0.51653 0.65009 0.09682 0.43747-0.85077
  -2  12  -7  510.58  328.01   1-0.59648 0.44862 0.68937 0.02779 0.41106-0.89328
   2 -12   7  222.75  167.61   1-0.41353 0.56128-0.84648 0.12962-0.33534 0.81741
  -2  12  -8 1081.80  276.72   1-0.56235 0.37128 0.73640-0.04883 0.37611-0.92723
   2 -12   8 1357.75  309.79   1-0.35813 0.54909-0.89732 0.21009-0.25798 0.80892
  -2  11   1 2389.20  412.94   1 0.13083 0.04004 0.36005 0.51726 0.92371-0.85489
  -2  11   1 1666.00  348.54   1-0.67292 0.84410 0.55048 0.32660 0.49410-0.42522
   2 -11   0 3060.44  450.38   1-0.18537 0.05753-0.40576-0.44238-0.89497 0.89497
  -2  11   0 2444.61  477.84   1-0.67925 0.80721 0.53596 0.31152 0.50135-0.50135
   2 -11   1 4601.08  594.51   1-0.25529 0.17067-0.46160-0.35690-0.84955 0.91841
  -2  11  -1 3750.36  503.09   1-0.68202 0.76677 0.52939 0.28848 0.50455-0.57344
   2 -11   2 1330.91  274.79   1-0.34034 0.29894-0.52577-0.26308-0.77956 0.91728
  -2  11  -2  649.72  238.86   1-0.68127 0.72280 0.53118 0.25709 0.50368-0.64145
   2 -11   3 3883.98  318.69   1-0.43726 0.43903-0.59278-0.16647-0.67632 0.88291
  -2  11  -3 2969.93  330.29   1-0.67676 0.67506 0.54175 0.21692 0.49849-0.70514
   2 -11   4 6017.63  421.21   1-0.53713 0.58221-0.65302-0.07630-0.53389 0.80944
  -2  11  -4 5139.61  441.10   1-0.66795 0.62304 0.56144 0.16762 0.48847-0.76401
  -2  11  -5  510.63  194.25   1-0.65397 0.56584 0.59052 0.10895 0.47286-0.81728
  -2  11  -611289.07  703.76   1-0.63348 0.50213 0.62906 0.04080 0.45052-0.86382
  -2  11  -720365.45 1458.22   1-0.60460 0.43003 0.67686-0.03660 0.41988-0.90206
   2 -11   718861.66 1368.05   1-0.39467 0.56903-0.86541 0.22557-0.30869 0.79076
  -2  11  -8 1024.87  280.48   1-0.56483 0.34716 0.73321-0.12267 0.37863-0.92974
   2 -11   8  842.04  260.86   1-0.33415 0.55172-0.91518 0.30499-0.22532 0.77626
  -2  11  -9 8981.51  990.01   1-0.51003 0.24914 0.79675-0.21582 0.32410-0.94410
   2 -11   9 7698.90 1286.33   1-0.27104 0.53190-0.95220 0.37190-0.14086 0.76076
  -2  10   3  499.09  232.72   1 0.00616 0.22454 0.25130 0.60812 0.96788-0.76142
  -2  10   221912.87 1541.10   1 0.03804 0.14946 0.27980 0.55003 0.95930-0.82165
  -2  10   224392.68 1701.67   1-0.68660 0.87440 0.51827 0.31137 0.50987-0.37211
  -2  10   124588.08 1733.40   1 0.08374 0.06057 0.31983 0.48041 0.94376-0.87494
  -2  10   120028.66 1435.69   1-0.69495 0.83954 0.49689 0.30314 0.51973-0.45085
  -2  10   0 3548.34  317.33   1 0.14602-0.04491 0.37280 0.39785 0.91634-0.91634
  -2  10   0 2602.14  442.33   1-0.69975 0.80112 0.48395 0.28648 0.52548-0.52548
   2 -10   1 6424.47  610.93   1-0.22679 0.16877-0.43915-0.30223-0.86931 0.93817
  -2  10  -1 4552.12  496.26   1-0.70119 0.75934 0.47996 0.26087 0.52722-0.59610
   2 -10   212895.33 1068.89   1-0.32672 0.31192-0.51579-0.19595-0.79196 0.92968
  -2  10  -210601.62  891.81   1-0.69921 0.71413 0.48545 0.22578 0.52482-0.66259
   2 -10   3  756.28  114.01   1-0.44049 0.46886-0.59489-0.08725-0.67235 0.87894
  -2  10  -3 1537.44  204.18   1-0.69341 0.66512 0.50096 0.18067 0.51789-0.72454
   2 -10   422526.24  947.12   1-0.55446 0.62613-0.66215 0.00990-0.50410 0.77965
  -2  10  -423853.69 1051.89   1-0.68304 0.61153 0.52695 0.12507 0.50573-0.78126
   2 -10   517623.76  768.37   1-0.64944 0.76438-0.70059 0.07773-0.29562 0.64005
  -2  10  -519388.48  911.27   1-0.66687 0.55215 0.56378 0.05864 0.48726-0.83167
   2 -10   618586.15  810.58   1-0.70906 0.86724-0.70138 0.10820-0.07269 0.48598
  -2  10  -620253.08  932.21   1-0.64309 0.48515 0.61153-0.01870 0.46093-0.87423
   2 -10   619824.12  909.85   1-0.43093 0.58869-0.82734 0.23489-0.36027 0.77347
  -2  10  -760879.54 2555.98   1-0.60908 0.40792 0.66988-0.10666 0.42458-0.90676
   2 -10   754146.69 2286.80   1-0.36864 0.56961-0.88874 0.32594-0.27245 0.75452
  -2  10  -8 2883.37  376.02   1-0.56129 0.31701 0.73775-0.20425 0.37504-0.92616
   2 -10   8 3028.99  410.83   1-0.30282 0.54700-0.93525 0.40208-0.18330 0.73424
   2 -10   9 5710.75  886.34   1-0.23572 0.52317-0.96716 0.46388-0.09501 0.71491
   2 -10  10 5925.09 1044.86   1-0.16881 0.49944-0.98559 0.51197-0.01010 0.69888
  -2   9   4 2917.41  668.40   1-0.07214 0.31901 0.17919 0.63255 0.98116-0.70575
  -2   9   4 3888.37  573.44   1-0.68296 0.93060 0.52715 0.28465 0.50564-0.23010
  -2   9   315621.65  964.38   1-0.05028 0.25407 0.19957 0.58258 0.97859-0.77203
  -2   9   314387.55  894.69   1-0.69780 0.90223 0.48927 0.29293 0.52314-0.31649
  -2   9   2 3891.84  603.66   1-0.01567 0.17636 0.23138 0.52116 0.97273-0.83503
  -2   9   2 3285.51  344.19   1-0.70811 0.86941 0.45989 0.29277 0.53578-0.39799
  -2   9   142854.25 1878.99   1 0.03526 0.08247 0.27734 0.44584 0.96012-0.89130
  -2   9   142676.42 1846.06   1-0.71478 0.83286 0.43934 0.28373 0.54411-0.47521
  -2   9   016447.98  744.50   1 0.10645-0.03190 0.33936 0.35423 0.93461-0.93461
  -2   9   015522.74  754.79   1-0.71817 0.79304 0.42831 0.26517 0.54842-0.54842
   2  -9   114167.30 1005.71   1-0.20131 0.16988-0.41872-0.24556-0.88551 0.95437
  -2   9  -111672.87  888.34   1-0.71842 0.75007 0.42747 0.23642 0.54874-0.61764
   2  -9   2  372.45  112.02   1-0.32069 0.33249-0.51134-0.12329-0.79729 0.93501
  -2   9  -2   55.38  177.71   1-0.71535 0.70378 0.43753 0.19677 0.54483-0.68262
   2  -9   346528.85 2575.06   1-0.45574 0.51070-0.60470-0.00033-0.65316 0.85975
  -2   9  -346094.07 2594.27   1-0.70834 0.65355 0.45921 0.14550 0.53607-0.74275
   2  -9   437291.70 2067.17   1-0.58411 0.68237-0.67658 0.10140-0.44838 0.72393
  -2   9  -439852.38 2245.06   1-0.69644 0.59833 0.49295 0.08203 0.52150-0.79703
   2  -9   5  317.50   89.83   1-0.67827 0.81979-0.70549 0.15973-0.20550 0.54993
  -2   9  -5  317.62  150.90   1-0.67768 0.53636 0.53962 0.00576 0.49955-0.84396
   2  -9   6  739.50  139.87   1-0.72409 0.90884-0.68887 0.17280 0.03363 0.37966
  -2   9  -6  696.84  231.85   1-0.64960 0.46506 0.59912-0.08334 0.46804-0.88134
   2  -9   6  323.38  137.68   1-0.40297 0.58734-0.85730 0.34188-0.32037 0.73358
   2  -9   7 5166.33  505.08   1-0.72916 0.95715-0.64171 0.15535 0.23773 0.24438
  -2   9  -7 4671.72  483.38   1-0.60842 0.38066 0.67092-0.18474 0.42388-0.90607
   2  -9   7 4510.29  500.16   1-0.33401 0.56158-0.91528 0.42951-0.22513 0.70720
  -2   9  -829033.87 1250.79   1-0.54880 0.27791 0.75327-0.29680 0.36248-0.91360
   2  -9   830277.02 1333.52   1-0.26329 0.53413-0.95581 0.49989-0.13074 0.68176
   2  -9   9 3116.43  505.92   1-0.19289 0.50692-0.98038 0.55412-0.04038 0.66028
   2  -9  10 2652.99  659.88   1-0.12458 0.48153-0.99119 0.59450 0.04474 0.64395
  -2   8   5 1792.46  554.21   1-0.14312 0.40653 0.11146 0.65285 0.98340-0.63914
  -2   8   5 2226.14  372.52   1-0.68883 0.95310 0.51268 0.25168 0.51249-0.16808
  -2   8   4  -29.00  152.46   1-0.13151 0.35182 0.12271 0.61200 0.98368-0.70828
  -2   8   4   63.16  164.81   1-0.70646 0.92759 0.46477 0.27002 0.53375-0.25817
  -2   8   3 5298.84  965.37   1-0.10896 0.28618 0.14436 0.56075 0.98350-0.77695
  -2   8   3 6333.64  422.74   1-0.71896 0.89687 0.42569 0.27951 0.54943-0.34274
  -2   8   214090.58  696.47   1-0.07193 0.20606 0.17938 0.49612 0.98114-0.84344
  -2   8   214252.85  681.87   1-0.72738 0.86208 0.39600 0.27961 0.56043-0.42264
  -2   8   1 3973.42  509.76   1-0.01550 0.10653 0.23154 0.41437 0.97270-0.90384
  -2   8   1 3670.05  284.67   1-0.73246 0.82394 0.37638 0.26964 0.56729-0.49840
  -2   8   072644.56 1915.12   1 0.06661-0.01864 0.30494 0.31158 0.95003-0.95003
  -2   8   067947.38 1759.94   1-0.73461 0.78287 0.36762 0.24881 0.57026-0.57026
   2  -8   151172.14 1917.49   1-0.18012 0.17529-0.40147-0.18571-0.89798 0.96684
  -2   8  -146085.21 1782.38   1-0.73388 0.73893 0.37063 0.21621 0.56925-0.63814
   2  -8   244667.07 1674.82   1-0.32607 0.36446-0.51532-0.04222-0.79254 0.93026
  -2   8  -239976.18 1550.93   1-0.72992 0.69175 0.38639 0.17085 0.56384-0.70163
   2  -8   353730.67 1987.61   1-0.48788 0.56943-0.62465 0.09671-0.60973 0.81632
  -2   8  -348276.08 1838.19   1-0.72183 0.64045 0.41591 0.11174 0.55314-0.75982
   2  -8   4 2776.08  368.95   1-0.62698 0.75183-0.69393 0.19583-0.35404 0.62959
  -2   8  -4 2092.84  340.68   1-0.70803 0.58343 0.46012 0.03794 0.53569-0.81127
   2  -8   5 1066.07  110.73   1-0.70827 0.87639-0.70172 0.23310-0.07701 0.42142
  -2   8  -5 1681.65  222.66   1-0.68611 0.51820 0.51946-0.05112 0.50931-0.85372
   2  -8   611149.32  802.59   1-0.73108 0.94243-0.66219 0.22328 0.16435 0.24889
  -2   8  -611430.72  848.93   1-0.65198 0.44084 0.59446-0.15572 0.47067-0.88396
   2  -8   612332.46  929.95   1-0.36475 0.57572-0.89197 0.45358-0.26708 0.68029
   2  -8   7 1402.64  154.77   1-0.71766 0.97221-0.60225 0.19298 0.34964 0.13247
  -2   8  -7 1646.10  184.32   1-0.60017 0.34589 0.68384-0.27481 0.41490-0.89712
   2  -8   7 1164.76  221.00   1-0.28947 0.54370-0.94284 0.53428-0.16509 0.64724
  -2   8  -844146.69 1846.97   1-0.52137 0.22387 0.78472-0.40529 0.33523-0.88635
   2  -8   844381.58 1899.29   1-0.21468 0.51210-0.97431 0.59541-0.06803 0.61906
   2  -8   922932.71 1281.24   1-0.65059 0.99162-0.47605 0.12607 0.59169 0.02816
   2  -8   924340.48 1418.92   1-0.14245 0.48306-0.98954 0.64029 0.02268 0.59721
   2  -8  10  195.99  113.58   1-0.07395 0.45754-0.99157 0.67192 0.10631 0.58238
   2  -8  1111070.20 1473.63   1-0.00913 0.43592-0.98300 0.69300 0.18336 0.57420
  -2   7   6  311.53  108.48   1-0.20546 0.48613 0.04968 0.66719 0.97740-0.56436
  -2   7   6  -72.77  117.14   1-0.69133 0.97222 0.50633 0.21059 0.51544-0.10214
  -2   7   513841.71 1227.42   1-0.20357 0.44104 0.05158 0.63572 0.97770-0.63350
  -2   7   513698.12  999.65   1-0.71258 0.95033 0.44628 0.24105 0.54134-0.19687
  -2   7   4 1187.33  245.00   1-0.19342 0.38717 0.06199 0.59568 0.97915-0.70374
  -2   7   4  981.80  195.64   1-0.72747 0.92200 0.39566 0.26208 0.56055-0.28497
  -2   7   3  738.11  170.49   1-0.17096 0.32162 0.08424 0.54383 0.98166-0.77511
  -2   7   213165.99  625.07   1-0.13209 0.23965 0.12215 0.47632 0.98368-0.84597
  -2   7   212604.89  603.47   1-0.74404 0.85213 0.32487 0.27369 0.58383-0.44604
  -2   7   111410.44  945.96   1-0.06974 0.13421 0.18143 0.38743 0.98092-0.91207
  -2   7   110863.81  737.70   1-0.74761 0.81250 0.30625 0.26271 0.58929-0.52040
  -2   7   064692.82 1671.22   1 0.02603-0.00462 0.26912 0.27034 0.96275-0.96275
  -2   7   061605.21 1542.48   1-0.74871 0.77038 0.30019 0.23918 0.59102-0.59102
  -2   7  -114386.45  905.45   1-0.74729 0.72574 0.30798 0.20180 0.58880-0.65769
   2  -7   2 2840.84  419.57   1-0.28061 0.34551-0.02712-0.45313 0.95943-0.82175
   2  -7   2 5007.26  335.02   1-0.34974 0.41472-0.53259 0.05215-0.77073 0.90844
  -2   7  -2 3428.25  324.98   1-0.74278 0.67801 0.33103 0.14915 0.58196-0.71975
   2  -7   385593.64 2037.38   1-0.11586 0.22378 0.13776-0.58823 0.98366-0.77711
   2  -7   385056.13 2031.46   1-0.54322 0.65144-0.65629 0.20564-0.52362 0.73029
  -2   7  -382997.78 2053.28   1-0.73382 0.62584 0.37085 0.07974 0.56917-0.77586
   2  -7   433677.53  843.46   1 0.08304 0.06834 0.31923-0.74034 0.94402-0.66874
   2  -7   431267.72  784.12   1-0.67868 0.83015-0.70551 0.28433-0.20403 0.47958
  -2   7  -432130.21  868.51   1-0.71802 0.56681 0.42882-0.00781 0.54822-0.82380
   2  -7   5 7333.16  611.44   1-0.72862 0.92331-0.67899 0.28748 0.08977 0.25463
  -2   7  -5 7088.57  587.34   1-0.27345 0.07880-0.47566 0.86716-0.83603 0.49174
  -2   7  -5 6802.05  589.84   1-0.69157 0.49706 0.50572-0.11442 0.51572-0.86013
   2  -7   5 6496.60  581.86   1-0.39539 0.58976-0.86472 0.47372-0.30969 0.65403
   2  -7   6 9077.51  555.54   1-0.72310 0.96102-0.61783 0.25602 0.30887 0.10437
  -2   7  -6 8378.78  542.41   1-0.64808 0.41034 0.60206-0.24036 0.46638-0.87967
   2  -7   6 8051.01  533.15   1-0.31413 0.55172-0.92841 0.56705-0.19839 0.61159
   2  -7   7  105.37  112.21   1-0.69442 0.97559-0.55089 0.21872 0.46292 0.01918
  -2   7  -7  256.26  156.67   1-0.57813 0.29724 0.71551-0.38351 0.39216-0.87439
   2  -7   7  310.19  117.28   1-0.23379 0.51461-0.96787 0.63633-0.09253 0.57467
   2  -7   850524.65 2032.64   1-0.65804 0.98242-0.48781 0.18529 0.57359-0.02261
  -2   7  -852012.83 2077.16   1-0.46484 0.14074 0.83983-0.53743 0.28036-0.83147
   2  -7   854654.33 2236.64   1-0.15695 0.48095-0.98759 0.68571 0.00469 0.54633
   2  -7   941879.50 1757.27   1-0.61957 0.98699-0.42923 0.15632 0.65718-0.03740
   2  -7   946196.91 1987.20   1-0.08504 0.45205-0.99203 0.71974 0.09294 0.52688
   2  -7  10  623.27  181.20   1-0.58012 0.99074-0.37452 0.13124 0.72331-0.03467
   2  -7  10  795.88  241.55   1-0.01793 0.42815-0.98475 0.74213 0.17302 0.51568
   2  -7  11 1688.70  322.20   1 0.04481 0.40906-0.96830 0.75519 0.24573 0.51220
  -2   6   7 6197.67 1320.70   1-0.25983 0.55711-0.00556 0.67497 0.96563-0.48376
  -2   6   610685.75 1157.84   1-0.26660 0.52069-0.01256 0.65239 0.96372-0.55069
  -2   6   610810.16  793.19   1-0.71574 0.97011 0.43624 0.20362 0.54533-0.13196
  -2   6   5 4040.50  699.80   1-0.26675 0.47764-0.01271 0.62296 0.96367-0.61948
  -2   6   5 4191.62  455.62   1-0.73364 0.94479 0.37158 0.23869 0.56893-0.22445
  -2   6   475590.46 2899.83   1-0.25808 0.42577-0.00376 0.58443 0.96611-0.69076
  -2   6   477071.03 2941.13   1-0.74549 0.91342 0.31749 0.26319 0.58603-0.31045
  -2   6   3  429.11  147.79   1-0.23699 0.36149 0.01784 0.53325 0.97134-0.76483
  -2   6   3  618.23  138.53   1-0.75300 0.87771 0.27454 0.27655 0.59800-0.39132
  -2   6   2 8131.10  837.51   1-0.19791 0.27890 0.05751 0.46391 0.97852-0.84082
  -2   6   2 6584.77  581.53   1-0.75740 0.83890 0.24363 0.27788 0.60578-0.46799
  -2   6   1 7691.77  653.40   1-0.12968 0.16757 0.12448 0.36735 0.98371-0.91485
  -2   6   1 6405.93  461.26   1-0.75948 0.79770 0.22586 0.26614 0.61005-0.54114
  -2   6   0 7729.72  620.77   1-0.01614 0.01094 0.23096 0.23127 0.97282-0.97282
  -2   6   0 5544.94  389.22   1-0.75980 0.75481 0.22302 0.23938 0.61069-0.61069
   2  -6   1204242.7 4781.72   1-0.36615 0.41444-0.11860-0.31417 0.92296-0.85412
  -2   6  -1195580.2 4631.06   1-0.75826 0.71011 0.23685 0.19587 0.60740-0.67629
   2  -6   2174527.8 4089.03   1-0.20275 0.29423 0.05240-0.45560 0.97782-0.84014
   2  -6   2186547.2 4365.61   1-0.40502 0.49656-0.57125 0.16788-0.71388 0.85160
  -2   6  -2173107.6 4106.78   1-0.75378 0.66241 0.26947 0.13366 0.59933-0.73712
   2  -6   358731.57 1396.93   1 0.03201 0.10274 0.27445-0.64808 0.96106-0.75460
   2  -6   355684.60 1330.96   1-0.62432 0.75913-0.69300 0.31943-0.36049 0.56716
  -2   6  -356361.44 1406.08   1-0.74435 0.60976 0.32330 0.05024 0.58430-0.79098
   2  -6   4137945.5 1975.83   1-0.72176 0.89982-0.69202 0.34797 0.01240 0.26312
  -2   6  -4129163.3 1854.53   1-0.28130 0.10328-0.48169 0.82573-0.82996 0.55452
  -2   6  -4138389.2 2054.40   1-0.72612 0.54832 0.40065-0.05669 0.55876-0.83434
   2  -6   4133835.0 1993.36   1-0.42643 0.60420-0.83245 0.48884-0.35378 0.62925
   2  -6   535381.16  881.96   1-0.72607 0.94735-0.62801 0.31365 0.28002 0.06434
  -2   6  -532941.98  823.54   1-0.46123 0.24009-0.60819 0.92267-0.64603 0.30171
  -2   6  -533022.85  854.11   1-0.69266 0.47155 0.50291-0.18866 0.51700-0.86142
   2  -6   532274.35  869.22   1-0.33737 0.55835-0.91292 0.59895-0.22968 0.57401
   2  -6   614340.88 1169.11   1-0.69712 0.96165-0.55615 0.27144 0.45244-0.03920
  -2   6  -612445.05 1018.19   1-0.63268 0.36836 0.63047-0.34582 0.44966-0.86296
   2  -6   613518.51 1182.77   1-0.24960 0.51381-0.96173 0.67756-0.11294 0.52621
   2  -6   7 7720.09  361.04   1-0.66016 0.96789-0.49121 0.23614 0.56823-0.08612
  -2   6  -7 7819.79  358.08   1-0.52736 0.21986 0.77814-0.52317 0.34114-0.82337
   2  -6   7 9674.07  926.69   1-0.16695 0.47434-0.98593 0.73141-0.00778 0.48992
   2  -6   8  535.47   98.20   1-0.62216 0.97296-0.43298 0.20753 0.65225-0.10133
   2  -6   8 1235.89  203.74   1-0.09101 0.44145-0.99215 0.76724 0.08571 0.46524
   2  -6   949171.77 2063.12   1-0.58407 0.97806-0.37984 0.18402 0.71733-0.09755
   2  -6   948341.37 2165.61   1-0.02144 0.41509-0.98540 0.79015 0.16888 0.45094
   2  -6  1025652.54 1484.19   1-0.54596 0.98315-0.32978 0.16360 0.77016-0.08151
   2  -6  1027240.03 1612.25   1 0.04255 0.39471-0.96905 0.80335 0.24314 0.44589
   2  -6  11  319.97  128.92   1-0.50747 0.98783-0.28164 0.14461 0.81433-0.05716
   2  -6  11   68.37  130.38   1 0.10120 0.37932-0.94544 0.80942 0.30967 0.44826
  -2   5   8  342.43  152.07   1-0.30570 0.61959-0.05347 0.67540 0.95062-0.39991
  -2   5   7 8478.08 1420.41   1-0.31987 0.59057-0.06853 0.66087 0.94497-0.46310
  -2   5   632667.98 1996.69   1-0.32925 0.55675-0.07856 0.64133 0.94096-0.52793
  -2   5   629891.97 1288.18   1-0.73733 0.96509 0.35604 0.20677 0.57408-0.16071
  -2   5   5 9467.96 1010.79   1-0.33248 0.51679-0.08203 0.61522 0.93953-0.59534
  -2   5   5 8108.41  626.13   1-0.75126 0.93581 0.28537 0.24786 0.59511-0.25064
  -2   5   445501.44 1821.84   1-0.32725 0.46836-0.07641 0.58002 0.94184-0.66648
  -2   5   444726.89 1691.73   1-0.75943 0.90069 0.22628 0.27743 0.60995-0.33432
  -2   5   338015.33 1156.37   1-0.30948 0.40739-0.05747 0.53150 0.94916-0.74265
  -2   5   336387.39  958.49   1-0.76385 0.86190 0.17999 0.29412 0.61977-0.41304
  -2   5   2 6944.59  525.82   1-0.27158 0.32629-0.01772 0.46217 0.96225-0.82457
  -2   5   2 7016.52  435.71   1-0.76592 0.82075 0.14747 0.29705 0.62579-0.48797
  -2   5   130073.78  803.66   1-0.19912 0.21045 0.05631 0.35848 0.97835-0.90950
  -2   5   132113.50  844.34   1-0.76666 0.77828 0.13041 0.28452 0.62866-0.55975
  -2   5   0 1275.57  195.98   1-0.06186 0.03010 0.18880 0.19638 0.98006-0.98006
   2  -5   0  965.14  100.73   1-0.46653 0.49823-0.23238-0.15301 0.85343-0.85343
  -2   5   0 1007.52  177.91   1-0.76664 0.73504 0.13110 0.25423 0.62854-0.62854
   2  -5   116052.45  987.62   1-0.33059 0.40546-0.08000-0.27571 0.94037-0.87153
   2  -5   118757.18 1154.21   1-0.18388 0.25883-0.40455 0.04868-0.89583 0.96469
  -2   5  -114517.71  980.78   1-0.76566 0.69085 0.15245 0.20329 0.62491-0.69382
   2  -5   2286329.5 1880.68   1-0.07907 0.19702 0.17268-0.49868 0.98179-0.84409
   2  -5   2282862.3 1849.26   1-0.51505 0.63323-0.64075 0.31462-0.56935 0.70712
   2  -5   3138045.2  958.93   1-0.70885 0.87027-0.70147 0.40488-0.07386 0.28051
  -2   5  -3129810.5  909.47   1-0.26190 0.10051-0.46674 0.76332-0.84472 0.63814
  -2   5  -3127025.3 1016.34   1-0.75341 0.59222 0.27186 0.02462 0.59870-0.80539
   2  -5   421984.08 1136.26   1-0.72679 0.93143-0.63079 0.36388 0.27178 0.00370
  -2   5  -420175.70 1239.33   1-0.50603 0.30149-0.63542 0.90242-0.58323 0.30778
  -2   5  -419454.66 1206.14   1-0.73194 0.52754 0.37844-0.11154 0.56659-0.84217
   2  -5   421728.99 1151.09   1-0.35886 0.56325-0.89673 0.63015-0.25900 0.53446
   2  -5   542151.06  674.06   1-0.69425 0.94214-0.55058 0.31331 0.46353-0.11917
  -2   5  -537978.44  611.49   1-0.61873 0.37089-0.69098 0.92821-0.37376 0.02933
  -2   5  -539882.67  650.28   1-0.68562 0.43792 0.52067-0.28346 0.50873-0.85315
   2  -5   538901.51  621.18   1-0.70585 0.95354-0.31121 0.07393 0.63632-0.29203
   2  -5   544111.41  768.90   1-0.26097 0.50857-0.95686 0.72004-0.12771 0.47210
   2  -5   611001.85  906.88   1-0.65547 0.94655-0.48371 0.27610 0.57997-0.16673
  -2   5  -610809.81  881.85   1-0.59060 0.29971 0.69798-0.49044 0.40497-0.81830
   2  -5   611166.56  908.19   1-0.66427 0.95516-0.42325 0.21557 0.61610-0.20295
   2  -5   612225.97 1039.14   1-0.17091 0.46170-0.98520 0.77804-0.01273 0.42599
   2  -5   7 7029.96  342.74   1-0.61783 0.95200-0.42673 0.24873 0.66043-0.17838
  -2   5  -7 6861.95  301.96   1-0.39438 0.06023 0.89385-0.71601 0.21327-0.69548
   2  -5   7 7945.67  763.96   1-0.09033 0.42420-0.99214 0.81460 0.08653 0.39555
   2  -5   8 5285.55  414.39   1-0.58129 0.95865-0.37609 0.22772 0.72156-0.17064
   2  -5   8 6056.89  889.07   1-0.01831 0.39539-0.98482 0.83694 0.17257 0.37839
   2  -5   9  576.91  177.16   1 0.04662 0.37404-0.96768 0.84939 0.24781 0.37232
   2  -5  1015691.51  939.63   1-0.50930 0.97305-0.28390 0.19436 0.81240-0.12406
   2  -5  1014354.80  901.43   1 0.10524 0.35867-0.94350 0.85489 0.31420 0.37483
   2  -5  1117528.23 1721.81   1-0.47258 0.97952-0.23955 0.17959 0.84810-0.09092
   2  -5  1121007.11 2071.62   1 0.15895 0.34822-0.91389 0.85497 0.37354 0.38440
  -2   4   9  497.92  174.87   1-0.34344 0.67394-0.09385 0.66829 0.93447-0.31492
  -2   4   8 2334.02  484.25   1-0.36371 0.65101-0.11591 0.66078 0.92427-0.37356
  -2   4   7 7237.03  638.83   1-0.38066 0.62480-0.13424 0.64966 0.91491-0.43307
  -2   4   7 6164.90  709.79   1-0.73800 0.98238 0.35312 0.16223 0.57502-0.09276
  -2   4   625360.24 1072.81   1-0.39347 0.59441-0.14850 0.63433 0.90726-0.49425
  -2   4   624474.47  983.11   1-0.75499 0.95615 0.26127 0.22449 0.60143-0.18806
  -2   4   549158.61 1879.95   1-0.40102 0.55876-0.15696 0.61321 0.90251-0.55834
  -2   4   544709.45 1679.99   1-0.76369 0.92157 0.18206 0.27418 0.61936-0.27481
  -2   4   4 2682.68  237.34   1-0.40117 0.51570-0.15712 0.58379 0.90242-0.62708
  -2   4   4 2558.11  231.26   1-0.76710 0.88176 0.11634 0.31030 0.63088-0.35524
  -2   4   387708.46 1361.55   1-0.38976 0.46108-0.14435 0.54143 0.90953-0.70302
  -2   4   378846.59 1232.18   1-0.76738 0.83883 0.06472 0.33232 0.63790-0.43117
  -2   4   2 3041.14  457.95   1-0.35787 0.38600-0.10953 0.47692 0.92732-0.78964
  -2   4   2 2711.72  241.63   1-0.76636 0.79459 0.02884 0.33861 0.64176-0.50394
  -2   4   160661.66  547.51   1-0.28497 0.26990-0.03167 0.36948 0.95801-0.88917
   2  -4  -165404.32  557.98   1-0.56441 0.57960-0.35369 0.01571 0.74588-0.81474
  -2   4   166875.62  656.15   1-0.76548 0.75050 0.01113 0.32673 0.64335-0.57444
  -2   4   069274.24  819.43   1-0.11598 0.05766 0.13764 0.17051 0.98366-0.98366
   2  -4   1 1357.90   90.20   1-0.28785 0.38931-0.03468-0.24397 0.95704-0.88820
   2  -4   1 1330.45   68.58   1-0.26812 0.36966-0.47155 0.19278-0.84008 0.90894
  -2   4  -1 1005.35  111.79   1-0.76696 0.66555 0.04549 0.23318 0.64007-0.70898
   2  -4   1 1322.10  101.88   1-0.71822 0.81983-0.26977-0.00871 0.64138-0.57253
   2  -4   2 9690.14  149.26   1-0.68308 0.82787-0.70570 0.45656-0.18806 0.32584
  -2   4  -2 8418.95  201.78   1-0.76727 0.62265 0.10885 0.14022 0.63201-0.76982
   2  -4   2 9692.78  222.96   1-0.71875 0.86356-0.26787 0.01899 0.64158-0.50387
   2  -4   3154986.0 1056.69   1-0.72337 0.91138-0.61871 0.39926 0.30644-0.09982
  -2   4  -3144922.7  996.20   1-0.55456 0.36657-0.66221 0.88162-0.50391 0.29725
  -2   4  -3143289.5 1067.49   1-0.76083 0.57299 0.21354 0.00594 0.61280-0.81953
   2  -4   3146298.8 1059.30   1-0.71089 0.89876-0.29500 0.07560 0.63843-0.43185
   2  -4   3155193.0 1183.61   1-0.37815 0.56593-0.88057 0.66138-0.28562 0.49222
   2  -4   444753.19 1080.26   1-0.68100 0.91224-0.52624 0.33643 0.50920-0.23371
  -2   4  -439442.27  956.90   1-0.67389 0.44269-0.70511 0.89498-0.22061-0.05492
  -2   4  -440787.15  995.40   1-0.73425 0.50324 0.36910-0.17925 0.56976-0.84534
   2  -4   443143.62 1040.86   1-0.68861 0.91968-0.36170 0.17188 0.62847-0.35304
   2  -4   446300.93 1154.22   1-0.26574 0.49674-0.95469 0.76524-0.13393 0.40945
   2  -4   531656.71  532.95   1-0.64029 0.91472-0.46022 0.30006 0.61499-0.27062
  -2   4  -529569.71  506.97   1-0.70739 0.43298-0.70207 0.86228-0.08175-0.26266
  -2   4  -529551.80  474.72   1-0.65710 0.38280 0.58421-0.42405 0.47633-0.82075
   2  -4   531467.97  493.60   1-0.63660 0.91087-0.48355 0.32332 0.60075-0.25646
   2  -4   534155.34  699.34   1-0.16618 0.44036-0.98607 0.82627-0.00681 0.35120
   2  -4   629430.20  762.77   1-0.60417 0.92171-0.40741 0.27686 0.68482-0.27163
  -2   4  -630841.67  745.33   1-0.44861 0.13112 0.85356-0.72306 0.26488-0.67822
   2  -4   631206.33  860.05   1-0.08056 0.39786-0.99188 0.86171 0.09835 0.31486
   2  -4   7 1673.08  156.51   1-0.57028 0.93102-0.36142 0.26050 0.73766-0.25561
   2  -4   7 1870.54  203.10   1-0.00654 0.36705-0.98245 0.88194 0.18639 0.29569
   2  -4   8 3243.19  275.33   1-0.53729 0.94122-0.31873 0.24745 0.78084-0.22992
   2  -4   8 3430.16  455.08   1 0.05855 0.34551-0.96343 0.89255 0.26145 0.28977
   2  -4   9 5854.01  358.83   1-0.50429 0.95141-0.27775 0.23570 0.81764-0.19813
   2  -4   9 5990.95  390.67   1 0.11631 0.33100-0.93799 0.89679 0.32654 0.29358
   2  -4  1015203.82  917.00   1-0.47061 0.96093-0.23721 0.22475 0.84985-0.16151
   2  -4  1017416.89 1107.30   1 0.16859 0.32197-0.90779 0.89627 0.38404 0.30499
  -2   3   9  550.04  209.10   1-0.39885 0.70282-0.15453 0.65204 0.90389-0.28438
  -2   3   8 4035.94  532.93   1-0.42159 0.68236-0.18024 0.64817 0.88868-0.33801
  -2   3   7 5836.23  472.16   1-0.44168 0.65924-0.20333 0.64167 0.87382-0.39198
  -2   3   7 6187.74  465.83   1-0.75662 0.97440 0.24955 0.18875 0.60435-0.12208
  -2   3   634384.71  967.76   1-0.45870 0.63306-0.22317 0.63192 0.86010-0.44709
  -2   3   634881.75  913.90   1-0.76608 0.94057 0.14419 0.26456 0.62635-0.21289
  -2   3   536775.35 1004.63   1-0.47187 0.60302-0.23871 0.61787 0.84873-0.50456
  -2   3   533604.89  867.14   1-0.76717 0.89845 0.05364 0.32553 0.63918-0.29464
  -2   3   449936.31  864.71   1-0.47965 0.56760-0.24797 0.59755 0.84169-0.56635
  -2   3   448903.91  808.88   1-0.76316 0.85122-0.02241 0.37199 0.64581-0.37017
  -2   3   3 8422.37  591.36   1-0.47880 0.52354-0.24696 0.56695 0.84247-0.63596
  -2   3   3 8626.60  608.98   1-0.75632 0.80096-0.08361 0.40356 0.64883-0.44225
  -2   3   1188112.5 2027.30   1-0.40318 0.36152-0.15939 0.42022 0.90112-0.83229
   2  -3  -1184713.0 1981.44   1-0.61173 0.65349-0.41805 0.15715 0.67157-0.74044
  -2   3   055736.13  627.59   1-0.19587 0.11103 0.05926 0.17191 0.97883-0.97883
   2  -3   059316.32  656.44   1-0.54814 0.63309-0.33257 0.10132 0.76741-0.76741
  -2   3   051068.42  644.20   1-0.74712 0.66217-0.14349 0.37457 0.64901-0.64901
   2  -3   055228.73  672.86   1-0.68128 0.76614-0.38126 0.15013 0.62488-0.62488
   2  -3   139260.91  427.67   1-0.20437 0.33241 0.05078-0.25238 0.97757-0.90873
   2  -3   139660.75  431.01   1-0.58651 0.71465-0.67767 0.47606-0.44358 0.51247
   2  -3   138177.35  486.42   1-0.68409 0.81214-0.37389 0.17235 0.62627-0.55741
   2  -3   210745.13  151.39   1-0.69588 0.86727-0.55373 0.38173 0.45729-0.31954
  -2   3  -2 9720.01  141.88   1-0.61749 0.44613-0.69052 0.86249-0.37665 0.23888
  -2   3  -2 9591.12  194.91   1-0.76363 0.59241-0.01654 0.18856 0.64543-0.78325
   2  -3   210880.41  199.16   1-0.67388 0.84514-0.40007 0.22812 0.62113-0.48342
   2  -3   211702.50  246.98   1-0.39412 0.56530-0.86593 0.69413-0.30792 0.44565
   2  -3   381382.21  607.25   1-0.64181 0.85640-0.46253 0.32017 0.61166-0.40504
  -2   3  -376189.82  589.94   1-0.76630 0.55187 0.13928 0.00314 0.62719-0.83392
   2  -3   379457.34  594.53   1-0.64163 0.85608-0.47321 0.33085 0.60362-0.39705
   2  -3   469795.81  584.50   1-0.60653 0.86425-0.41072 0.29799 0.68075-0.40529
  -2   3  -466907.77  585.64   1-0.73033 0.47255-0.67113 0.78388 0.12722-0.40275
  -2   3  -466506.05  510.69   1-0.72754 0.46994 0.39539-0.28259 0.56065-0.83623
   2  -3   470331.67  522.63   1-0.56063 0.81844-0.61465 0.50207 0.55486-0.27942
   2  -3   5 1652.70  158.90   1-0.57670 0.87761-0.36994 0.28685 0.72839-0.38406
  -2   3  -5 1585.32   96.73   1-0.50985 0.20897 0.79694-0.71386 0.32392-0.66837
   2  -3   5 2114.24  277.02   1-0.05775 0.35848-0.99037 0.90758 0.12576 0.21858
   2  -3   667967.89 1630.76   1-0.54846 0.89256-0.33298 0.27952 0.76701-0.35382
   2  -3   680422.53 1959.45   1 0.01677 0.32715-0.97677 0.92364 0.21360 0.19962
   2  -3   787333.60 2177.46   1-0.52030 0.90760-0.29750 0.27336 0.80048-0.31864
   2  -3   781302.29 2138.86   1 0.08042 0.30704-0.95476 0.93128 0.28628 0.19603
   2  -3   8  431.00  166.26   1-0.49149 0.92199-0.26220 0.26765 0.83046-0.27979
   2  -3   8  725.99  216.69   1 0.13586 0.29485-0.92751 0.93372 0.34821 0.20301
   2  -3   9 8631.74  594.77   1-0.46162 0.93532-0.22660 0.26163 0.85764-0.23813
   2  -3   9 9595.09  688.15   1 0.18550 0.28846-0.89649 0.93239 0.40234 0.21779
   2  -3  10 1083.79  285.07   1-0.43039 0.94729-0.19030 0.25492 0.88235-0.19400
  -2   2  1019799.99 2165.35   1-0.42604 0.74663-0.18532 0.63534 0.88551-0.19717
  -2   2   9 3957.12  522.64   1-0.45327 0.73065-0.21680 0.63723 0.86460-0.24509
  -2   2   8 3012.08  247.27   1-0.47868 0.71286-0.24681 0.63766 0.84258-0.29190
  -2   2   8 2163.65  137.71   1-0.75544 0.98983 0.25813 0.13271 0.60222-0.05106
  -2   2   7 4550.15  308.08   1-0.50229 0.69327-0.27531 0.63657 0.81969-0.33785
  -2   2   7 5026.24  266.56   1-0.76709 0.95819 0.11672 0.24456 0.63082-0.14845
  -2   2   6 2280.53  251.88   1-0.52404 0.67182-0.30216 0.63383 0.79628-0.38327
  -2   2   6 3351.75  308.93   1-0.76438 0.91227-0.00633 0.33802 0.64472-0.23126
  -2   2   571846.98 1164.20   1-0.54381 0.64826-0.32703 0.62936 0.77286-0.42853
  -2   2   578170.80 1188.41   1-0.75195 0.85645-0.11437 0.41653 0.64922-0.30493
  -2   2   4295765.1 2105.34   1-0.56118 0.62244-0.34946 0.62216 0.75029-0.47484
  -2   2   3  438.50  123.12   1-0.57529 0.59336-0.36807 0.61114 0.73045-0.52385
   2  -2  -3  333.51  126.78   1-0.69460 0.67655-0.55125 0.30811 0.46220-0.66882
  -2   2   3  501.89  192.56   1-0.71497 0.73308-0.28109 0.52401 0.64015-0.43358
   2  -2  -3  244.81   62.69   1-0.54758 0.52944-0.63373 0.39078 0.54638-0.75297
  -2   2   2216169.5 2324.68   1-0.58370 0.55857-0.37933 0.59277 0.71790-0.58017
   2  -2  -2228676.7 2447.26   1-0.69013 0.71528-0.54278 0.32929 0.47864-0.61638
  -2   2   1110165.7 1194.66   1-0.57657 0.50825-0.36977 0.55358 0.72857-0.65971
   2  -2  -1114581.8 1234.87   1-0.69381 0.76216-0.54973 0.36589 0.46519-0.53406
  -2   2   0289710.0 3074.92   1-0.68305 0.57161-0.37663 0.53072 0.62576-0.62576
   2  -2   0286157.0 3027.76   1-0.59988 0.71138-0.55155 0.39749 0.57959-0.57959
   2  -2   1 2548.87   51.38   1-0.35791 0.51256-0.10922-0.01535 0.92734-0.85850
  -2   2  -1 2092.99   44.38   1-0.72841 0.57368-0.67968 0.80425 0.08624-0.15512
  -2   2  -1 1983.81  103.53   1-0.69684 0.54221-0.33845 0.46295 0.63233-0.70119
   2  -2   1 2580.12  109.03   1-0.57998 0.73470-0.58470 0.46026 0.56721-0.49835
   2  -2   1 2412.71  135.90   1-0.40364 0.55822-0.85663 0.73221-0.32132 0.39019
   2  -2   216857.31  227.53   1-0.52855 0.72645-0.30772 0.21281 0.79115-0.65343
  -2   2  -216315.35  234.68   1-0.71375 0.51581-0.59239 0.68729 0.37367-0.51142
  -2   2  -215177.26  224.41   1-0.72872 0.53085-0.23009 0.32491 0.64498-0.78270
   2  -2   217499.52  249.62   1-0.51952 0.71745-0.67195 0.57714 0.52779-0.39007
  -2   2  -215090.87  245.99   1-0.38418 0.18640-0.87518 0.96996-0.29401 0.15628
   2  -2   355213.80  477.98   1-0.53742 0.77851-0.31890 0.25363 0.78068-0.57409
  -2   2  -353366.45  476.09   1-0.71073 0.46959-0.58528 0.65055 0.39025-0.59687
   2  -2   4344502.1 2324.07   1-0.52794 0.81222-0.30694 0.27130 0.79187-0.51641
  -2   2  -4361509.121868.74   1-0.14386-0.14046 0.98953-0.95403-0.01077-0.26475
  -2   2  -4360397.7 2255.23   1-0.62518 0.34090 0.64352-0.60784 0.44162-0.71715
   2  -2   4359452.1 2507.40   1-0.01544 0.29960-0.98427 0.94885 0.17594 0.09953
   2  -2   533991.56  590.39   1-0.51183 0.83929-0.28701 0.28078 0.80972-0.46555
   2  -2   539895.41  745.98   1 0.05608 0.27153-0.96434 0.95858 0.25863 0.08588
   2  -2   698415.17 2336.73   1-0.49202 0.86269-0.26284 0.28619 0.82995-0.41694
   2  -2   6117310.3 2810.67   1 0.11491 0.25594-0.93870 0.96263 0.32499 0.08842
   2  -2   779674.02 4390.69   1-0.46953 0.88341-0.23593 0.28887 0.85080-0.36896
   2  -2   796318.32 5323.30   1 0.16563 0.24847-0.90968 0.96330 0.38082 0.10149
   2  -2   8 3833.98  416.49   1-0.44478 0.90186-0.20691 0.28944 0.87140-0.32073
   2  -2   9 2153.77  311.20   1-0.41792 0.91820-0.17606 0.28817 0.89125-0.27174
   2  -2  10  682.66  254.98   1-0.38899 0.93248-0.14350 0.28520 0.90999-0.22164
  -2   1  11 4107.05  495.52   1-0.44621 0.78342-0.20858 0.61110 0.87027-0.11310
  -2   1  10 3153.36  477.30   1-0.47687 0.77088-0.24466 0.61760 0.84423-0.15588
  -2   1   9 6598.99  414.96   1-0.50611 0.75692-0.27999 0.62334 0.81575-0.19624
  -2   1   815236.99 1084.44   1-0.53409 0.74156-0.31469 0.62884 0.78467-0.23375
  -2   1   816182.54  385.58   1-0.76731 0.97502 0.10704 0.20677 0.63227-0.08100
  -2   1   723125.74 1380.14   1-0.56111 0.72538-0.34936 0.63388 0.75039-0.26834
  -2   1   727484.19 1029.18   1 0.16321 0.00078 0.95071-0.66617-0.26364 0.74579
  -2   1   728796.70 1081.43   1-0.75898 0.92334-0.06176 0.34614 0.64817-0.16617
  -2   1   6 2366.39  218.28   1-0.58741 0.70849-0.38435 0.63924 0.71218-0.29899
  -2   1   6 2703.93  191.24   1 0.25007-0.12924 0.90976-0.65486-0.33133 0.74460
  -2   1   6 2446.80  204.99   1-0.73397 0.85514-0.20815 0.46290 0.64649-0.23335
  -2   1   5 2962.44  268.14   1-0.61344 0.69133-0.42048 0.64573 0.66848-0.32416
  -2   1   5 3650.41  265.01   1-0.69738 0.77536-0.33687 0.56187 0.63258-0.28829
  -2   1   476431.47  640.58   1-0.65307 0.68785-0.44872 0.64413 0.61003-0.33459
  -2   1   3369275.6 3925.10   1-0.66793 0.65943-0.50391 0.66994 0.54765-0.34104
   2  -1  -3390903.1 4143.35   1-0.72416 0.73264-0.62129 0.45528 0.29928-0.50590
   2  -1  -3361524.8 3821.61   1-0.40835 0.41681-0.79407 0.62836 0.45021-0.65683
  -2   1   296192.64 1071.97   1-0.70018 0.64848-0.56224 0.69863 0.44002-0.30228
   2  -1  -2105483.6 1166.42   1-0.73000 0.78168-0.64690 0.51053 0.22046-0.35821
   2  -1  -1423213.9 4437.51   1-0.41792 0.51278-0.78511 0.67853 0.45709-0.52596
  -2   1   045728.04  495.66   1-0.41223 0.27412-0.57614 0.65324-0.70578 0.70578
  -2   1   044804.63  532.26   1-0.48750 0.34944-0.71151 0.78854 0.50604-0.50604
   2  -1   050313.95  582.70   1-0.37074 0.50880-0.82689 0.74988 0.42284-0.42284
   2  -1   1 8794.19  138.04   1-0.25807 0.43929-0.00375-0.04372 0.96611-0.89727
  -2   1  -1 7612.95  129.93   1-0.49391 0.31268-0.26512 0.31262 0.82810-0.89693
  -2   1  -1 7269.05  122.45   1 0.25454-0.43583 0.90726-0.85985-0.33476 0.26588
  -2   1  -1 7559.08  145.85   1-0.48818 0.30690-0.71072 0.75812 0.50650-0.57537
  -2   1  -1 7548.01  145.01   1-0.29192 0.11074-0.94141 0.98880-0.16884 0.09997
   2  -1   2 3137.10  106.06   1-0.40861 0.63305-0.16551 0.14760 0.89757-0.75990
  -2   1  -2 3013.22  105.72   1-0.60600 0.38154-0.40998 0.42780 0.68166-0.81939
  -2   1  -2 2956.86   83.02   1 0.00921-0.23378 0.99008-0.97228-0.14014 0.00230
  -2   1  -2 3010.09   79.29   1-0.53771 0.31322-0.64758 0.66536 0.53990-0.67762
   2  -1   2 4048.78  148.43   1-0.02427 0.24865-0.98590 0.96819 0.16554-0.02780
  -2   1  -2 3042.73  283.49   1-0.20115-0.02320-0.97823 0.99594-0.05084-0.08691
   2  -1   371067.94  608.41   1-0.44767 0.71531-0.21027 0.22195 0.86912-0.66261
  -2   1  -364065.83  568.91   1-0.65021 0.38252-0.47545 0.46361 0.59258-0.79920
  -2   1  -366681.72  449.39   1-0.47312 0.20544 0.83248-0.84427 0.28830-0.49497
  -2   1  -364984.66  441.93   1-0.67760 0.41000-0.39072 0.37900 0.62303-0.82961
   2  -1   4163455.5 3855.38   1-0.45523 0.76607-0.21909 0.26035 0.86299-0.58765
   2  -1   4177366.9 4196.81   1 0.11648 0.19453-0.93791 0.97956 0.32673-0.05111
   2  -1   554620.24 1362.97   1-0.44952 0.80357-0.21243 0.28328 0.86763-0.52346
   2  -1   562141.19 1564.01   1 0.16519 0.18907-0.90997 0.98130 0.38034-0.03582
   2  -1   6  -37.90  132.25   1-0.43659 0.83384-0.19744 0.29788 0.87772-0.46471
   2  -1   730800.51 1245.72   1-0.41893 0.85939-0.17721 0.30723 0.89055-0.40871
   2  -1   828250.32 1251.71   1-0.39772 0.88138-0.15326 0.31286 0.90461-0.35393
   2  -1   9 2483.53  423.56   1-0.37355 0.90033-0.12673 0.31588 0.91891-0.29936
   2  -1  10  767.42  257.25   1-0.34669 0.91667-0.09737 0.31609 0.93290-0.24452
  -2   0  1117753.46 1933.76   1-0.49353 0.80416-0.26466 0.59011 0.82847-0.07129
  -2   0  10 8410.21  602.45   1-0.52549 0.79278-0.30388 0.60021 0.79467-0.10603
  -2   0   917431.06  826.61   1-0.55642 0.78051-0.34326 0.60996 0.75668-0.13689
  -2   0   825876.54  768.42   1-0.58650 0.76740-0.38311 0.62018 0.71360-0.16269
  -2   0   824970.00  642.88   1-0.75325 0.93428-0.10573 0.34269 0.64917-0.09831
  -2   0   7 6630.61  587.43   1-0.61601 0.75372-0.42413 0.63156 0.66381-0.18175
  -2   0   7 6820.21  620.34   1-0.01885 0.15655 0.99296-0.78502-0.11689 0.59935
  -2   0   7 6757.29  563.87   1-0.70877 0.84656-0.30191 0.50904 0.63755-0.15555
  -2   0   6 1819.98  180.58   1-0.64503 0.73957-0.46744 0.64532 0.60450-0.19126
  -2   0   6 1855.32  286.70   1 0.05852 0.03597 0.98181-0.80358-0.18056 0.59410
  -2   0   6 1903.86  157.06   1-0.64339 0.73799-0.46953 0.64707 0.60462-0.19148
  -2   0   5 3200.15  279.81   1-0.67420 0.72555-0.51445 0.66268 0.52988-0.18552
  -2   0   5 3837.44  337.87   1 0.11531-0.06415 0.96738-0.81918-0.22553 0.56993
  -2   0   5 3891.78  285.24   1-0.56170 0.61315-0.61305 0.76119 0.55555-0.21124
   2   0  -4 5021.47  166.33   1-0.73077 0.72261-0.66698 0.54843 0.14524-0.42077
  -2   0   4 4327.29  284.39   1 0.14897-0.14098 0.95609-0.83753-0.25237 0.52788
  -2   0   4 4752.25  137.99   1-0.46761 0.47575-0.73418 0.85245 0.49224-0.21675
   2   0  -4 4412.38  166.22   1 0.04977-0.05811-0.96659 0.84785 0.25142-0.52704
  -2   0   3208028.4 2250.51   1-0.72665 0.69160-0.63025 0.71917 0.27339-0.06677
   2   0  -3222122.9 2390.41   1-0.72539 0.76043-0.68672 0.59780 0.04703-0.25368
  -2   0   3213389.7 2269.43   1 0.15633-0.19150 0.95335-0.86443-0.25820 0.46484
   2   0  -3215127.4 2283.47   1 0.09188-0.05697-0.94975 0.86069 0.29921-0.50592
  -2   0   2  932.39   78.41   1-0.71947 0.64122-0.69448 0.75376-0.00599 0.14375
   2   0  -2 1093.40   74.60   1-0.68302 0.76129-0.70570 0.64643-0.18830 0.05053
   2   0  -2 1042.11   81.82   1 0.26392-0.18560 0.90189-0.96117-0.34194 0.20418
  -2   0   2 1222.41  118.50   1 0.12945-0.20778 0.96288-0.90360-0.23684 0.37460
   2   0  -2 1200.35   49.89   1 0.16713-0.08896-0.90873 0.84936 0.38245-0.52025
   2   0  -1327402.1 3423.82   1-0.44165 0.56315-0.59564 0.56601-0.67093 0.60206
   2   0  -1328595.6 3448.11   1 0.16525-0.04376 0.94991-0.97955-0.26525 0.19637
  -2   0   1305066.0 3202.08   1 0.05532-0.17682 0.98248-0.95277-0.17796 0.24688
   2   0   0278930.0 2926.21   1 0.08228 0.08228 0.31857-0.31857 0.94431-0.94431
  -2   0   0272601.4 2864.00   1-0.08229-0.08229 0.16965-0.16965 0.98206-0.98206
   2   0   0287292.8 3016.24   1 0.08235 0.08235 0.97634-0.97634-0.19990 0.19990
  -2   0   0269143.7 2828.85   1-0.08235-0.08235 0.99456-0.99456-0.06365 0.06365
   2   0   0282400.0 2957.31   1 0.08233 0.08233-0.95394 0.95394 0.28844-0.28844
  -2   0   0267894.5 2809.89   1-0.08230-0.08230-0.99194 0.99194 0.09625-0.09625
  -2   0  -130975.32  401.90   1-0.39589 0.18808-0.15121 0.12162 0.90575-0.97459
  -2   0  -132103.64  379.54   1-0.29265 0.08483 0.94861-0.97825 0.12036-0.18924
   2   0   135119.19  446.38   1 0.13494 0.07297-0.92803 0.95772 0.34718-0.27828
   2   0   217433.46  317.91   1-0.32800 0.57900-0.07722 0.13637 0.94151-0.80383
  -2   0  -214581.65  257.45   1-0.53019 0.27916-0.30977 0.25051 0.78925-0.92698
   2   0   217739.76  236.15   1 0.01673 0.23437 0.98909-0.92967-0.14634 0.28419
  -2   0  -215835.39  210.93   1-0.54620 0.29514 0.75639-0.81561 0.35988-0.49766
   2   0   217887.00  311.66   1 0.17184 0.07931-0.90568 0.96505 0.38757-0.24976
   2   0   3 1794.49  214.00   1-0.37372 0.66792-0.12693 0.21566 0.91881-0.71229
   2   0   3 1948.45  196.86   1 0.07041 0.22388 0.97921-0.89009-0.19023 0.39699
  -2   0  -3 2301.83  160.23   1-0.74212 0.44793 0.33421-0.42299 0.58098-0.78767
   2   0   442187.26 1070.57   1-0.38975 0.72717-0.14434 0.26268 0.90953-0.63420
  -2   0  -440096.85  939.52   1-0.69017 0.35279-0.35739 0.23903 0.62922-0.90465
   2   0   595582.03 2331.90   1-0.39071 0.77134-0.14541 0.29334 0.90895-0.56478
   2   0   6 4918.40  325.09   1-0.38279 0.80663-0.13661 0.31412 0.91367-0.50066
   2   0   7 8990.51  701.73   1-0.36891 0.83589-0.12163 0.32868 0.92146-0.43959
   2   0   810690.16 1284.63   1-0.35062 0.86079-0.10163 0.33825 0.93098-0.38027
   2   0   9 1912.59  542.56   1-0.32871 0.88208-0.07798 0.34418 0.94120-0.32165
  -2  -1  1118475.87 1129.70   1-0.53824 0.82216-0.31994 0.56882 0.77969-0.02218
  -2  -1  1018284.92  873.32   1-0.57117 0.81189-0.36259 0.58184 0.73639-0.04775
  -2  -1   910764.33  822.43   1-0.60305 0.80058-0.40585 0.59546 0.68673-0.06695
  -2  -1   849214.24 1871.05   1-0.63399 0.78833-0.45033 0.61031 0.62868-0.07777
  -2  -1   846561.83 1706.11   1-0.30555 0.45978 0.94298-0.78290 0.13197 0.41911
  -2  -1   851250.01 1880.08   1-0.67799 0.83240-0.38975 0.54942 0.62323-0.07236
  -2  -1   735896.39  976.68   1-0.66371 0.77490-0.49695 0.62738 0.55903-0.07692
  -2  -1   735509.80  868.79   1-0.22552 0.33654 0.97237-0.84185 0.06025 0.42191
  -2  -1   738971.58  962.79   1-0.57559 0.68692-0.59169 0.72204 0.56443-0.08240
  -2  -1   6 4872.64  360.66   1-0.69207 0.76007-0.54642 0.64720 0.47163-0.05839
  -2  -1   6 4583.52  344.96   1-0.17027 0.23811 0.98532-0.88446 0.01201 0.40127
  -2  -1   6 4907.70  333.52   1-0.45180 0.51972-0.75123 0.85162 0.48116-0.06793
  -2  -1   553480.87  446.46   1-0.13985 0.16453 0.99007-0.91886-0.01422 0.35863
   2   1  -552687.76  547.80   1-0.13323 0.10845-0.99049 0.91924 0.03407-0.37846
   2   1  -4 7412.71  175.53   1-0.70714 0.72555-0.70217 0.66071-0.08310-0.19242
   2   1  -4 7880.88  195.00   1 0.17425-0.15573 0.94628-0.98779-0.27235-0.00316
  -2  -1   4 8342.19  168.16   1-0.13659 0.11810 0.99048-0.94892-0.01702 0.29255
  -2  -1   4 7746.06  176.65   1 0.08476-0.10307-0.95289 0.99455 0.29119-0.01558
   2   1  -4 9132.63  173.50   1-0.16350 0.18190-0.98653 0.94493-0.00346-0.27204
  -2  -1   3162330.3 1773.04   1-0.71143 0.64981-0.70025 0.71206-0.05925 0.26589
   2   1  -3172327.9 1868.77   1-0.65860 0.72024-0.70270 0.69089-0.26917 0.06251
   2   1  -3175655.1 1890.96   1 0.03314 0.02848 0.98658-0.99849-0.15983-0.04693
  -2  -1   3172411.7 1847.27   1-0.16446 0.10281 0.98635-0.97445 0.00699 0.19965
  -2  -1   3175195.1 1859.68   1-0.02754-0.03407-0.98645 0.99840 0.16168 0.04492
   2   1  -3175375.6 1861.06   1-0.26871 0.33030-0.95330 0.94136-0.13781-0.06881
  -2  -1   2423921.2 4449.91   1-0.59335 0.48850-0.68071 0.66290-0.42960 0.56737
   2   1  -2451939.5 4735.62   1-0.50855 0.61340-0.63701 0.65482-0.57929 0.44151
   2   1  -2435351.4 4565.69   1-0.09403 0.19885 0.99413-0.97638-0.05333-0.08442
  -2  -1   2446914.3 4678.78   1-0.22752 0.12270 0.97179-0.98954 0.06202 0.07574
  -2  -1   132354.00  403.97   1-0.31084 0.16278-0.50402 0.45656-0.80581 0.87467
  -2  -1   132614.66  399.39   1-0.32641 0.17841 0.93311-0.98053 0.15084-0.08196
   2   1   0317621.3 3365.44   1 0.00881 0.18232 0.25370-0.17663 0.96724-0.96724
  -2  -1   0305502.6 3231.88   1-0.15239-0.03876 0.10245-0.17949 0.98299-0.98299
   2   1   0316988.8 3333.00   1-0.27430 0.46546 0.95605-0.87899 0.10349-0.10349
  -2  -1   0314489.0 3311.41   1-0.45362 0.26244 0.84962-0.92669 0.26900-0.26900
   2   1   1295321.4 3157.50   1-0.17395 0.40819 0.08129 0.02534 0.98139-0.91254
  -2  -1  -1262012.4 2819.11   1-0.36767 0.13328-0.12026 0.01362 0.92214-0.99098
   2   1   1283800.1 2992.35   1-0.31720 0.55156 0.93758-0.83087 0.14250-0.07361
  -2  -1  -1292383.1 3086.82   1-0.58872 0.35426 0.70068-0.80732 0.40303-0.47192
  -2  -1  -1263450.0 2816.52   1 0.15623-0.39079-0.91556 0.80878 0.37057-0.43947
   2   1   215189.65 1018.29   1-0.26591 0.54350-0.01184 0.14806 0.96392-0.82624
   2   1   214024.65  923.91   1-0.32699 0.60452 0.93282-0.79647 0.15136-0.01359
  -2  -1  -213702.25  905.86   1-0.70260 0.42503 0.47586-0.61210 0.52904-0.66683
   2   1   325115.90  676.66   1-0.31068 0.63146-0.05874 0.22454 0.94869-0.74218
   2   1   327580.35  672.20   1-0.30197 0.62268 0.94458-0.77858 0.12875 0.07790
  -2  -1  -322594.79 1160.55   1-0.76359 0.44276 0.18335-0.34920 0.61911-0.82583
   2   1   4 4503.58  645.13   1-0.33022 0.69420-0.07960 0.27497 0.94054-0.66518
   2   1   4 4849.68  365.45   1-0.23410 0.59792 0.96984-0.77416 0.06781 0.20770
  -2  -1  -4 3389.62  216.54   1-0.74426 0.38041-0.15903-0.03647 0.64866-0.92409
   2   1   5 7255.33  822.88   1-0.33511 0.74229-0.08486 0.30981 0.93834-0.59415
   2   1   5 8640.64  510.64   1-0.09283 0.49981 0.99419-0.76887-0.05436 0.39877
  -2  -1  -5 7022.03  414.00   1-0.60683 0.19959-0.53933 0.31416 0.58383-0.92814
   2   1   624498.24 1007.12   1-0.33064 0.78101-0.08005 0.33458 0.94035-0.52732
   2   1   7 2654.02  495.13   1-0.31962 0.81318-0.06825 0.35236 0.94508-0.46321
   2   1   811337.36 1352.25   1-0.30362 0.84038-0.05127 0.36495 0.95141-0.40070
   2   1   9 6604.29 1382.33   1-0.28355 0.86351-0.03019 0.37345 0.95847-0.33893
  -2  -2  12 2814.76  430.76   1-0.54536 0.84590-0.32901 0.53043 0.77092 0.05544
  -2  -2  1040732.26 1763.55   1-0.61287 0.82703-0.41966 0.56182 0.66952 0.01912
  -2  -2   9 1492.94  179.63   1-0.64426 0.81529-0.46626 0.57888 0.60623 0.01361
  -2  -2   9 1559.96  115.96   1-0.64575 0.81677-0.46456 0.57678 0.60595 0.01376
  -2  -2   871594.99 2672.22   1-0.67403 0.80187-0.51416 0.59713 0.53038 0.02059
  -2  -2   875822.64 2763.61   1-0.46139 0.58925 0.84282-0.76004 0.27706 0.27405
  -2  -2   879337.76 2893.64   1-0.50474 0.63272-0.69071 0.77366 0.51782 0.03307
  -2  -2   875200.27 2797.98   1 0.17619-0.04815-0.90281 0.98611 0.39228 0.15894
  -2  -2   780587.32 1304.07   1-0.70093 0.78557-0.56377 0.61710 0.43685 0.04525
  -2  -2   780307.67 1177.67   1-0.40667 0.49118 0.88549-0.83213 0.22473 0.25747
  -2  -2   782669.86 1296.28   1 0.12291-0.03811-0.93456 0.98818 0.33387 0.14844
  -2  -2   694157.31 2273.37   1-0.72213 0.76357-0.61485 0.63850 0.31697 0.09627
   2   2  -683825.78 1992.36   1 0.18661-0.22788 0.94107-0.96480-0.28206-0.13121
  -2  -2   691082.86 2150.73   1-0.37446 0.41579 0.90654-0.88282 0.19482 0.21849
  -2  -2   693578.21 2244.23   1 0.05690-0.01536-0.96404 0.98797 0.25957 0.15384
  -2  -2   522275.20  366.09   1-0.73104 0.72927-0.66403 0.65804 0.15693 0.18743
   2   2  -520810.26  262.44   1 0.02764-0.02588 0.98747-0.98157-0.15532-0.18929
  -2  -2   521567.26  248.42   1-0.36488 0.36304 0.91228-0.91820 0.18599 0.15843
  -2  -2   520600.81 1296.79   1-0.03273 0.03089-0.98728 0.98152 0.15553 0.18881
   2   2  -521020.30  265.18   1-0.30758 0.30932-0.93243 0.93828-0.18963-0.15470
  -2  -2   411143.26  249.19   1-0.71079 0.66580-0.70057 0.66493-0.06294 0.33847
   2   2  -4 9223.09  188.64   1-0.11590 0.16089 0.99265-0.95714-0.03472-0.24080
  -2  -2   410027.46  186.29   1-0.37853 0.33351 0.90403-0.93959 0.19857 0.07696
  -2  -2   4 9982.72  195.08   1-0.16921 0.12422-0.98552 0.95010-0.01060 0.28611
   2   2  -410973.63  195.27   1-0.40264 0.44759-0.85763 0.89312-0.31990 0.04444
   2   2  -3235621.4 2550.81   1-0.23818 0.32633 0.96859-0.90343 0.07141-0.27806
  -2  -2   3241212.7 2569.08   1-0.41521 0.32702 0.87945-0.94465 0.23272-0.02606
  -2  -2   3253118.4 2671.05   1-0.39482 0.30666-0.86526 0.80013-0.30890 0.51550
  -2  -2   113468.75  219.96   1 0.03536-0.20987 0.27743-0.40197 0.96009-0.89127
  -2  -2   114595.83  260.04   1-0.19828 0.02362-0.41627 0.29171-0.88735 0.95621
  -2  -2   114708.84  238.77   1-0.54450 0.36986 0.75843-0.88289 0.35818-0.28929
   2   2   051921.28  624.62   1-0.44377 0.66150 0.85769-0.70355 0.25965-0.25965
  -2  -2   047463.01  583.67   1-0.62223 0.40444 0.64850-0.80259 0.43848-0.43848
   2   2   128410.79  366.84   1-0.13769 0.39850 0.11673 0.06694 0.98357-0.91471
   2   2   126373.29  300.87   1-0.46173 0.72279 0.84253-0.65885 0.27738-0.20849
  -2  -2  -125549.13  299.99   1-0.69343 0.43243 0.50089-0.68458 0.51792-0.58681
   2   2   235522.08  466.36   1-0.21319 0.51736 0.04192 0.17134 0.97610-0.83843
   2   2   235097.12  354.68   1-0.45861 0.76288 0.84520-0.63192 0.27440-0.13662
  -2  -2  -232893.73  352.76   1-0.74567 0.44149 0.31659-0.52988 0.58629-0.72408
   2   2   314314.47  784.42   1-0.25472 0.60209-0.00030 0.24315 0.96701-0.76049
   2   2   314105.32  741.37   1-0.43460 0.78185 0.86494-0.62188 0.25096-0.04430
  -2  -2  -311925.68  629.67   1-0.76740 0.41997 0.10085-0.34376 0.63317-0.83990
   2   2   4  801.07  160.35   1-0.27524 0.66580-0.02152 0.29395 0.96113-0.68577
   2   2   4  898.19  109.49   1-0.38537 0.77579 0.89972-0.62701 0.20490 0.07063
  -2  -2  -4  715.36   92.75   1-0.74775 0.35736-0.13990-0.13263 0.64906-0.92449
   2   2   5 3714.04  486.67   1-0.28225 0.71601-0.02882 0.33083 0.95890-0.61471
   2   2   5 4256.61  206.78   1-0.30186 0.73547 0.94462-0.64227 0.12865 0.21578
   2   2   6 8797.10 1267.64   1-0.28001 0.75697-0.02649 0.35808 0.95962-0.54659
   2   2   711147.45 1101.96   1-0.27102 0.79117-0.01713 0.37830 0.96242-0.48054
   2   2   8  234.62  135.37   1-0.25675 0.82010-0.00240 0.39314 0.96647-0.41576
  -2  -3  12  199.30  164.19   1-0.58338 0.85736-0.37891 0.50324 0.71839 0.10798
  -2  -3  11 7113.31  548.92   1-0.61741 0.84820-0.42613 0.52084 0.66121 0.09629
  -2  -3  1062546.44 5732.17   1-0.64926 0.83695-0.47398 0.53915 0.59479 0.09392
  -2  -3   946706.91 2611.65   1-0.67884 0.82333-0.52244 0.55796 0.51596 0.10389
  -2  -3   951726.87 2842.88   1-0.44097 0.58528-0.76244 0.79751 0.47352 0.14632
  -2  -3   948791.11 2725.13   1 0.13715 0.00749-0.92679 0.96268 0.34962 0.27050
  -2  -3   818748.54  594.45   1-0.70467 0.80596-0.57152 0.57740 0.42046 0.13051
   2   3  -817667.88  458.56   1 0.26569-0.36676 0.90086-0.90682-0.34330-0.20773
  -2  -3   818393.58  480.10   1-0.56776 0.66902 0.72939-0.72365 0.38160 0.16951
  -2  -3   819224.76  581.31   1 0.07636 0.02502-0.95645 0.96266 0.28170 0.26953
  -2  -3   770848.53 1163.60   1-0.72390 0.78197-0.62042 0.59662 0.30171 0.18041
   2   3  -766311.23 1021.29   1 0.09327-0.15137 0.97351-0.94981-0.20872-0.27373
  -2  -3   771118.85 1063.42   1-0.53387 0.59191 0.77081-0.79467 0.34759 0.13462
  -2  -3   777980.49 1245.48   1 0.00256 0.05536-0.98038 0.95691 0.19705 0.28503
  -2  -3   6120863.0 2891.84   1-0.73085 0.74570-0.66573 0.61226 0.15051 0.26278
   2   3  -6118398.3 2798.94   1-0.06328 0.04838 0.99480-0.94140-0.07973-0.33380
  -2  -3   6113158.1 2668.98   1-0.51711 0.53194 0.78930-0.84277 0.33104 0.08228
  -2  -3   6110280.4 2628.98   1-0.09081 0.10554-0.99215 0.93901 0.08595 0.32726
  -2  -3   5107780.5  906.20   1-0.71395 0.68559-0.69880 0.61570-0.04400 0.38841
   2   3  -5106277.6  832.91   1-0.19805 0.22636 0.97952-0.89660 0.03617-0.38058
  -2  -3   5106817.7  816.08   1-0.51720 0.48881 0.78921-0.87228 0.33113 0.01331
  -2  -3   5106677.8  841.54   1-0.21509 0.18671-0.97418 0.89140-0.06856 0.41295
  -2  -3   4  871.48  122.75   1-0.65267 0.58108-0.70138 0.58861-0.28647 0.56201
   2   3  -4  951.07  100.04   1-0.51669 0.58827-0.64168 0.75438-0.56680 0.29125
   2   3  -4  852.68   77.47   1-0.30854 0.38011 0.94162-0.82899 0.13467-0.41022
  -2  -3   4  969.66   72.82   1-0.53329 0.46168 0.77147-0.88415 0.34702-0.07146
  -2  -3   4  725.94   60.60   1-0.37970 0.30813-0.87921 0.76668-0.28777 0.56324
  -2  -3   337417.03  532.93   1-0.52543 0.41063-0.64660 0.50427-0.55300 0.75966
   2   3  -332457.92  443.29   1-0.36210 0.47697-0.54131 0.68373-0.75885 0.55226
   2   3  -331600.53  437.81   1-0.39385 0.50859 0.89420-0.75192 0.21278-0.41944
  -2  -3   334574.73  466.67   1-0.56344 0.44862 0.73500-0.87729 0.37722-0.17055
  -2  -3   246980.56  585.27   1 0.15198-0.30986 0.37777-0.54980 0.91333-0.77569
  -2  -3   247972.49  636.98   1-0.34009 0.18205-0.52559 0.35357-0.77979 0.91751
   2   3  -248001.50  616.98   1-0.45508 0.61299 0.84840-0.67648 0.27039-0.40817
   2   3  -162706.74  772.02   1 0.14960 0.05147 0.37579-0.17418 0.91454-0.98336
   2   3   075235.94  756.02   1-0.00056 0.24483 0.24524-0.01404 0.96946-0.96946
   2   3   069341.90  602.27   1-0.51592 0.76037 0.79057-0.55947 0.32987-0.32987
  -2  -3   073021.43  636.59   1-0.69680 0.45241 0.49198-0.72312 0.52193-0.52193
   2   3   1 5463.61  729.40   1-0.10219 0.38957 0.15081 0.10990 0.98326-0.91441
   2   3   1 4507.28  324.43   1-0.52129 0.80896 0.78480-0.52409 0.33515-0.26626
  -2  -3  -1 5263.16  375.60   1-0.73587 0.44831 0.36233-0.62309 0.57201-0.64091
   2   3   2106251.2 1621.30   1-0.16603 0.49651 0.08908 0.20122 0.98208-0.84438
   2   3   2107679.2 1581.40   1-0.51169 0.84257 0.79502-0.50471 0.32572-0.18794
   2   3   329850.96  858.43   1-0.20338 0.57734 0.05176 0.26814 0.97772-0.77121
   2   3   330164.14  773.88   1-0.48674 0.86084 0.81988-0.49996 0.30143-0.09476
   2   3   4 4765.08  726.64   1-0.22355 0.64070 0.03147 0.31801 0.97418-0.69882
   2   3   4 4500.23  250.31   1-0.44477 0.86175 0.85688-0.50711 0.26059 0.01494
   2   3   5 1103.74  253.25   1-0.23151 0.69186 0.02341 0.35565 0.97254-0.62835
   2   3   5  694.73  100.27   1-0.37869 0.83884 0.90393-0.52451 0.19872 0.14570
   2   3   6  377.45  171.13   1-0.23063 0.73417 0.02430 0.38433 0.97273-0.55970
   2   3   7 5967.01 1166.73   1-0.22301 0.76975 0.03202 0.40620 0.97428-0.49241
  -2  -4  12 1128.96  325.86   1-0.61760 0.86501-0.42640 0.47365 0.66086 0.16550
  -2  -4  11 5111.81  423.48   1-0.65004 0.85437-0.47518 0.49290 0.59299 0.16460
  -2  -4  11 6035.98  502.47   1 0.16787 0.03662-0.90825 0.92642 0.38325 0.37468
  -2  -4  1027376.27 1175.23   1-0.67971 0.84085-0.52397 0.51203 0.51326 0.17546
  -2  -4  1031505.93 1341.44   1 0.11186 0.04937-0.94024 0.92873 0.32159 0.36744
  -2  -4   963439.78 1648.11   1-0.70514 0.82308-0.57253 0.53095 0.41830 0.20155
   2   4  -954981.28 1358.47   1 0.20971-0.32742 0.93056-0.88911-0.30011-0.31979
  -2  -4   965100.95 1693.08   1 0.04790 0.07008-0.96724 0.92604 0.24928 0.37084
  -2  -4   8 6030.09  547.34   1-0.72374 0.79845-0.61991 0.54866 0.30313 0.24786
   2   4  -8 5438.59  473.31   1 0.03709-0.11185 0.98591-0.91471-0.16306-0.38831
  -2  -4   8 6960.51  771.77   1-0.02733 0.10183-0.98642 0.91557 0.16193 0.38902
  -2  -4   728220.34  577.12   1-0.73107 0.76258-0.66285 0.56196 0.16170 0.32041
   2   4  -728598.32  508.48   1-0.11208 0.08056 0.99297-0.89230-0.03798-0.44418
  -2  -4   727972.63  533.38   1-0.11750 0.14880-0.99163 0.89112 0.05343 0.42865
  -2  -4   663014.37 1556.90   1-0.71859 0.70687-0.69531 0.56474-0.01260 0.42589
   2   4  -660153.09 1464.07   1-0.23811 0.24976 0.96861-0.83829 0.07135-0.48464
  -2  -4   663009.68 1537.37   1-0.22767 0.21590-0.97004 0.83990-0.08466 0.49793
  -2  -4   572996.96  697.80   1-0.67359 0.61863-0.70508 0.54484-0.22163 0.56606
   2   4  -569975.56  634.38   1-0.33936 0.39429 0.92648-0.76643 0.16262-0.50706
  -2  -4   567915.94  604.45   1-0.35953 0.30456-0.89620 0.73629-0.25990 0.60424
  -2  -4   4  310.99  142.40   1-0.58219 0.48401-0.67569 0.48592-0.45219 0.72774
   2   4  -4  256.54  130.93   1-0.41765 0.51575 0.87769-0.68798 0.23500-0.51055
  -2  -4   3 1855.68  213.11   1-0.44315 0.30168-0.59661 0.37709-0.66907 0.87566
   2   4  -3  832.02  115.63   1-0.47438 0.61581 0.83134-0.61202 0.28952-0.49619
  -2  -4   2 3721.63  305.28   1-0.28114 0.09651-0.48156 0.23244-0.83009 0.96780
   2   4  -2 2785.00  228.32   1-0.51346 0.69810 0.79317-0.54424 0.32746-0.46524
   2   4   060286.25 1482.26   1 0.01538 0.25546 0.25960 0.04866 0.96559-0.96559
   2   4   060546.36 1474.30   1-0.54746 0.81852 0.75488-0.44675 0.36114-0.36114
   2   4   118199.13  981.31   1-0.06691 0.38085 0.18409 0.15366 0.98062-0.91177
   2   4   116668.05  884.16   1-0.54590 0.86018 0.75675-0.41901 0.35958-0.29069
   2   4   255888.08 1648.38   1-0.12151 0.47855 0.13234 0.23501 0.98372-0.84602
   2   4   249247.75 1222.58   1-0.53282 0.89031 0.77200-0.40465 0.34655-0.20877
   2   4   327573.31 1095.99   1-0.15559 0.55572 0.09932 0.29763 0.98281-0.77626
   2   4   325490.34 1478.91   1-0.50750 0.90820 0.79937-0.40241 0.32162-0.11495
   2   4   4  183.82  138.76   1-0.17477 0.61800 0.08048 0.34607 0.98131-0.70590
   2   4   4  501.27  140.59   1-0.46784 0.91176 0.83719-0.41063 0.28324-0.00768
   2   4   5 2786.36  550.26   1-0.18298 0.66930 0.07237 0.38378 0.98044-0.63619
   2   4   6  527.06  233.50   1-0.18284 0.71226 0.07250 0.41325 0.98046-0.56735
   2   4   7 3008.04  705.45   1-0.17614 0.74865 0.07913 0.43622 0.98117-0.49921
  -2  -5  12  -71.55  165.95   1-0.64726 0.86824-0.47087 0.44114 0.59943 0.22703
  -2  -5  12  144.52  157.07   1 0.15532 0.06577-0.91612 0.88689 0.36957 0.45726
  -2  -5  11  331.55  168.06   1-0.67745 0.85524-0.52003 0.46065 0.52020 0.23740
  -2  -5  11  367.75  166.16   1 0.09757 0.08027-0.94714 0.88822 0.30560 0.45233
   2   5 -10  551.83  122.51   1 0.17942-0.31377 0.94413-0.85527-0.27641-0.41237
  -2  -5  10  359.32  166.00   1 0.03249 0.10178-0.97222 0.88366 0.23179 0.45691
  -2  -5   929851.84 1698.52   1-0.72217 0.81351-0.61495 0.49625 0.31668 0.30318
   2   5  -931502.08 1758.94   1 0.00918-0.10061 0.99009-0.87137-0.14012-0.48018
  -2  -5   929874.11 1695.66   1-0.04127 0.13234-0.98850 0.87029 0.14541 0.47441
  -2  -5   842446.92 1626.68   1-0.73098 0.77912-0.65696 0.50861 0.18456 0.36643
   2   5  -839269.79 1553.60   1-0.13358 0.08540 0.99084-0.84276-0.01959-0.53145
  -2  -5   841030.86 1576.04   1-0.12649 0.17436-0.99106 0.84318 0.04239 0.50856
  -2  -5   7  449.33  234.92   1-0.72336 0.72827-0.68995 0.51192 0.02660 0.45557
   2   5  -7  312.21   84.75   1-0.25247 0.24745 0.96394-0.78621 0.08406-0.56623
  -2  -5   7  439.10   57.24   1-0.22514 0.22997-0.97091 0.79341-0.08141 0.56356
  -2  -5   617379.72  942.24   1-0.69083 0.65250-0.70553 0.49783-0.15799 0.57131
   2   5  -615638.61  842.23   1-0.34760 0.38590 0.92207-0.71459 0.17015-0.58347
  -2  -5   615246.35  825.41   1-0.33691 0.29855-0.91324 0.70594-0.22906 0.64226
  -2  -5   541108.43 1043.49   1-0.62396 0.54241-0.69287 0.45565-0.36137 0.70580
   2   5  -542223.37 1067.48   1-0.42179 0.50327 0.87465-0.63752 0.23890-0.58333
  -2  -5   438990.56  993.36   1-0.51928 0.39451-0.64315 0.37629-0.56275 0.83830
   2   5  -437890.57  969.18   1-0.47666 0.60147 0.82927-0.56252 0.29170-0.56726
  -2  -5   3 6405.62  490.31   1-0.38727 0.21921-0.55904 0.26240-0.73313 0.93972
   2   5  -3 5619.61  425.59   1-0.51598 0.68400 0.79051-0.49415 0.32993-0.53660
  -2  -5   226463.52  724.45   1-0.25085 0.03963-0.45813 0.13190-0.85275 0.99046
   2   5  -224167.29  657.96   1-0.54166 0.75291 0.76178-0.43582 0.35535-0.49313
   2   5  -134117.51  896.46   1 0.13114 0.12307 0.36031-0.00457 0.92356-0.99238
   2   5  -133618.93  871.71   1-0.55572 0.81017 0.74477-0.38921 0.36943-0.43832
   2   5   052839.80 1029.97   1 0.03700 0.26041 0.27888 0.10644 0.95961-0.95961
   2   5   049415.86  826.72   1-0.55951 0.85718 0.74001-0.35484 0.37325-0.37325
   2   5   1 3243.71  480.72   1-0.03157 0.37208 0.21684 0.19795 0.97569-0.90684
   2   5   1 3101.11  309.55   1-0.55373 0.89461 0.74724-0.33246 0.36742-0.29854
   2   5   231377.28 1255.22   1-0.07882 0.46242 0.17292 0.27147 0.98177-0.84407
   2   5   227262.69 1061.65   1-0.53832 0.92242 0.76569-0.32131 0.35201-0.21424
   2   5   348412.78 2001.44   1-0.10939 0.53609 0.14395 0.33004 0.98351-0.77696
   2   5   349573.08 1906.37   1-0.51240 0.93971 0.79428-0.32029 0.32642-0.11975
   2   5   4 9818.05  986.21   1-0.12717 0.59696 0.12689 0.37670 0.98372-0.70832
   2   5   4 9534.52  779.12   1-0.47402 0.94455 0.83167-0.32807 0.28917-0.01361
   2   5   5  165.40  118.58   1-0.13507 0.64796 0.11926 0.41393 0.98363-0.63937
  -2  -6  12 4429.85  605.77   1-0.67241 0.86684-0.51140 0.40457 0.53509 0.29138
  -2  -6  12 3942.92  863.53   1 0.09201 0.10243-0.94969 0.84336 0.29935 0.52748
  -2  -6  11  213.40  165.50   1-0.69901 0.85024-0.55989 0.42341 0.44486 0.31274
  -2  -6  11  245.56   82.70   1 0.02733 0.12351-0.97378 0.83785 0.22583 0.53173
  -2  -6  10  664.46  262.42   1-0.71917 0.82715-0.60631 0.44015 0.33936 0.34938
   2   6 -10  282.94   94.92   1 0.00242-0.11052 0.99090-0.82468-0.13453-0.55468
  -2  -6  10  667.78  155.71   1-0.04428 0.15193-0.98890 0.82331 0.14182 0.54687
  -2  -6   9 1102.80  146.78   1-0.73018 0.79496-0.64827 0.45247 0.21578 0.40409
   2   6  -9 1346.23  233.65   1-0.13589 0.07104 0.99056-0.79508-0.01761-0.60232
  -2  -6   9 1632.37  297.17   1-0.12459 0.18903-0.99119 0.79594 0.04473 0.57509
  -2  -6   833074.57 1290.41   1-0.72739 0.74893-0.68251 0.45702 0.07124 0.47981
   2   6  -833031.28 1315.36   1-0.25018 0.22849 0.96471-0.73958 0.08203-0.63309
  -2  -6   833112.73 1312.84   1-0.21426 0.23570-0.97444 0.74957-0.06750 0.61853
  -2  -6   728412.90  775.10   1-0.70493 0.68327-0.70294 0.44781-0.09454 0.57671
   2   6  -729834.54  787.49   1-0.34173 0.36339 0.92523-0.67032 0.16478-0.64699
  -2  -6   727363.29  738.72   1-0.31258 0.29082-0.92938 0.67469-0.19631 0.67838
  -2  -6   6 4953.56  372.91   1-0.65596 0.59105-0.70213 0.41733-0.27696 0.69028
   2   6  -6 5216.23  363.26   1-0.41389 0.47873 0.88040-0.59584 0.23148-0.64480
  -2  -6   6 4996.80  356.42   1-0.41484 0.34987-0.84509 0.56076-0.33721 0.75041
  -2  -6   5101971.9 1553.26   1-0.57678 0.46864-0.67317 0.35887-0.46276 0.80720
   2   6  -5104077.4 1600.97   1-0.46828 0.57649 0.83680-0.52263 0.28365-0.62810
  -2  -6   449683.11  844.46   1-0.47136 0.31991-0.61453 0.27043-0.63257 0.90803
   2   6  -448821.49  837.59   1-0.50855 0.65997 0.79829-0.45450 0.32265-0.59821
  -2  -6   311090.11  667.16   1-0.35311 0.15851-0.53501 0.16133-0.76750 0.97408
   2   6  -3 9347.58  551.99   1-0.53636 0.73099 0.76796-0.39457 0.35006-0.55673
  -2  -6   211424.36  670.99   1-0.23872 0.00090-0.44860 0.04527-0.86125 0.99897
   2   6  -2 9864.99  570.57   1-0.55353 0.79138 0.74748-0.34449 0.36723-0.50501
   2   6  -1 4905.05  372.99   1 0.14035 0.14043 0.36805 0.06475 0.91914-0.98797
   2   6  -1 3916.47  291.12   1-0.56142 0.84248 0.73759-0.30499 0.37517-0.44406
   2   6   064166.46 1697.77   1 0.06222 0.26176 0.30110 0.16129 0.95155-0.95155
   2   6   057920.79 1432.18   1-0.56084 0.88511 0.73833-0.27612 0.37459-0.37459
   2   6   129452.23  889.60   1 0.00401 0.36317 0.24936 0.24261 0.96840-0.89957
   2   6   126142.07  742.17   1-0.55205 0.91954 0.74930-0.25749 0.36574-0.29685
   2   6   2 1198.81  204.02   1-0.03725 0.44742 0.21161 0.30982 0.97664-0.83893
   2   6   2 1288.80  154.31   1-0.53476 0.94546 0.76979-0.24837 0.34848-0.21070
   2   6   317638.73 1034.31   1-0.06457 0.51783 0.18627 0.36476 0.98037-0.77381
   2   6   319645.01  876.26   1-0.50797 0.96189 0.79888-0.24786 0.32208-0.11541
   2   6   416085.38 1679.58   1-0.08077 0.57713 0.17108 0.40954 0.98193-0.70653
   2   6   418089.42 1275.88   1-0.46980 0.96693 0.83545-0.25482 0.28511-0.00956
   2   6   5 1596.79  362.59   1-0.08803 0.62749 0.16423 0.44600 0.98248-0.63822
  -2  -7  1220658.34 1442.14   1-0.69263 0.86051-0.54747 0.36354 0.46960 0.35686
  -2  -7  1223498.43 1659.18   1 0.02977 0.13764-0.97305 0.78975 0.22865 0.59778
  -2  -7  11  574.03  160.53   1-0.71452 0.83914-0.59428 0.38067 0.36914 0.38847
  -2  -7  11  917.69  188.47   1-0.03946 0.16367-0.98826 0.77530 0.14756 0.61000
  -2  -7  10  590.17  156.68   1-0.72819 0.80961-0.63684 0.39358 0.25330 0.43544
   2   7 -10  876.83  155.39   1-0.12423 0.04271 0.99186-0.74898-0.02760-0.66121
  -2  -7  10  755.18  291.50   1-0.11537 0.19638-0.99173 0.74911 0.05604 0.63265
  -2  -7   9  342.57   98.17   1-0.73008 0.76826-0.67273 0.39978 0.11999 0.49994
   2   7  -9  379.35   62.63   1-0.23616 0.19781 0.96921-0.69667 0.06963-0.68957
  -2  -7   9  670.90  102.24   1-0.19805 0.23609-0.97906 0.70684-0.04690 0.66680
  -2  -7   823950.53  715.50   1-0.71598 0.71095-0.69743 0.39484-0.03087 0.58192
   2   7  -823517.17  679.04   1-0.32606 0.33109 0.93328-0.63095 0.15052-0.70162
  -2  -7   823021.80  714.31   1-0.28692 0.28178-0.94420 0.64231-0.16173 0.71275
  -2  -7   797644.67 3604.30   1-0.68081 0.63253-0.70563 0.37335-0.19640 0.67860
   2   7  -796747.63 3563.35   1-0.39766 0.44587 0.89166-0.55969 0.21632-0.69853
  -2  -7   790647.26 3336.49   1-0.37850 0.33013-0.88026 0.54855-0.28610 0.76818
  -2  -7   6  835.28  153.15   1-0.62118 0.52967-0.69188 0.33014-0.36798 0.78131
   2   7  -6 1113.31  195.99   1-0.45314 0.54453 0.85002-0.48840 0.26855-0.68187
  -2  -7   586038.03 2071.28   1-0.53814 0.40341-0.65356 0.26218-0.53221 0.87665
   2   7  -583952.63 2029.93   1-0.49427 0.62909 0.81263-0.42141 0.30873-0.65318
  -2  -7   475857.77 1890.44   1-0.43884 0.26080-0.59381 0.17260-0.67438 0.94983
   2   7  -464899.91 1628.11   1-0.52431 0.70233 0.78151-0.36069 0.33813-0.61369
  -2  -7   312000.55 1038.59   1-0.33514 0.11395-0.52198 0.07119-0.78435 0.99093
   2   7  -310120.50  862.22   1-0.54435 0.76559 0.75861-0.30818 0.35803-0.56469
  -2  -7   2  493.68  218.28   1-0.23846-0.02594-0.44840-0.03203-0.86143 0.99915
   2   7  -2  554.13  260.25   1-0.55569 0.82015 0.74480-0.26477 0.36940-0.50718
   2   7  -1  -87.75  159.14   1 0.15604 0.15131 0.38115 0.12872 0.91124-0.98006
   2   7  -1  166.87  163.37   1-0.55923 0.86690 0.74037-0.23073 0.37296-0.44185
   2   7   012331.17 1164.39   1 0.08993 0.26061 0.32518 0.21427 0.94136-0.94136
   2   7   011053.80  822.24   1-0.55539 0.90628 0.74517-0.20593 0.36910-0.36910
   2   7   141325.13 1728.49   1 0.03983 0.35391 0.28139 0.28765 0.95876-0.88994
   2   7   137563.07 1552.94   1-0.54420 0.93829 0.75879-0.18994 0.35788-0.28899
   2   7   2 3508.77  580.05   1 0.00379 0.43315 0.24917 0.34946 0.96845-0.83080
   2   7   2 2825.14  372.23   1-0.52515 0.96247 0.78058-0.18212 0.33897-0.20119
   2   7   3 3660.73  631.21   1-0.02065 0.50048 0.22684 0.40123 0.97371-0.76715
   2   7   3 4532.09  553.76   1-0.49721 0.97774 0.80974-0.18168 0.31159-0.10492
   2   7   4 6261.47 1157.41   1-0.03517 0.55810 0.21352 0.44414 0.97630-0.70089
  -2  -8  1236200.80 2470.94   1-0.70798 0.84931-0.57867 0.31764 0.40484 0.42163
  -2  -8  1240482.98 7477.21   1-0.02870 0.16949-0.98664 0.72631 0.16030 0.66613
  -2  -8  1128534.79 2015.23   1-0.72453 0.82258-0.62252 0.33181 0.29583 0.46178
  -2  -8  1127598.42 1958.97   1-0.10084 0.19843-0.99216 0.70216 0.07377 0.68380
  -2  -8  10   -8.40  155.86   1-0.73108 0.78593-0.66019 0.33984 0.17221 0.51653
   2   8 -10  146.31   67.23   1-0.21310 0.15807 0.97578-0.65583 0.04934-0.73816
  -2  -8  10  193.10   76.05   1-0.17802 0.23267-0.98378 0.66419-0.02164 0.71042
  -2  -8   9 2070.48  227.43   1-0.72407 0.73568-0.68890 0.33884 0.03346 0.58647
   2   8  -9 2597.55  211.92   1-0.30288 0.29128 0.94418-0.59442 0.12956-0.74954
  -2  -8   9 2151.09  303.74   1-0.25976 0.27123-0.95739 0.60815-0.12614 0.74604
  -2  -8   8 5734.08  478.10   1-0.70000 0.66835-0.70428 0.32453-0.11821 0.66930
   2   8  -8 5861.99  475.36   1-0.37502 0.40660 0.90620-0.52680 0.19533-0.74642
  -2  -8   8 5266.54  431.17   1-0.34357 0.31180-0.90844 0.52933-0.23810 0.78903
  -2  -8   748504.47 2703.49   1-0.65588 0.58102-0.70212 0.29274-0.27721 0.75941
   2   8  -748584.85 2707.75   1-0.43174 0.50650 0.86715-0.45811 0.24826-0.73047
  -2  -8   743955.11 2450.23   1-0.42563 0.35065-0.83335 0.42460-0.35264 0.83471
  -2  -8   672116.18 1834.58   1-0.59116 0.47306-0.67975 0.24092-0.43412 0.84744
   2   8  -672046.04 1840.39   1-0.47472 0.59292 0.83104-0.39240 0.28984-0.70317
  -2  -8   5  173.81  190.81   1-0.50973 0.34842-0.63770 0.16924-0.57749 0.92193
   2   8  -5 -108.16  153.70   1-0.50711 0.66853 0.79977-0.33152 0.32124-0.66569
  -2  -8   455757.41 1471.79   1-0.41922 0.21458-0.58084 0.08253-0.69775 0.97321
   2   8  -445893.27 1226.11   1-0.52992 0.73455 0.77528-0.27743 0.34368-0.61923
  -2  -8   370986.89 1847.01   1-0.32882 0.08104-0.51735-0.01054-0.79007 0.99665
   2   8  -360286.43 1574.21   1-0.54439 0.79224 0.75855-0.23109 0.35807-0.56474
  -2  -8   2 4969.20  367.28   1-0.24632-0.04467-0.45458-0.10295-0.85596 0.99368
   2   8  -2 4157.00  342.64   1-0.55145 0.84251 0.75005-0.19298 0.36513-0.50291
  -2  -8   1  644.67  146.32   1-0.17604-0.15818-0.39812-0.18906-0.90028 0.96914
   2   8  -1  860.72  220.88   1-0.55163 0.88591 0.74982-0.16315 0.36532-0.43421
   2   8   0  267.79  160.10   1 0.11952 0.25759 0.35049 0.26603 0.92890-0.92890
   2   8   0  687.33  223.36   1-0.54514 0.92263 0.75767-0.14139 0.35882-0.35882
   2   8   1 6909.51  942.58   1 0.07603 0.34429 0.31314 0.33297 0.94665-0.87783
   2   8   1 7031.29  508.85   1-0.53179 0.95250 0.77317-0.12728 0.34553-0.27665
   2   8   2 4292.35  888.41   1 0.04436 0.41915 0.28540 0.39030 0.95738-0.81973
   2   8   2 6228.33  722.36   1-0.51099 0.97491 0.79575-0.12026 0.32504-0.18726
   2   8   3  675.88  228.30   1 0.02292 0.48379 0.26634 0.43894 0.96360-0.75714
   2   8   3  679.33  253.03   1-0.48161 0.98874 0.82470-0.11961 0.29648-0.08981
  -2  -9  1213470.07 1468.34   1-0.71871 0.83340-0.60506 0.26690 0.34255 0.48393
  -2  -9  1212320.45 1539.35   1-0.08219 0.19634-0.99194 0.65457 0.09639 0.73005
  -2  -9  1136242.92 2086.89   1-0.72970 0.80118-0.64490 0.27710 0.22723 0.53038
   2   9 -1132677.80 1852.22   1-0.18238 0.11069 0.98296-0.61561 0.02253-0.78023
  -2  -9  1134890.55 2078.14   1-0.15497 0.22623-0.98789 0.62094 0.00715 0.75050
  -2  -9  10 5811.80  458.40   1-0.72913 0.75737-0.67720 0.27968 0.09877 0.59004
   2   9 -10 4147.46  423.63   1-0.27382 0.24530 0.95624-0.55923 0.10306-0.79188
  -2  -9  10 3800.39  539.43   1-0.23126 0.25933-0.96878 0.57218-0.08926 0.77804
  -2  -9   9  392.61  262.04   1-0.71439 0.69942-0.69853 0.27137-0.04124 0.66118
   2   9  -9  579.83  216.23   1-0.34697 0.36192 0.92241-0.49558 0.16957-0.78955
  -2  -9   9  175.65  168.49   1-0.30913 0.29397-0.93149 0.50499-0.19170 0.81151
  -2  -9   8  247.37  181.11   1-0.68278 0.62455-0.70569 0.24885-0.18918 0.74027
   2   9  -8  578.01  190.74   1-0.40554 0.46367 0.88628-0.42981 0.22367-0.77477
  -2  -9   8  223.36  121.28   1-0.38609 0.32771-0.87344 0.41731-0.29667 0.84761
  -2  -9   710185.08  768.19   1-0.63342 0.53198-0.69597 0.20948-0.33822 0.82042
   2   9  -7 9731.25  747.09   1-0.45134 0.55264 0.85152-0.36540 0.26683-0.74904
  -2  -9   664968.50 2511.77   1-0.56786 0.42317-0.66888 0.15297-0.47971 0.89303
   2   9  -662836.14 2438.03   1-0.48562 0.63043 0.82094-0.30527 0.30035-0.71369
  -2  -9   521070.57  918.62   1-0.49103 0.30299-0.62655 0.08076-0.60524 0.94956
   2   9  -518176.26  804.26   1-0.51118 0.69921 0.79556-0.25027 0.32522-0.66967
  -2  -9   4 6140.91  514.95   1-0.40986 0.17862-0.57453-0.00087-0.70846 0.98391
   2   9  -4 3835.84  354.48   1-0.52862 0.75986 0.77674-0.20185 0.34239-0.61795
  -2  -9   338601.87 1640.42   1-0.33102 0.05664-0.51896-0.08603-0.78810 0.99468
   2   9  -331385.17 1337.75   1-0.53886 0.81331 0.76507-0.16057 0.35255-0.55922
  -2  -9   213522.30 1164.89   1-0.25997-0.05762-0.46524-0.16939-0.84614 0.98386
   2   9  -210381.15  892.25   1-0.54252 0.86019 0.76078-0.12668 0.35620-0.49398
  -2  -9   1 3631.50  541.68   1-0.19949-0.16132-0.41725-0.24703-0.88662 0.95548
   2   9  -1 2901.44  394.35   1-0.53992 0.90081 0.76382-0.10012 0.35361-0.42250
   2   9   0 1189.32  293.59   1 0.15060 0.25309 0.37662 0.31697 0.91404-0.91404
   2   9   1 1007.97  316.08   1 0.11264 0.33424 0.34464 0.37853 0.93194-0.86312
   2   9   1  631.87  237.38   1-0.51569 0.96301 0.79081-0.06789 0.32965-0.26076
   2   9   2   -0.94  160.33   1 0.08483 0.40524 0.32078 0.43199 0.94334-0.80570
   2   9   2  148.00  130.86   1-0.49304 0.98357 0.81382-0.06130 0.30754-0.16976
  -2 -10  1112130.78  886.30   1-0.73109 0.77601-0.66192 0.21703 0.16542 0.59220
   2  10 -1112253.27  880.29   1-0.23854 0.19335 0.96847-0.52406 0.07173-0.82943
  -2 -10  1112050.86  883.22   1-0.20136 0.24603-0.97818 0.53421-0.05109 0.80875
  -2 -10  1017653.10 1069.61   1-0.72425 0.72591-0.68863 0.21401 0.03518 0.65363
   2  10 -1018075.64 1074.65   1-0.31401 0.31232 0.93909-0.46484 0.13960-0.82847
  -2 -10  1016975.52 1027.80   1-0.27473 0.27623-0.95041 0.47679-0.14570 0.83448
  -2 -10   9 5794.85  701.13   1-0.70326 0.66172-0.70344 0.19919-0.10286 0.72280
   2  10  -9 5892.08  714.61   1-0.37498 0.41647 0.90622-0.40233 0.19529-0.81527
  -2 -10   9 5140.72  619.47   1-0.34738 0.30560-0.90561 0.40209-0.24328 0.86309
  -2 -10   8 6723.90  431.96   1-0.66673 0.58192-0.70417 0.17022-0.24413 0.79522
   2  10  -8 4920.53  592.96   1-0.42332 0.50799 0.87351-0.33997 0.24033-0.79142
  -2 -10   8 4750.51  601.47   1-0.41684 0.33186-0.84296 0.30980-0.34006 0.89100
  -2 -10   715646.42  765.79   1-0.61521 0.48715-0.68967 0.12632-0.38191 0.86413
   2  10  -715003.37  731.58   1-0.46027 0.58848 0.84378-0.28067 0.27599-0.75822
  -2 -10   6 2901.91  385.81   1-0.55167 0.38040-0.66072 0.06773-0.50901 0.92233
   2  10  -6 2286.45  297.31   1-0.48863 0.66006 0.81808-0.22537 0.30327-0.71660
  -2 -10   5 2139.06  308.30   1-0.48086 0.26623-0.62038-0.00250-0.61958 0.96390
   2  10  -5 2235.76  288.30   1-0.50897 0.72361 0.79785-0.17553 0.32306-0.66751
  -2 -10   4 1347.96  280.59   1-0.40851 0.15068-0.57362-0.07889-0.70997 0.98542
   2  10  -4 1615.47  325.57   1-0.52222 0.78007 0.78379-0.13187 0.33607-0.61163
  -2 -10   3 6267.73  501.20   1-0.33957 0.03860-0.52521-0.15689-0.78028 0.98686
   2  10  -3 4660.30  383.50   1-0.52905 0.83011 0.77626-0.09473 0.34281-0.54948
  -2 -10   228309.52 2010.98   1-0.27794-0.06625-0.47911-0.23263-0.83258 0.97030
   2  10  -223830.15 1695.51   1-0.52986 0.87414 0.77534-0.06421 0.34362-0.48140
  -2 -10   1  425.96  343.11   1-0.22547-0.16193-0.43811-0.30328-0.87018 0.93904
   2  10  -1  382.55  238.35   1-0.52481 0.91230 0.78095-0.04021 0.33863-0.40752
  -2 -10   011170.49 1297.25   1-0.18281-0.24782-0.40367-0.36736-0.89645 0.89645
   2  10   0 9016.85 1008.70   1-0.51378 0.94448 0.79283-0.02249 0.32777-0.32777
  -2 -11  1110123.44 1033.69   1-0.72976 0.74805-0.67449 0.15241 0.11181 0.64589
   2  11 -11 8976.76 1207.52   1-0.27671 0.25802 0.95512-0.43365 0.10564-0.86334
  -2 -11  11 6850.61 1066.51   1-0.23969 0.25779-0.96567 0.44468-0.10013 0.85778
  -2 -11  1034217.30 3308.67   1-0.71791 0.69300-0.69591 0.14419-0.01754 0.70636
   2  11 -1028359.77 2999.59   1-0.34018 0.36504 0.92605-0.37473 0.16337-0.85224
  -2 -11  1029010.92 3073.33   1-0.30891 0.28373-0.93163 0.38071-0.19141 0.88008
  -2 -11   9 1760.81  453.35   1-0.69245 0.62428-0.70540 0.12399-0.15132 0.77129
   2  11  -9 1750.86  430.23   1-0.39144 0.45947 0.89579-0.31482 0.21054-0.83052
  -2 -11   9 1016.85  278.98   1-0.37593 0.30754-0.88252 0.30196-0.28254 0.90234
  -2 -11   8 5230.01  614.17   1-0.65340 0.54202-0.70155 0.09050-0.28438 0.83547
   2  11  -8 5176.50  621.29   1-0.43192 0.54313 0.86701-0.25640 0.24844-0.79953
  -2 -11   7 4271.09  538.57   1-0.60215 0.44750-0.68446 0.04404-0.41098 0.89319
   2  11  -7 3334.70  465.82   1-0.46254 0.61735 0.84183-0.20169 0.27816-0.76038
  -2 -11   6  898.97  302.33   1-0.54217 0.34430-0.65572-0.01433-0.52542 0.93874
   2  11  -6  749.96  276.27   1-0.48578 0.68381 0.82079-0.15104 0.30051-0.71384
  -2 -11   5 4750.96  619.04   1-0.47775 0.23653-0.61848-0.08151-0.62388 0.96819
  -2 -11   4 3145.63  496.53   1-0.41347 0.12905-0.57698-0.15264-0.70436 0.97981
   2  11  -4 3136.51  475.47   1-0.51178 0.79623 0.79493-0.06597 0.32581-0.60137
  -2 -11   3  765.18  271.97   1-0.35299 0.02543-0.53493-0.22427-0.76761 0.97419
   2  11  -3  654.85  243.42   1-0.51571 0.84338 0.79079-0.03222 0.32967-0.53634
  -2 -11   219173.98 2071.57   1-0.29924-0.07153-0.49531-0.29354-0.81554 0.95326
   2  11  -215057.75 1630.94   1-0.51400 0.88489 0.79259-0.00443 0.32799-0.46577
  -2 -11   113526.13 1414.62   1-0.25350-0.16050-0.46020-0.35829-0.85084 0.91970
   2  11  -110274.11 1063.32   1-0.50667 0.92077 0.80022 0.01755 0.32081-0.38970
  -2 -12   910871.80 1108.85   1-0.68335 0.58860-0.70571 0.04718-0.18706 0.80704
   2  12  -910396.22 1062.81   1-0.39932 0.49390 0.89054-0.23251 0.21787-0.83785
  -2 -12   9 9664.91  984.19   1-0.39641 0.30141-0.86374 0.20616-0.31113 0.93093
  -2 -12   8  804.13  252.21   1-0.64363 0.50567-0.69904 0.01088-0.31156 0.86265
   2  12  -8 1106.98  314.65   1-0.43363 0.57138 0.86570-0.17802 0.25004-0.80114
  -2 -12   7 3565.36  573.34   1-0.59422 0.41298-0.68109-0.03641-0.42779 0.91000
   2  12  -7 4004.72  614.79   1-0.45919 0.64062 0.84470-0.12753 0.27496-0.75719
  -2 -12   6 1141.61  365.63   1-0.53859 0.31413-0.65381-0.09332-0.53145 0.94477
   2  12  -6  512.01  270.07   1-0.47830 0.70293 0.82777-0.08099 0.29328-0.70662
  -2 -12   5 1190.46  391.55   1-0.48047 0.21265-0.62015-0.15694-0.62012 0.96443
   2  12  -5   78.28  191.39   1-0.49103 0.75888 0.81578-0.03939 0.30558-0.65003
  -2 -12   4 7064.40  863.83   1-0.42344 0.11242-0.58366-0.22306-0.69284 0.96829
   2  12  -4 5980.89  736.00   1-0.49791 0.80897 0.80905-0.00306 0.31227-0.58783
  -3  12  -1 4424.64  673.38   1-0.68895 0.71799 0.51240 0.38252 0.51263-0.58151
  -3  12  -2 1967.39  397.30   1-0.68832 0.67415 0.51396 0.35135 0.51190-0.64966
  -3  12  -311627.00  879.63   1-0.68434 0.62694 0.52380 0.31191 0.50724-0.71389
  -3  12  -5 2671.25  469.46   1-0.66411 0.52028 0.56969 0.20682 0.48415-0.82857
  -3  12  -6 5751.85  804.31   1-0.64590 0.45885 0.60622 0.14069 0.46400-0.87730
  -3  12  -7 1267.72  227.46   1-0.62020 0.38994 0.65188 0.06542 0.43633-0.91851
   3 -12   7 1109.36  300.23   1-0.38268 0.61272-0.87654 0.15968-0.29192 0.77399
  -3  12  -814805.31 1467.18   1-0.58478 0.31139 0.70628-0.01871 0.39897-0.95009
   3 -12   816325.45 1638.76   1-0.32625 0.59950-0.92058 0.23336-0.21465 0.76559
  -3  11   1  771.58  234.47   1 0.13094-0.04235 0.36015 0.51716 0.92365-0.85483
  -3  11   1  735.34  296.05   1-0.70281 0.79169 0.47541 0.40167 0.52918-0.46030
   3 -11   0 7132.67  836.15   1-0.19641 0.15092-0.41476-0.43338-0.88847 0.88847
  -3  11   0 5949.33  714.25   1-0.70698 0.75278 0.46323 0.38436 0.53439-0.53439
   3 -11   111312.19  852.66   1-0.28071 0.27844-0.48123-0.33726-0.83042 0.89928
  -3  11  -1 9782.72 2051.58   1-0.70831 0.71089 0.45928 0.35871 0.53604-0.60493
  -3  11  -2  584.18  220.63   1-0.70665 0.66602 0.46419 0.32421 0.53399-0.67178
  -3  11  -310854.20  703.86   1-0.70180 0.61781 0.47824 0.28043 0.52796-0.73461
  -3  11  -4  403.58  205.93   1-0.69289 0.56569 0.50229 0.22677 0.51728-0.79282
  -3  11  -5 1926.82  356.23   1-0.67899 0.50856 0.53657 0.16290 0.50105-0.84547
  -3  11  -6 4066.34  521.98   1-0.65852 0.44487 0.58133 0.08853 0.47790-0.89120
   3 -11   6 2970.79  408.58   1-0.41856 0.63200-0.84112 0.17164-0.34251 0.75571
  -3  11  -7 5221.06  611.82   1-0.62919 0.37232 0.63661 0.00365 0.44591-0.92809
   3 -11   7 5263.84  627.82   1-0.36094 0.61759-0.89506 0.25523-0.26185 0.74392
  -3  11  -8  972.58  265.83   1-0.58789 0.28789 0.70188-0.09134 0.40217-0.95329
   3 -11   8  529.60  255.45   1-0.29993 0.59980-0.93692 0.32673-0.17946 0.73040
   3 -11   9 1765.58  358.88   1-0.23724 0.58039-0.96659 0.38630-0.09697 0.71687
  -3  10   3 3158.85  984.48   1-0.01118 0.15923 0.23547 0.62371 0.97181-0.76526
  -3  10   3 4058.26  594.85   1-0.70765 0.85650 0.46125 0.39806 0.53522-0.32854
  -3  10   2  195.70   89.21   1 0.02694 0.07827 0.26994 0.55989 0.96249-0.82485
  -3  10   2  151.12  180.85   1-0.71659 0.82222 0.43351 0.39621 0.54640-0.40861
  -3  10   1 7049.36  901.11   1 0.08154-0.01952 0.31793 0.48231 0.94459-0.87577
  -3  10   1 7062.42  868.63   1-0.72235 0.78476 0.41412 0.38600 0.55381-0.48491
  -3  10   0 1676.25  268.66   1 0.15674-0.13791 0.38173 0.38893 0.91088-0.91088
  -3  10   0 1308.75  272.94   1-0.72532 0.74451 0.40358 0.36696 0.55770-0.55770
   3 -10   1 7389.83  626.69   1-0.25526 0.27959-0.46157-0.27981-0.84957 0.91843
  -3  10  -1 7593.67  705.39   1-0.72563 0.70161 0.40243 0.33851 0.55811-0.62701
   3 -10   214012.35 1121.97   1-0.37731 0.44482-0.55207-0.15970-0.74353 0.88126
  -3  10  -214345.03  731.13   1-0.72315 0.65591 0.41132 0.30003 0.55485-0.69264
   3 -10   3 6889.71  573.15   1-0.51139 0.62211-0.63852-0.04362-0.57512 0.78171
  -3  10  -3 7769.52  685.59   1-0.71739 0.60694 0.43089 0.25087 0.54742-0.75411
  -3  10  -460276.86 2574.43   1-0.70747 0.55380 0.46178 0.19039 0.53500-0.81058
  -3  10  -5  654.62  244.05   1-0.69211 0.49509 0.50432 0.11810 0.51636-0.86077
  -3  10  -6 1615.09  267.11   1-0.66890 0.42866 0.55938 0.03344 0.48954-0.90284
   3 -10   6 1354.87  278.86   1-0.39521 0.63525-0.86490 0.27245-0.30944 0.72264
  -3  10  -7 2709.92  407.01   1-0.63477 0.35131 0.62676-0.06353 0.45191-0.93409
   3 -10   7 3010.22  304.24   1-0.33197 0.61523-0.91670 0.35389-0.22237 0.70444
  -3  10  -8  381.34  186.83   1-0.58518 0.25858 0.70571-0.17221 0.39939-0.95051
   3 -10   8  690.92  206.79   1-0.26657 0.59311-0.95431 0.42137-0.13501 0.68604
   3 -10   918737.96 1333.67   1-0.20061 0.57034-0.97838 0.47510-0.05015 0.67005
  -3   9   4 4711.14  932.49   1-0.09727 0.26186 0.15548 0.65626 0.98303-0.70763
  -3   9   4 5276.21  728.92   1-0.71770 0.88316 0.42988 0.38197 0.54781-0.27223
  -3   9   3 6427.33 1235.36   1-0.07149 0.19298 0.17979 0.60235 0.98110-0.77454
  -3   9   3 8099.11  946.21   1-0.72806 0.85031 0.39344 0.38881 0.56134-0.35466
  -3   9   2  705.37  219.28   1-0.73505 0.81408 0.36576 0.38690 0.57088-0.43309
  -3   9   1 1698.82  343.14   1 0.03009 0.00535 0.27274 0.45043 0.96161-0.89279
  -3   9   1 3007.94  436.25   1-0.73929 0.77510 0.34736 0.37572 0.57687-0.50797
  -3   9   0  284.70  155.12   1 0.11675-0.12449 0.34814 0.34545 0.93014-0.93014
  -3   9   0  401.17  203.83   1-0.74114 0.73373 0.33887 0.35461 0.57954-0.57954
   3  -9   119655.74  811.23   1-0.23443 0.28535-0.44521-0.21907-0.86418 0.93304
  -3   9  -116665.21  768.98   1-0.74067 0.69005 0.34104 0.32284 0.57886-0.64776
   3  -9   234858.74 1937.94   1-0.38307 0.47718-0.55611-0.07856-0.73755 0.87528
  -3   9  -232595.48 1871.66   1-0.73763 0.64379 0.35473 0.27957 0.57450-0.71229
   3  -9   311399.63  817.76   1-0.54249 0.67988-0.65590 0.05109-0.52487 0.73153
  -3   9  -311403.51  887.69   1-0.73134 0.59429 0.38082 0.22388 0.56577-0.77245
   3  -9   419076.21  744.55   1-0.66971 0.85037-0.70461 0.12922-0.23452 0.51006
  -3   9  -421325.63  913.44   1-0.72057 0.54030 0.42023 0.15488 0.55151-0.82709
   3  -9   530422.98 1164.93   1-0.72710 0.95097-0.68320 0.13749 0.06740 0.27700
  -3   9  -531873.36 1293.63   1-0.70347 0.47985 0.47353 0.07184 0.52998-0.87440
   3  -9   530560.66 1250.93   1-0.42930 0.65275-0.82920 0.28414-0.35792 0.70226
  -3   9  -620328.91  890.55   1-0.67673 0.40989 0.54181-0.02603 0.49846-0.91176
   3  -9   620383.57  903.15   1-0.36345 0.63010-0.89303 0.37762-0.26529 0.67850
  -3   9  -7 4634.19  565.59   1-0.63581 0.32576 0.62489-0.13871 0.45303-0.93522
   3  -9   7 4202.18  599.71   1-0.29461 0.60448-0.93993 0.45415-0.17240 0.65447
  -3   9  -8  670.55  115.65   1-0.57361 0.22041 0.72163-0.26517 0.38755-0.93866
   3  -9   8 1291.52  286.17   1-0.22530 0.57843-0.97086 0.51494-0.08162 0.63265
   3  -9   9 2108.45  433.12   1-0.15708 0.55339-0.98757 0.56131 0.00453 0.61536
   3  -9  1023102.53 2258.38   1-0.09126 0.53052-0.99215 0.59546 0.08540 0.60329
  -3   8   5 9064.12  947.52   1-0.17471 0.35582 0.08054 0.68376 0.98131-0.63706
  -3   8   511000.49  828.33   1-0.72551 0.90759 0.40287 0.36151 0.55795-0.21348
  -3   8   4  197.12  139.87   1-0.16110 0.29912 0.09393 0.64078 0.98245-0.70705
  -3   8   4  590.44  236.25   1-0.73728 0.87614 0.35625 0.37854 0.57401-0.29843
  -3   8   322911.87 1079.49   1-0.13510 0.23002 0.11924 0.58586 0.98363-0.77707
  -3   8   322689.43 1040.67   1-0.74523 0.84088 0.31881 0.38639 0.58564-0.37895
  -3   8   215585.40 1483.60   1-0.09198 0.14380 0.16050 0.51500 0.98273-0.84503
  -3   8   216508.11  751.28   1-0.75030 0.80273 0.29106 0.38455 0.59356-0.45577
  -3   8   1 6576.94  692.16   1-0.02470 0.03343 0.22314 0.42276 0.97447-0.90562
  -3   8   1 6844.62  583.53   1-0.75313 0.76234 0.27369 0.37233 0.59823-0.52933
  -3   8   0  -15.97   86.77   1 0.07640-0.11071 0.31347 0.30305 0.94651-0.94651
  -3   8   0  236.75  197.99   1-0.75406 0.72006 0.26755 0.34887 0.59982-0.59982
   3  -8   1  695.51  189.72   1-0.22068 0.29820-0.43429-0.15289-0.87331 0.94217
  -3   8  -1  489.11  261.93   1-0.75313 0.67591 0.27367 0.31316 0.59823-0.66713
   3  -8   2 6348.27  393.13   1-0.42205 0.54273-0.18077-0.37669 0.88836-0.75069
   3  -8   2 6915.18  434.21   1-0.40722 0.52792-0.57274 0.01517-0.71142 0.84915
  -3   8  -2 5807.58  763.14   1-0.74994 0.62950 0.29321 0.26403 0.59297-0.73076
   3  -8   3207820.3 8231.16   1-0.30422 0.46803-0.05191-0.47583 0.95118-0.74466
   3  -8   3220737.3 8743.02   1-0.59516 0.75914-0.68150 0.15377-0.42583 0.63249
  -3   8  -3239573.3 9548.13   1-0.74351 0.57986 0.32746 0.20019 0.58305-0.78973
   3  -8   422929.72  597.58   1-0.71003 0.91727-0.70094 0.20269-0.06728 0.34281
  -3   8  -421959.50  693.62   1-0.73211 0.52524 0.37777 0.12029 0.56682-0.84240
   3  -8   589034.64 2160.00   1-0.72902 0.97950-0.64096 0.17241 0.24019 0.10417
  -3   8  -586357.58 2175.36   1-0.71286 0.46277 0.44540 0.02307 0.54170-0.88617
   3  -8   578602.27 1993.70   1-0.39465 0.64471-0.86542 0.39740-0.30866 0.65300
   3  -8   620221.25  793.01   1-0.69845 0.99221-0.55879 0.11987 0.44711-0.03387
  -3   8  -619136.22  802.05   1-0.68134 0.38790 0.53102-0.09228 0.50376-0.91706
   3  -8   618554.79  817.66   1-0.32162 0.61489-0.92363 0.48525-0.20843 0.62164
   3  -8   7 4380.72  187.77   1-0.65545 0.99240-0.48369 0.07442 0.58001-0.09790
  -3   8  -7 3718.31  201.36   1-0.62992 0.29327 0.63533-0.22619 0.44670-0.92888
   3  -8   7 4217.39  555.52   1-0.24797 0.58449-0.96240 0.55385-0.11082 0.59297
   3  -8   8 3602.62  548.82   1-0.17589 0.55559-0.98422 0.60532-0.01897 0.56999
   3  -8   9 2675.17  395.92   1-0.10696 0.52964-0.99204 0.64273 0.06632 0.55351
   3  -8  10 2794.80  663.75   1-0.04137 0.50726-0.98852 0.66886 0.14528 0.54341
  -3   7   7  -32.86  150.86   1-0.23721 0.47878 0.01760 0.72885 0.97129-0.48942
  -3   7   6 1016.07  315.07   1-0.24191 0.44027 0.01282 0.70406 0.97021-0.55718
  -3   7   5 8721.50 1192.74   1-0.23950 0.39467 0.01527 0.67203 0.97077-0.62658
  -3   7   5 9050.38  620.68   1-0.74439 0.89987 0.32309 0.36424 0.58436-0.23989
  -3   7   424457.99 1452.45   1-0.22767 0.33965 0.02730 0.63042 0.97335-0.69799
  -3   7   421847.23  994.98   1-0.75306 0.86532 0.27411 0.38363 0.59811-0.32254
  -3   7   314897.15 1409.78   1-0.20265 0.27143 0.05249 0.57565 0.97784-0.77132
  -3   7   313938.85 1011.83   1-0.75845 0.82750 0.23526 0.39289 0.60777-0.40109
  -3   7   254750.25 1415.18   1-0.15876 0.18402 0.09622 0.50225 0.98261-0.84491
  -3   7   254467.32 1458.66   1-0.76148 0.78722 0.20708 0.39158 0.61420-0.47639
  -3   7   112613.79  800.48   1-0.08474 0.06691 0.16734 0.40153 0.98224-0.91339
  -3   7   111583.16  743.25   1-0.76298 0.74551 0.19075 0.37832 0.61762-0.54871
  -3   7   013813.70 1143.57   1 0.03501-0.09589 0.27711 0.26234 0.96019-0.96019
  -3   7   016095.49  531.16   1-0.76328 0.70258 0.18728 0.35219 0.61832-0.61832
   3  -7   1  422.54   63.47   1-0.48717 0.59122-0.25699-0.25298 0.83463-0.76580
   3  -7   1  357.45   86.71   1-0.21915 0.32326-0.43307-0.07701-0.87430 0.94316
  -3   7  -1 1035.74  195.44   1-0.76234 0.65843 0.19810 0.31178 0.61611-0.68502
   3  -7   2  631.83   74.66   1-0.38497 0.53222-0.13902-0.34136 0.91239-0.77472
   3  -7   2  495.82   80.00   1-0.46259 0.60988-0.60904 0.12857-0.64425 0.78198
  -3   7  -2  286.35  100.42   1-0.75959 0.61247 0.22489 0.25539 0.61027-0.74809
   3  -7   348888.99 1171.49   1-0.20840 0.39879 0.04674-0.49742 0.97692-0.77040
   3  -7   347388.93 1137.58   1-0.66898 0.85958-0.70451 0.25369-0.23690 0.44356
  -3   7  -347959.05 1240.54   1-0.75377 0.56351 0.26950 0.18109 0.59932-0.80600
   3  -7   4158832.619347.81   1 0.04380 0.18987 0.28490-0.70601 0.95755-0.68227
   3  -7   4154196.118783.80   1-0.73109 0.96493-0.66101 0.23992 0.16899 0.10650
  -3   7  -4153561.6 3607.35   1-0.74213 0.50865 0.33418 0.08682 0.58099-0.85657
   3  -7   4146132.9 3440.39   1-0.42597 0.65942-0.83297 0.41233-0.35312 0.62859
   3  -7   5 1133.82  159.35   1-0.70362 0.98073-0.56932 0.17786 0.42517-0.08081
  -3   7  -5 1158.97  164.63   1-0.28412 0.00712-0.48384 0.87534-0.82775 0.48345
  -3   7  -5 1546.96  268.16   1-0.72035 0.44366 0.42098-0.02956 0.55122-0.89570
   3  -7   5 1717.87  275.38   1-0.34759 0.62425-0.90545 0.51445-0.24357 0.58791
   3  -7   645538.41 1137.15   1-0.65884 0.97914-0.48908 0.12727 0.57159-0.15835
  -3   7  -644149.34 1141.17   1-0.68123 0.36120 0.53129-0.16960 0.50363-0.91693
   3  -7   646711.34 1251.51   1-0.26833 0.58824-0.95348 0.59229-0.13732 0.55058
   3  -7   715462.98 1058.14   1-0.61558 0.97894-0.42352 0.09135 0.66459-0.18253
  -3   7  -714908.14 1025.00   1-0.61149 0.24825 0.66605-0.33396 0.42712-0.90930
   3  -7   718019.66  812.46   1-0.19139 0.55449-0.98075 0.64922-0.03848 0.52062
   3  -7   8   14.10   81.67   1-0.57495 0.98150-0.36761 0.06507 0.73095-0.18003
   3  -7   8  376.93  132.76   1-0.11870 0.52481-0.99156 0.68962 0.05197 0.49899
   3  -7   9  243.63  150.95   1-0.05048 0.49980-0.98963 0.71735 0.13444 0.48539
   3  -7  10  895.33  277.03   1 0.01312 0.47939-0.97775 0.73512 0.20936 0.47934
  -3   6   7  179.21   96.22   1-0.29962 0.51460-0.04705 0.71646 0.95289-0.47102
  -3   6   7  283.80  163.02   1-0.73435 0.94966 0.36870 0.30076 0.56990-0.08763
  -3   6   6 2473.55  539.22   1-0.30686 0.47864-0.05470 0.69452 0.95017-0.53714
  -3   6   6 2237.23  339.44   1-0.74953 0.92163 0.29553 0.34433 0.59232-0.17895
  -3   6   514350.30 1201.09   1-0.30741 0.43600-0.05528 0.66553 0.94996-0.60577
  -3   6   514137.22  652.21   1-0.75875 0.88763 0.23282 0.37746 0.60834-0.26387
  -3   6   438354.23 2252.49   1-0.29878 0.38417-0.04617 0.62684 0.95320-0.67784
  -3   6   439004.30 2194.07   1-0.76381 0.84938 0.18054 0.40024 0.61966-0.34402
  -3   6   3  308.47  129.19   1-0.27663 0.31883-0.02297 0.57406 0.96069-0.75418
  -3   6   3  866.98  249.89   1-0.76629 0.80864 0.13965 0.41153 0.62712-0.42040
  -3   6   289727.15 2143.38   1-0.23307 0.23207 0.02182 0.49969 0.97221-0.83453
  -3   6   286713.72 2103.45   1-0.76723 0.76637 0.11082 0.41077 0.63171-0.49389
  -3   6   127755.03  729.73   1-0.15359 0.10919 0.10127 0.39055 0.98293-0.91407
  -3   6   131861.21  871.49   1-0.76747 0.72339 0.09525 0.39675 0.63396-0.56505
  -3   6   020247.64 1055.89   1-0.00867-0.07881 0.23775 0.22448 0.97128-0.97128
   3  -6   022915.38 1187.71   1-0.55790 0.64547-0.34518-0.11733 0.75471-0.75471
  -3   6   020347.05 1109.72   1-0.76747 0.68018 0.09456 0.36784 0.63406-0.63406
   3  -6   1 4447.19  253.19   1-0.48575 0.61638-0.25528-0.17761 0.83598-0.76715
   3  -6   1 4533.79  270.68   1-0.24227 0.37298-0.45140 0.01842-0.85879 0.92765
  -3   6  -1 3700.26  273.87   1-0.76723 0.63673 0.11080 0.32201 0.63172-0.70062
   3  -6   2 7657.46  408.89   1-0.33863 0.51242-0.08865-0.31454 0.93672-0.79905
   3  -6   2 7595.19  404.87   1-0.57170 0.74564-0.67074 0.26753-0.47250 0.61028
  -3   6  -2 7142.99  450.28   1-0.76596 0.59225 0.14653 0.25669 0.62595-0.76377
   3  -6   347407.66  707.31   1-0.03679 0.25357 0.21203-0.58547 0.97656-0.77001
   3  -6   343912.59  649.70   1-0.72897 0.94615-0.67781 0.30412 0.09573 0.11091
  -3   6  -344289.11  779.00   1-0.76170 0.54477 0.20483 0.16879 0.61469-0.82141
   3  -6   4133952.4 3148.91   1-0.70188 0.96233-0.56571 0.22170 0.43281-0.15732
  -3   6  -4130207.8 3063.59   1-0.30420 0.04383-0.49904 0.84308-0.81142 0.53598
  -3   6  -4139114.7 3327.50   1-0.75063 0.49056 0.28911 0.05483 0.59409-0.86967
   3  -6   4135385.7 3253.08   1-0.37258 0.63264-0.88541 0.54180-0.27789 0.55336
   3  -6   5  245.20   55.39   1-0.65226 0.95591-0.47865 0.16429 0.58774-0.24338
  -3   6  -5  260.76   81.44   1-0.50551 0.20201-0.63511 0.94959-0.58401 0.23970
  -3   6  -5  201.07  153.98   1-0.72532 0.42203 0.40356-0.08920 0.55770-0.90218
   3  -6   5  453.47  108.03   1-0.28589 0.58919-0.94474 0.63091-0.16037 0.50476
   3  -6   634567.10  881.68   1-0.60938 0.95611-0.41472 0.13000 0.67576-0.26257
  -3   6  -631122.72  808.03   1-0.67257 0.32595 0.55125-0.26660 0.49371-0.90701
   3  -6   634620.74 1308.49   1-0.20271 0.54921-0.97781 0.69363-0.05281 0.46608
   3  -6   735309.30 1361.39   1-0.57119 0.96112-0.36262 0.10754 0.73636-0.25431
  -3   6  -731676.33 1209.28   1-0.56433 0.17452 0.73385-0.47888 0.37812-0.86035
   3  -6   738820.26 1555.04   1-0.12547 0.51501-0.99113 0.73656 0.04364 0.43844
   3  -6   814170.06 1578.81   1-0.53527 0.96839-0.31617 0.09072 0.78327-0.23235
   3  -6   817514.91 1152.07   1-0.05433 0.48707-0.99004 0.76513 0.12985 0.42110
   3  -6   9 2399.08  319.24   1-0.50004 0.97630-0.27256 0.07636 0.82198-0.20247
   3  -6   9 2423.84  432.95   1 0.01094 0.46500-0.97831 0.78306 0.20682 0.41300
   3  -6  10  429.50  244.31   1 0.07137 0.44823-0.95849 0.79279 0.27603 0.41299
  -3   5   8 2225.29  447.81   1-0.34760 0.57918-0.09835 0.72027 0.93246-0.38175
  -3   5   7  372.66  120.67   1-0.75280 0.94151 0.27581 0.31659 0.59767-0.11540
  -3   5   6  520.47  165.81   1-0.37333 0.51853-0.12650 0.68926 0.91903-0.50599
  -3   5   6  246.89  126.63   1-0.76251 0.90790 0.19619 0.36671 0.61650-0.20305
  -3   5   5 5199.69  333.38   1-0.37820 0.48021-0.13152 0.66485 0.91633-0.57215
  -3   5   5 5005.10  310.19   1-0.76674 0.86892 0.12827 0.40504 0.62900-0.28445
  -3   5   464422.82 2403.86   1-0.37457 0.43337-0.12786 0.63147 0.91833-0.64298
  -3   5   465368.25 2440.06   1-0.76747 0.82643 0.07197 0.43173 0.63702-0.36138
  -3   5   378526.48 1928.57   1-0.35818 0.37379-0.10987 0.58390 0.92716-0.72064
  -3   5   382536.87 2040.50   1-0.76632 0.78207 0.02799 0.44613 0.64184-0.43511
  -3   5   220575.73 1090.59   1-0.31955 0.29197-0.06819 0.51264 0.94510-0.80743
  -3   5   220165.83 1084.47   1-0.76464 0.73718-0.00256 0.44709 0.64444-0.50662
  -3   5   185589.10 2042.18   1-0.23728 0.16650 0.01754 0.39733 0.97128-0.90244
   3  -5  -187998.28 2089.60   1-0.62272 0.69366-0.43378 0.01872 0.65118-0.72005
  -3   5   190786.83 2206.87   1-0.76351 0.69284-0.01804 0.43298 0.64553-0.57662
  -3   5   0122894.0 2893.16   1-0.05815-0.05590 0.19226 0.19293 0.97961-0.97961
   3  -5   0123359.5 2892.85   1-0.58667 0.70081-0.38334-0.00208 0.71334-0.71334
  -3   5   0120291.7 2883.69   1-0.76366 0.64977-0.01620 0.40154 0.64541-0.64541
   3  -5   150917.87  390.41   1-0.51489 0.67210-0.29079-0.06502 0.80642-0.73759
   3  -5   151300.07  395.88   1-0.32931 0.48661-0.51771 0.16183-0.78963 0.85849
  -3   5  -147917.16  560.01   1-0.76518 0.60808 0.00602 0.34972 0.64377-0.71268
   3  -5   289753.82 2094.43   1-0.26020 0.46057-0.00595-0.32018 0.96553-0.82785
   3  -5   285418.82 1992.95   1-0.72192 0.92247-0.69182 0.36560 0.01378 0.12398
  -3   5  -285956.74 2078.01   1-0.76715 0.56683 0.05268 0.27347 0.63929-0.77711
   3  -5   325866.72  620.80   1-0.68153 0.92534-0.52717 0.23061 0.50754-0.30092
  -3   5  -325735.68  619.70   1-0.29582 0.05208-0.49273 0.78931-0.81835 0.61177
  -3   5  -324074.42  641.07   1-0.76671 0.52318 0.12909 0.16746 0.62887-0.83560
   3  -5   326533.84  716.88   1-0.39667 0.64013-0.86348 0.56726-0.31150 0.51810
   3  -5   452641.21  782.27   1-0.62679 0.91370-0.43972 0.17282 0.64325-0.36779
  -3   5  -448533.39  731.13   1-0.57312 0.28615-0.67142 0.93828-0.46979 0.19424
  -3   5  -450419.17  812.63   1-0.75763 0.47096 0.24183 0.02506 0.60621-0.88179
   3  -5   457235.14  961.03   1-0.29966 0.58634-0.93708 0.67049-0.17910 0.45457
   3  -5   557801.66 1395.82   1-0.58851 0.91861-0.38584 0.14858 0.71047-0.36615
  -3   5  -549247.35 1199.75   1-0.66045 0.33028-0.70307 0.94041-0.26359-0.08083
  -3   5  -552267.09 1278.64   1-0.72636 0.39647 0.39977-0.16246 0.55908-0.90355
   3  -5   546594.13 1131.02   1-0.58095 0.91117-0.58314 0.34612 0.56782-0.22351
   3  -5   560986.12 1721.66   1-0.20839 0.53828-0.97620 0.73938-0.06003 0.40442
   3  -5   6 4968.39  628.11   1-0.55583 0.92913-0.34250 0.13487 0.75745-0.34426
  -3   5  -6 4619.29  577.44   1-0.64280 0.26958 0.61206-0.40446 0.46061-0.87391
   3  -5   6 7099.23 1028.22   1-0.12570 0.49867-0.99111 0.78391 0.04336 0.36985
   3  -5   726732.19 1051.45   1-0.52487 0.94136-0.30311 0.12511 0.79537-0.31332
   3  -5   731729.09 1289.36   1-0.05144 0.46762-0.98974 0.81220 0.13329 0.34879
   3  -5   855650.75 2321.09   1-0.49404 0.95368-0.26528 0.11657 0.82797-0.27730
   3  -5   865175.60 2755.77   1 0.01525 0.44412-0.97718 0.82930 0.21183 0.33912
   3  -5   913549.88  976.98   1-0.46249 0.96533-0.22761 0.10848 0.85690-0.23740
   3  -5   917054.87 1250.66   1 0.07596 0.42703-0.95662 0.83832 0.28124 0.33888
   3  -5  10 4989.54  681.07   1-0.42974 0.97579-0.18956 0.10002 0.88282-0.19448
   3  -5  10 4633.88  691.08   1 0.13123 0.41501-0.93008 0.84147 0.34309 0.34593
  -3   4   9 7947.47  908.58   1-0.38656 0.63481-0.14079 0.71539 0.91144-0.29194
  -3   4   811491.66  875.24   1-0.40787 0.61291-0.16468 0.70968 0.89806-0.34738
  -3   4   7 5544.61  579.29   1-0.42622 0.58806-0.18553 0.70095 0.88538-0.40354
  -3   4   7 4967.29  505.06   1-0.76479 0.92679 0.16690 0.34852 0.62228-0.13991
  -3   4   6 5364.36  424.52   1-0.44105 0.55969-0.20260 0.68843 0.87431-0.46130
  -3   4   6 4601.10  298.70   1-0.76752 0.88631 0.07975 0.40608 0.63604-0.22258
  -3   4   5 2183.92  347.59   1-0.45137 0.52680-0.21458 0.67083 0.86614-0.52197
  -3   4   5 2030.03  314.38   1-0.76512 0.84070 0.00499 0.45124 0.64385-0.29931
  -3   4   414913.27  916.61   1-0.45525 0.48748-0.21912 0.64578 0.86297-0.58763
  -3   4   414938.37  921.04   1-0.75942 0.79151-0.05783 0.48442 0.64802-0.37259
  -3   4   3263642.013396.76   1-0.44877 0.43779-0.21155 0.60863 0.86824-0.66173
  -3   4   3258298.7 6075.32   1-0.75314 0.74204-0.10647 0.50345 0.64918-0.44260
  -3   4   2 5607.74  405.38   1-0.42263 0.36845-0.18142 0.54892 0.88795-0.75028
   3  -4  -2 5630.24  391.62   1-0.67323 0.72760-0.51279 0.14510 0.53273-0.67047
  -3   4   2 5980.55  466.01   1-0.74768 0.69338-0.14032 0.50768 0.64906-0.51134
  -3   4   1288155.9 1941.21   1-0.34971 0.25234-0.10064 0.43846 0.93143-0.86259
   3  -4  -1275523.3 1835.26   1-0.66297 0.76054-0.49576 0.15772 0.56096-0.62983
  -3   4   010174.34  672.90   1-0.12474-0.01587 0.12924 0.17891 0.98373-0.98373
   3  -4   010287.20  678.44   1-0.65705 0.79782-0.48623 0.17783 0.57606-0.57606
  -3   4   0 9499.38  656.99   1-0.74519 0.60450-0.15408 0.46220 0.64879-0.64879
  -3   4  -1 5495.98  399.59   1-0.75005 0.56617-0.12626 0.40476 0.64920-0.71806
   3  -4   2  527.83   42.36   1-0.51870 0.74579-0.29542 0.04634 0.80229-0.66456
  -3   4  -2  508.59  129.70   1-0.75837 0.53129-0.06705 0.31593 0.64836-0.78607
   3  -4   2  437.98   77.90   1-0.62471 0.85168-0.50703 0.25803 0.59384-0.45612
   3  -4   2  182.57   82.81   1-0.41999 0.64685-0.83957 0.59073-0.34455 0.48229
   3  -4   3 8018.31  497.48   1-0.55377 0.82405-0.33983 0.12038 0.76016-0.55356
  -3   4  -3 7003.01  437.71   1-0.65186 0.38153-0.70119 0.92070-0.28878 0.08212
  -3   4  -3 7871.09  506.38   1-0.76656 0.49643 0.03389 0.18560 0.64127-0.84800
   3  -4   3 8137.43  516.58   1-0.59326 0.86360-0.56287 0.34363 0.57550-0.36892
   3  -4   3 8882.53  582.15   1-0.30802 0.57809-0.93216 0.71297-0.19022 0.39683
   3  -4   416601.65  863.11   1-0.54237 0.85585-0.32520 0.13539 0.77464-0.49918
  -3   4  -413828.04  724.01   1-0.71250 0.39897-0.69966 0.88951-0.05286-0.22266
  -3   4  -414859.31  787.31   1-0.76296 0.44962 0.19098-0.00108 0.61757-0.89321
   3  -4   415593.02  815.59   1-0.53216 0.84572-0.65517 0.46555 0.53623-0.26078
   3  -4   415727.09  851.80   1-0.20581 0.51909-0.97694 0.78749-0.05674 0.33225
   3  -4   583042.53 1993.38   1-0.52396 0.88062-0.30196 0.14178 0.79641-0.45209
  -3   4  -574699.12 1776.81   1-0.71822 0.36173 0.42815-0.26789 0.54848-0.89296
   3  -4   581247.67 1925.18   1-0.41203 0.76860-0.79065 0.63044 0.45286-0.10850
   3  -4   585338.54 2092.70   1-0.11679 0.47319-0.99167 0.83184 0.05430 0.29004
   3  -4   615400.12  916.64   1-0.50223 0.90204-0.27524 0.14443 0.81975-0.40675
  -3   4  -612714.60  727.38   1 0.11295-0.51307 0.96789-0.83727-0.22454-0.18899
  -3   4  -614601.52  835.53   1-0.51053 0.11072 0.79623-0.66573 0.32459-0.73793
   3  -4   618358.66 1116.60   1-0.03964 0.43924-0.98828 0.85812 0.14734 0.26587
   3  -4   7 7734.01  575.82   1-0.47811 0.92113-0.24613 0.14491 0.84310-0.36126
   3  -4   7 9696.02 1073.32   1 0.02779 0.41500-0.97364 0.87313 0.22636 0.25572
   3  -4   842959.64 1815.18   1-0.45193 0.93815-0.21524 0.14360 0.86569-0.31501
   3  -4   849667.02 2128.76   1 0.08796 0.39844-0.95150 0.88061 0.29479 0.25643
   3  -4   914140.87 1023.48   1-0.42376 0.95319-0.18272 0.14067 0.88714-0.26763
   3  -4   915493.47 1162.11   1 0.14199 0.38766-0.92403 0.88283 0.35495 0.26517
   3  -4  10  523.40  172.28   1-0.39358 0.96621-0.14862 0.13615 0.90719-0.21885
  -3   3  1011098.06 1230.16   1-0.41724 0.68211-0.17529 0.70239 0.89172-0.20338
  -3   3   9  753.11  259.27   1-0.44329 0.66495-0.20519 0.70270 0.87257-0.25306
  -3   3   813281.12 1105.79   1-0.46731 0.64577-0.23330 0.70123 0.85275-0.30207
  -3   3   712452.87  914.31   1-0.48923 0.62448-0.25947 0.69781 0.83266-0.35082
  -3   3   712328.07  868.06   1-0.76668 0.90208 0.03701 0.40135 0.64095-0.15859
  -3   3   613598.89  844.83   1-0.50885 0.60090-0.28335 0.69210 0.81288-0.39987
  -3   3   613934.71  846.34   1-0.75909 0.85105-0.06074 0.46955 0.64813-0.23499
  -3   3   5 2195.03  227.50   1-0.52581 0.57450-0.30427 0.68370 0.79431-0.44999
  -3   3   5 2854.62  250.74   1-0.74700 0.79576-0.14417 0.52336 0.64900-0.30471
  -3   3   416178.19 1019.50   1-0.53922 0.54472-0.32118 0.67097 0.77850-0.50304
  -3   3   418120.43 1143.35   1-0.73259 0.73816-0.21408 0.56365 0.64612-0.37069
  -3   3   310171.89  691.84   1-0.54723 0.50954-0.33141 0.65157 0.76856-0.56197
  -3   3   311057.81  769.26   1-0.71823 0.68060-0.26971 0.58965 0.64139-0.43482
  -3   3   2 9588.64  646.37   1-0.54481 0.46393-0.32830 0.61883 0.77161-0.63388
   3  -3  -210180.65  681.27   1-0.70788 0.78880-0.57846 0.28787 0.40531-0.54306
  -3   3   212344.68  858.93   1-0.70642 0.62566-0.30942 0.59973 0.63656-0.49885
  -3   3   1 2380.82   91.54   1-0.51278 0.38881-0.28819 0.54901 0.80870-0.73986
   3  -3  -1 3067.33  103.15   1-0.71776 0.84184-0.60252 0.34159 0.34897-0.41785
  -3   3   1 3231.61  201.99   1-0.69941 0.57545-0.33090 0.59163 0.63349-0.56464
   3  -3  -1 2536.57  142.94   1-0.57550 0.69954-0.59183 0.33111 0.56437-0.63323
  -3   3   012161.08  159.29   1-0.27986 0.11271-0.02633 0.25751 0.95967-0.95967
   3  -3   013234.71  161.47   1-0.71827 0.88555-0.69560 0.46429-0.01496 0.01496
  -3   3   012579.74  279.35   1-0.69971 0.53255-0.33001 0.56114 0.63363-0.63363
   3  -3   012922.85  242.57   1-0.57516 0.74242-0.59236 0.36127 0.56416-0.56416
  -3   3  -1171759.2 1895.21   1-0.70933 0.49898-0.30012 0.50166 0.63778-0.70664
   3  -3   1165244.4 1803.87   1-0.55898 0.76945-0.61712 0.41565 0.55380-0.48493
   3  -3   2 8132.99  541.97   1-0.35317 0.60671-0.10441-0.06761 0.92971-0.79203
  -3   3  -2 6771.35  449.19   1-0.72806 0.47437-0.68072 0.85274 0.08085-0.21862
  -3   3  -2 7200.48  498.09   1-0.72868 0.47507-0.23028 0.40212 0.64497-0.78268
   3  -3   2 7854.43  532.25   1-0.51936 0.77304-0.67216 0.50032 0.52768-0.38996
   3  -3   2 9026.56  626.49   1-0.30711 0.56058-0.93271 0.76090-0.18901 0.32674
  -3   3  -353662.23  460.99   1-0.72901 0.43211-0.64093 0.78329 0.24027-0.44690
   3  -3   360455.51  611.68   1-0.18998 0.48666-0.98109 0.83901-0.03671 0.24334
   3  -3   4  557.88   87.26   1-0.46771 0.80770-0.23378 0.12088 0.85240-0.57706
  -3   3  -4 1175.20  132.33   1-0.72708 0.38697-0.63196 0.74468 0.26827-0.54377
  -3   3  -4  304.94   52.38   1-0.76664 0.42670 0.13096-0.01813 0.62857-0.90421
   3  -3   4  717.76  164.52   1-0.09435 0.43418-0.99218 0.87972 0.08166 0.19381
   3  -3   535948.12  910.74   1-0.46343 0.84663-0.22873 0.14542 0.85609-0.51192
  -3   3  -533182.36  786.81   1-0.08684-0.29646 0.99444-0.91153-0.05943-0.28497
  -3   3  -534091.59  809.33   1-0.65780 0.27461 0.58279-0.49967 0.47711-0.82153
   3  -3   538966.31 1113.35   1-0.01556 0.39859-0.98430 0.90150 0.17580 0.16854
   3  -3   639217.28 1477.23   1-0.45015 0.87655-0.21317 0.15944 0.86712-0.45412
   3  -3   645470.86 1786.68   1 0.05122 0.37532-0.96608 0.91292 0.25308 0.16033
   3  -3   7  182.30  149.18   1-0.43164 0.90124-0.19174 0.16760 0.88142-0.39958
   3  -3   7  494.40  223.36   1 0.10906 0.36073-0.94163 0.91816 0.31846 0.16385
   3  -3   8 4347.93  534.99   1-0.40941 0.92222-0.16642 0.17186 0.89703-0.34636
   3  -3   8 5863.77  388.26   1 0.16053 0.35251-0.91290 0.91911 0.37527 0.17595
   3  -3   917475.12 1039.65   1-0.38418 0.94018-0.13814 0.17317 0.91286-0.29335
   3  -3  10 1596.68  327.56   1-0.35629 0.95540-0.10780 0.17241 0.92813-0.23974
  -3   2  1011299.62  866.50   1-0.47028 0.70856-0.23682 0.68684 0.85014-0.16180
  -3   2   9  562.16  189.53   1-0.49837 0.69345-0.27053 0.69097 0.82367-0.20416
  -3   2   815623.36 1109.81   1-0.52505 0.67692-0.30341 0.69426 0.79514-0.24447
  -3   2   815239.12 1052.38   1-0.76500 0.91702 0.00299 0.38789 0.64401-0.09274
  -3   2   742048.98 1151.46   1-0.55044 0.65896-0.33553 0.69714 0.76447-0.28242
  -3   2   745055.58 1160.27   1-0.75079 0.85941-0.12175 0.48315 0.64922-0.16722
  -3   2   620108.21  604.35   1-0.57479 0.64012-0.36740 0.69937 0.73117-0.31799
  -3   2   622669.60  624.65   1-0.72878 0.79421-0.22988 0.56166 0.64500-0.23186
  -3   2   523857.07 1420.54   1-0.59832 0.62045-0.39929 0.70163 0.69467-0.35034
  -3   2   524633.13  490.55   1-0.70185 0.72410-0.32357 0.62561 0.63458-0.29029
  -3   2   437274.39  451.59   1-0.62144 0.60038-0.43194 0.70464 0.65363-0.37817
  -3   2   443670.32  501.62   1-0.67278 0.65183-0.40281 0.67526 0.62056-0.34513
  -3   2   3 2582.25  202.46   1-0.64469 0.58042-0.46692 0.71006 0.60526-0.39864
   3  -2  -3 3476.83  267.73   1-0.72749 0.79173-0.63368 0.39057 0.26306-0.46968
  -3   2   3 3574.85  318.77   1-0.64447 0.58033-0.46726 0.71012 0.60523-0.39866
   3  -2  -3 2838.55  219.44   1-0.45408 0.51826-0.74882 0.50610 0.48277-0.68938
  -3   2   2184954.8 1995.81   1-0.67045 0.56298-0.50810 0.72159 0.54065-0.40291
   3  -2  -2188601.2 2026.12   1-0.73107 0.83851-0.65937 0.44590 0.17538-0.31313
  -3   2   140631.49  473.28   1-0.70364 0.55297-0.56935 0.75320 0.42511-0.35623
   3  -2  -141801.95  478.34   1-0.70293 0.85360-0.70356 0.51972-0.10428 0.03540
  -3   2   140339.37  542.72   1-0.60308 0.45248-0.54597 0.72966 0.58155-0.51268
  -3   2   051304.53  548.22   1 0.12309-0.31681 0.35352-0.19938 0.92729-0.92729
  -3   2   055190.72  592.17   1-0.71407 0.52021-0.69873 0.85293-0.04326 0.04326
  -3   2   054161.89  679.32   1-0.59848 0.40467-0.55396 0.70803 0.57873-0.57873
   3  -2   1239976.7 2509.70   1 0.01932 0.21759 0.26313-0.38767 0.96456-0.89574
  -3   2  -1239333.8 2507.80   1-0.56352 0.32649-0.35251 0.47705 0.74711-0.81597
  -3   2  -1239298.0 2566.54   1-0.61085 0.37382-0.53211 0.65655 0.58626-0.65512
   3  -2   1241414.3 2574.54   1-0.39117 0.62815-0.80952 0.68507 0.43777-0.36890
   3  -2   1252978.7 2705.06   1-0.28735 0.52423-0.94397 0.81959-0.16230 0.23117
   3  -2   2303795.0 2001.83   1-0.29310 0.57323-0.04019-0.05477 0.95523-0.81755
  -3   2  -2299301.2 1985.31   1-0.64543 0.36530-0.46524 0.56015 0.60577-0.74349
   3  -2   2311037.2 2124.17   1-0.15059 0.43066-0.98851 0.89379 0.01259 0.12516
   3  -2   310547.09  707.27   1-0.37762 0.70098-0.13087 0.06547 0.91666-0.71015
  -3   2  -3 8839.04  596.75   1-0.67514 0.35168-0.51605 0.58130 0.52713-0.73375
  -3   2  -3 7078.24  479.11   1 0.09722-0.42081 0.97244-0.90713-0.21190 0.00513
  -3   2  -3 8667.86  578.71   1-0.70424 0.38091-0.31623 0.38155 0.63563-0.84220
   3  -2   3 9750.42  677.92   1-0.05076 0.37402-0.98966 0.92458 0.13410 0.07250
   3  -2   418297.29  964.21   1-0.40377 0.77033-0.16005 0.12423 0.90075-0.62541
  -3   2  -415996.16  835.66   1-0.27309-0.09348 0.95647-0.92090 0.10285-0.37840
  -3   2  -415258.04  782.84   1-0.76674 0.40020 0.03873-0.00296 0.64078-0.91642
   3  -2   418385.67  989.84   1 0.02584 0.34061-0.97422 0.93879 0.22411 0.05136
   3  -2   5  406.81   87.68   1-0.40751 0.81729-0.16427 0.15804 0.89829-0.55412
   3  -2   5  197.93  124.04   1 0.08832 0.32162-0.95134 0.94558 0.29521 0.04930
   3  -2   639755.07 1049.56   1-0.40004 0.85302-0.15586 0.17921 0.90314-0.49013
   3  -2   643667.20 1178.36   1 0.14139 0.31180-0.92437 0.94830 0.35430 0.05911
   3  -2   724830.05 1011.82   1-0.38576 0.88194-0.13991 0.19285 0.91192-0.43008
   3  -2   8  780.13  167.77   1-0.36676 0.90606-0.11926 0.20177 0.92263-0.37192
   3  -2   913270.32 1119.02   1-0.34396 0.92646-0.09441 0.20649 0.93422-0.31467
  -3   1  11 3717.20  601.20   1-0.49002 0.74492-0.26042 0.66294 0.83190-0.07472
  -3   1  1015315.81 1127.92   1-0.52103 0.73273-0.29840 0.67134 0.79967-0.11133
  -3   1   9 5666.70  679.75   1-0.55077 0.71911-0.33596 0.67974 0.76404-0.14426
  -3   1   812418.26  929.34   1-0.57961 0.70476-0.37383 0.68798 0.72408-0.17316
  -3   1   812554.54  903.97   1-0.74090 0.86619-0.17616 0.49015 0.64809-0.09724
  -3   1   748636.91 1253.81   1-0.60772 0.68967-0.41239 0.69690 0.67867-0.19662
  -3   1   747554.17 1171.17   1-0.70543 0.78750-0.31254 0.59672 0.63614-0.15413
  -3   1   667878.59 1113.36   1-0.63540 0.67417-0.45244 0.70733 0.62573-0.21254
  -3   1   679698.14 1221.38   1-0.66110 0.69997-0.43063 0.68521 0.61440-0.20125
  -3   1   532932.94  860.63   1-0.66274 0.65832-0.49538 0.72071 0.56156-0.21719
  -3   1   540043.82 1006.91   1-0.61079 0.60649-0.53222 0.75739 0.58622-0.24191
  -3   1   350646.23  639.47   1-0.71657 0.62576-0.59943 0.76544 0.35664-0.15002
   3  -1  -355137.98  676.59   1-0.72507 0.81587-0.68729 0.52127 0.04358-0.25022
  -3   1   359651.06  748.94   1-0.50713 0.41640-0.68774 0.85365 0.51944-0.31285
  -3   1   2223214.8 2383.89   1-0.73084 0.59683-0.66589 0.80227 0.14982-0.01206
   3  -1  -2212007.5 2255.87   1-0.68737 0.82141-0.70569 0.56932-0.17177 0.03400
  -3   1   2240947.2 2597.11   1-0.46029 0.32630-0.74217 0.87832 0.48713-0.34938
  -3   1   1404882.7 4232.43   1-0.66023 0.48299-0.70303 0.80977-0.26426 0.33314
   3  -1  -1407005.2 4247.85   1-0.48024 0.65749-0.62001 0.51327-0.62044 0.55158
  -3   1   1390550.4 4112.75   1 0.27110-0.44839 0.89765-0.79096-0.34743 0.41630
  -3   1   1390830.5 4130.10   1-0.42367 0.24648-0.77959 0.88617 0.46121-0.39234
  -3   1   018162.26  242.92   1-0.05555-0.16476 0.19468-0.11764 0.97929-0.97929
  -3   1   018231.38  239.89   1-0.29612 0.07567-0.49296 0.57006-0.81810 0.81810
  -3   1   017263.45  256.75   1 0.20271-0.42316 0.93385-0.85679-0.29465 0.29465
  -3   1   018697.07  285.28   1-0.40287 0.18248-0.79909 0.87610 0.44625-0.44625
  -3   1   020404.39  273.51   1-0.41797 0.19770-0.84175 0.91878-0.34167 0.34167
  -3   1  -169644.23  789.90   1-0.40932 0.14578-0.16631 0.21381 0.89709-0.96593
  -3   1  -164259.03  744.21   1-0.40555 0.14196-0.79664 0.84409 0.44819-0.51706
  -3   1  -165946.59  768.26   1-0.27684 0.01338-0.94937 0.99673-0.14847 0.07959
   3  -1   2331165.6 2210.33   1-0.24958 0.55630 0.00496-0.02286 0.96833-0.83066
  -3   1  -2308904.8 2075.37   1-0.54849 0.24171-0.33303 0.35085 0.76696-0.90469
  -3   1  -2317010.1 2072.70   1-0.44218 0.13539-0.76120 0.77908 0.47438-0.61212
   3  -1   360688.83 1481.91   1-0.31945 0.66936-0.06808 0.07975 0.94515-0.73863
  -3   1  -356277.13 1331.93   1-0.52919 0.17918-0.65918 0.64733 0.53425-0.74084
   3  -1   358419.46 1445.35   1 0.09199 0.25810-0.94970 0.96166 0.29933-0.09262
   3  -1   4 1011.64  142.91   1-0.34765 0.74076-0.09840 0.13966 0.93244-0.65709
  -3   1  -4  857.02   54.18   1-0.73274 0.33967 0.37524-0.41655 0.56768-0.84326
  -3   1  -4  968.77   64.25   1-0.71261 0.31951-0.28930 0.24798 0.63912-0.91455
   3  -1   4 1148.53  153.93   1 0.14339 0.24994-0.92322 0.96487 0.35650-0.08088
   3  -1   5 2144.80  311.93   1-0.35548 0.79179-0.10692 0.17776 0.92854-0.58435
   3  -1   5 2459.55  282.30   1 0.18731 0.24928-0.89524 0.96658 0.40428-0.05976
   3  -1   610162.23  969.46   1-0.35175 0.83125-0.10286 0.20327 0.93042-0.51739
   3  -1   732628.74 1428.37   1-0.34055 0.86324-0.09072 0.22071 0.93583-0.45396
   3  -1   810139.22 2296.48   1-0.32397 0.88986-0.07290 0.23247 0.94325-0.39254
   3  -1   9 1453.51  469.83   1-0.30315 0.91224-0.05077 0.23992 0.95158-0.33203
  -3   0  11 2382.57  382.97   1-0.53661 0.76477-0.31787 0.64384 0.78166-0.02415
  -3   0  10 8461.96  523.92   1-0.56852 0.75349-0.35910 0.65543 0.74014-0.05150
  -3   0   920250.81  894.43   1-0.59933 0.74110-0.40068 0.66738 0.69300-0.07322
  -3   0   921531.02  847.53   1-0.73111 0.87307-0.22030 0.48688 0.64570-0.02598
  -3   0   8 5789.31  358.34   1-0.62915 0.72773-0.44317 0.68023 0.63856-0.08764
  -3   0   8 7594.01  372.29   1-0.67859 0.77728-0.38821 0.62493 0.62353-0.07267
  -3   0   714953.52  928.41   1-0.65776 0.71318-0.48736 0.69488 0.57430-0.09219
  -3   0   717935.36  502.99   1-0.61236 0.66793-0.52936 0.73675 0.58717-0.10514
  -3   0   6145236.8 3469.37   1-0.68532 0.69754-0.53395 0.71183 0.49519-0.08195
  -3   0   6139577.7 3286.92   1 0.05734-0.04519 0.98206-0.80382-0.17960 0.59314
  -3   0   6165042.4 3892.16   1-0.53754 0.54990-0.64781 0.82557 0.53979-0.12662
  -3   0   5161523.3 1276.00   1-0.71021 0.67924-0.58409 0.73229 0.39296-0.04859
  -3   0   5164087.0 1187.60   1 0.09006-0.12111 0.97437-0.82584-0.20612 0.55074
   3   0  -5164454.0 1187.12   1 0.01937 0.01150-0.97606 0.82775 0.21661-0.56096
  -3   0   4 1504.67  119.98   1-0.72832 0.65414-0.63742 0.75598 0.25147 0.02402
   3   0  -4 1572.31  143.03   1-0.71076 0.78493-0.70059 0.58203-0.06313-0.21238
  -3   0   4 1679.68  180.92   1 0.10357-0.17782 0.97065-0.85183-0.21701 0.49270
  -3   0   4 2024.72  131.40   1-0.37472 0.30052-0.82358 0.94185 0.42576-0.15028
   3   0  -4 1617.26  191.13   1 0.05470 0.01929-0.96484 0.84610 0.25705-0.53267
  -3   0   3 2024.03  121.30   1-0.72473 0.60735-0.68785 0.77677 0.04009 0.16654
   3   0  -3 2105.08  124.52   1-0.67007 0.78748-0.70466 0.61575-0.23333 0.02667
  -3   0   3 2454.89  167.21   1 0.09457-0.21202 0.97316-0.88404-0.20976 0.41653
   3   0  -3 2315.83  126.86   1 0.10023 0.01700-0.94589 0.85684 0.30859-0.51530
  -3   0   216804.92  263.52   1-0.65333 0.49272-0.70154 0.76081-0.28458 0.42235
   3   0  -218284.73  270.23   1-0.54226 0.70287-0.65578 0.59651-0.52525 0.38748
  -3   0   218544.62  273.89   1 0.05806-0.21871 0.98191-0.92250-0.18019 0.31803
   3   0  -1502226.9 5245.75   1-0.24032 0.44415-0.44987 0.42022-0.86014 0.79128
   3   0  -1521580.1 5476.80   1 0.16446 0.03935 0.95022-0.97986-0.26462 0.19574
  -3   0   1488880.4 5127.32   1-0.01244-0.19140 0.99242-0.96271-0.12222 0.19114
  -3   0   097649.44 1081.17   1-0.12344-0.12344 0.13049-0.13049 0.98373-0.98373
  -3   0   098573.00 1090.14   1-0.12349-0.12349 0.99194-0.99194-0.02824 0.02824
   3   0   0111973.3 1220.96   1 0.12349 0.12349-0.93425 0.93425 0.33452-0.33452
   3   0   1 1803.27  219.32   1-0.09481 0.38479 0.15782-0.12822 0.98290-0.91405
  -3   0  -1 1325.07  186.00   1-0.36251 0.07240-0.11460 0.08502 0.92490-0.99374
   3   0   1 1808.52  218.15   1 0.10799 0.18226 0.96937-0.93966-0.22056 0.28948
  -3   0  -1 1457.02  131.49   1-0.27761-0.01253 0.95477-0.98442 0.10644-0.17533
   3   0   1 1541.83   97.14   1 0.15945 0.13079-0.91358 0.94326 0.37408-0.30518
  -3   0  -1 1414.26  136.36   1-0.07755-0.21255-0.99175 0.96209 0.10198-0.17085
   3   0   233480.83  456.81   1-0.21088 0.54418 0.04425 0.01490 0.97650-0.83883
   3   0   235436.79  340.80   1 0.12547 0.20782 0.96418-0.90490-0.23366 0.37142
  -3   0  -231712.72  300.02   1-0.46563 0.13225 0.83913-0.89834 0.28112-0.41890
   3   0   399152.49 2373.34   1-0.26924 0.64574-0.01529 0.10402 0.96295-0.75643
   3   0   3107849.2 2526.00   1 0.18953 0.18692 0.93979-0.85087-0.28435 0.49098
  -3   0  -396458.42 2264.54   1-0.65427 0.27772 0.58992-0.67873 0.47319-0.67984
   3   0   4 7635.82  885.01   1-0.29665 0.71634-0.04392 0.16223 0.95397-0.67862
  -3   0  -4 7148.20  422.33   1-0.76666 0.34692 0.13035-0.24872 0.62867-0.90430
   3   0   5 2860.65  515.46   1-0.30633 0.76923-0.05414 0.20203 0.95038-0.60618
   3   0   6 6137.21  739.39   1-0.30491 0.81100-0.05263 0.23010 0.95092-0.53789
   3   0   730356.39 1328.22   1-0.29586 0.84515-0.04309 0.25014 0.95425-0.47238
   3   0   8 2760.08  437.25   1-0.28114 0.87362-0.02767 0.26430 0.95926-0.40855
  -3  -1  12  446.68  263.77   1-0.54642 0.79121-0.33037 0.60888 0.76958 0.05678
  -3  -1  11  342.92  181.37   1-0.57985 0.78145-0.37416 0.62304 0.72371 0.03379
  -3  -1  10  929.79  206.12   1-0.61186 0.77027-0.41823 0.63748 0.67133 0.01730
  -3  -1   938901.03 2205.62   1-0.64219 0.75745-0.46310 0.65282 0.61083 0.00901
  -3  -1   940725.15 2249.13   1-0.65116 0.76646-0.45292 0.64219 0.60897 0.01074
  -3  -1   877038.46 2869.03   1-0.67100 0.74307-0.50903 0.66910 0.53910 0.01187
  -3  -1   886000.07 3148.56   1-0.56121 0.63344-0.61379 0.77377 0.55524-0.00434
  -3  -1   7  253.88  160.52   1-0.69727 0.72614-0.55644 0.68687 0.45185 0.03025
  -3  -1   7   59.58   25.00   1-0.15842 0.18711 0.98736-0.85685 0.00177 0.48040
  -3  -1   7   96.83  108.84   1-0.46014 0.48893-0.74234 0.87230 0.48702-0.00491
  -3  -1   662573.78 1562.43   1-0.71882 0.70449-0.60535 0.70610 0.34180 0.07143
  -3  -1   673661.00 1757.45   1-0.12471 0.11023 0.99182-0.89096-0.02720 0.44049
  -3  -1   5108510.7  944.55   1-0.73075 0.67321-0.65353 0.72464 0.19719 0.14718
   3   1  -5104251.4  821.62   1 0.24922-0.19153 0.91024-0.98139-0.33067-0.01371
  -3  -1   5109443.2  834.67   1-0.11041 0.05276 0.99310-0.92189-0.03941 0.38382
  -3  -1   5100081.2  780.22   1 0.18420-0.24159-0.89739 0.96873 0.40092-0.05641
   3   1  -5104263.9  822.95   1-0.16739 0.22490-0.98585 0.91459-0.00833-0.33605
  -3  -1   4 5303.81  171.52   1-0.72029 0.61954-0.69367 0.73512 0.00029 0.27523
   3   1  -4 6108.63  196.23   1-0.65076 0.75154-0.70092 0.65948-0.29191 0.01637
   3   1  -4 5962.14  413.10   1 0.14607-0.04522 0.95714-0.99865-0.25007-0.02544
  -3  -1   4 6358.65  534.32   1-0.11752 0.01671 0.99250-0.95095-0.03334 0.30887
  -3  -1   4 5143.89  112.50   1 0.13695-0.23760-0.92690 0.96855 0.34941-0.07380
   3   1  -4 6672.96  262.61   1-0.24079 0.34148-0.96525 0.92364-0.10154-0.17396
  -3  -1   3  347.76  119.96   1-0.65976 0.51577-0.70293 0.71474-0.26569 0.47235
   3   1  -3   89.58  108.29   1-0.55523 0.69921-0.66255 0.65072-0.50272 0.29606
   3   1  -3  191.39   48.37   1 0.05134 0.09264 0.98327-0.99518-0.17471-0.03205
  -3  -1   3  174.09   61.61   1-0.14862 0.00464 0.98887-0.97697-0.00667 0.21332
  -3  -1   3  104.01   20.29   1 0.03429-0.17822-0.97166 0.98361 0.23387-0.02726
  -3  -1   217565.14  283.06   1-0.50963 0.32244-0.63764 0.61983-0.57765 0.71543
  -3  -1   177171.61  890.52   1-0.27979 0.04938-0.48053 0.43307-0.83114 0.90000
  -3  -1   177040.41  881.92   1-0.29045 0.06012 0.94953-0.99696 0.11839-0.04950
  -3  -1   175487.17  826.82   1 0.17190-0.40229-0.90564 0.85823 0.38763-0.31873
  -3  -1   0147239.4 1618.76   1-0.17123-0.10221 0.08397-0.16101 0.98164-0.98164
   3   1   0169178.7 1832.72   1-0.13166 0.40514 0.99106-0.91400-0.02125 0.02125
  -3  -1   0158131.0 1720.59   1-0.39867 0.12517 0.89098-0.96805 0.21726-0.21726
   3   1   1  634.32  165.33   1-0.08594 0.40248 0.16621-0.05957 0.98233-0.91348
   3   1   1  735.24  124.39   1-0.14791 0.46455 0.98897-0.88226-0.00729 0.07617
  -3  -1  -1  553.12   77.99   1-0.52096 0.20418 0.78516-0.89180 0.33483-0.40372
  -3  -1  -1  438.50  107.53   1 0.07690-0.39379-0.95623 0.84945 0.28230-0.35121
   3   1   2 8907.14  579.90   1-0.17439 0.53403 0.08085 0.05538 0.98134-0.84364
   3   1   2 9254.38  581.55   1-0.13680 0.49661 0.99045-0.85408-0.01683 0.15460
  -3  -1  -2 7950.02  501.40   1-0.64072 0.28079 0.61594-0.75219 0.45835-0.59611
   3   1   3116325.4 1763.19   1-0.22352 0.62661 0.03150 0.13428 0.97418-0.76767
   3   1   3128582.9 1841.55   1-0.09318 0.49616 0.99417-0.82816-0.05405 0.26070
  -3  -1  -3111162.8 1602.59   1-0.73345 0.33038 0.37239-0.53822 0.56865-0.77534
   3   1   445677.53 1179.81   1-0.24908 0.69536 0.00548 0.18989 0.96846-0.69311
  -3  -1  -438119.53  904.15   1-0.76701 0.32067 0.04749-0.24294 0.63986-0.91550
   3   1   5 8118.52 1251.37   1-0.25934 0.74882-0.00506 0.23001 0.96577-0.62157
   3   1   616496.73  783.45   1-0.25923 0.79190-0.00494 0.25947 0.96580-0.55277
   3   1   7 4631.70  658.30   1-0.25163 0.82750 0.00287 0.28123 0.96781-0.48594
   3   1   8 1096.06  349.52   1-0.23826 0.85732 0.01654 0.29714 0.97105-0.42034
  -3  -2  12 8319.92  704.68   1-0.58593 0.80416-0.38235 0.58378 0.71447 0.11189
  -3  -2  11  290.08  199.91   1-0.61884 0.79387-0.42818 0.59997 0.65855 0.09895
  -3  -2  10  631.63  195.33   1-0.64956 0.78147-0.47444 0.61671 0.59410 0.09462
  -3  -2   910717.38  830.62   1-0.67810 0.76681-0.52115 0.63377 0.51824 0.10161
  -3  -2   913107.37  939.09   1-0.51329 0.60218-0.67996 0.79254 0.52360 0.09615
  -3  -2   855161.39 1403.41   1-0.70314 0.74866-0.56833 0.65130 0.42729 0.12369
  -3  -2   863272.13 1517.34   1-0.39017 0.43556-0.81040 0.89292 0.43704 0.11392
  -3  -2   734273.10  667.06   1-0.72231 0.72462-0.61540 0.66869 0.31549 0.16662
   3   2  -730892.19  529.56   1 0.26767-0.26977 0.89970-0.95307-0.34480-0.13734
  -3  -2   732898.68  588.82   1 0.13445-0.13199-0.92830 0.98192 0.34665 0.13567
  -3  -2   6 1885.76  235.81   1-0.73107 0.69017-0.65954 0.68320 0.17472 0.23852
   3   2  -6 2528.09  352.34   1 0.14580-0.10474 0.95724-0.98097-0.24985-0.16342
  -3  -2   6 2177.76  164.37   1-0.29834 0.25735 0.94617-0.92245 0.12548 0.28783
  -3  -2   6 2153.35  231.12   1 0.06750-0.10829-0.96002 0.98395 0.27164 0.14177
   3   2  -6 1743.54  138.76   1-0.30456 0.34538-0.93423 0.91044-0.18561-0.22758
  -3  -2   561075.07  627.91   1-0.71956 0.63545-0.69440 0.68839-0.00531 0.34972
   3   2  -556047.91  536.97   1 0.03109 0.05302 0.98692-0.98102-0.15814-0.18646
  -3  -2   557097.71  507.72   1-0.29871 0.21455 0.94601-0.95193 0.12581 0.21861
  -3  -2   554051.91  495.00   1-0.03012-0.05402-0.98687 0.98111 0.15863 0.18571
   3   2  -558413.17  483.91   1-0.38169 0.46572-0.87743 0.88329-0.29054-0.05379
  -3  -2   492792.83 1097.80   1-0.67059 0.54323-0.70472 0.66906-0.23164 0.50719
   3   2  -499447.65 1166.08   1-0.07051 0.19783 0.99478-0.95918-0.07364-0.20204
  -3  -2   4100084.1 1133.68   1-0.31819 0.19085 0.93711-0.97268 0.14339 0.13215
  -3  -2   4101137.3 1114.86   1-0.19925 0.07198-0.97875 0.94333-0.04842 0.32393
  -3  -2   3 4777.15  182.04   1-0.56215 0.39159-0.66605 0.60080-0.49025 0.69691
   3   2  -3 6567.80  192.49   1-0.41179 0.58242-0.57584 0.64116-0.70627 0.49968
   3   2  -3 4502.62  139.03   1-0.15552 0.32600 0.98783-0.92267-0.00073-0.20591
  -3  -2   3 5822.06  170.34   1-0.35696 0.18645 0.91685-0.98206 0.17872 0.02793
   3   2  -2  376.70  109.35   1-0.20752 0.42131-0.42373 0.51865-0.88169 0.74397
   3   2  -2  421.97   95.53   1-0.22249 0.43613 0.97323-0.87841 0.05759-0.19535
  -3  -2   2  305.39   54.77   1-0.41386 0.20017 0.88041-0.97527 0.23145-0.09368
  -3  -2   134103.11  451.02   1-0.01807-0.23883 0.22920-0.35367 0.97321-0.90435
  -3  -2   134166.79  479.35   1-0.20190-0.05510-0.41920 0.29463-0.88515 0.95401
   3   2  -138704.92  502.36   1-0.26973 0.52654 0.95779-0.83332 0.09941-0.16829
  -3  -2   135724.48  476.93   1-0.48524 0.22829 0.82130-0.94576 0.29999-0.23110
   3   2   0144532.2 1060.26   1-0.29679 0.59683 0.94684-0.79270 0.12408-0.12408
  -3  -2   0144390.0 1068.92   1-0.56551 0.26534 0.73233-0.88640 0.37931-0.37931
   3   2   111873.75  811.59   1-0.06745 0.41055 0.18358 0.00009 0.98068-0.91183
   3   2   111315.36  758.83   1-0.30379 0.64701 0.94377-0.75999 0.13038-0.06150
  -3  -2  -110881.01  731.02   1-0.64550 0.30219 0.60699-0.79068 0.46355-0.53244
   3   2   230032.68  567.86   1-0.13829 0.52449 0.11615 0.09712 0.98355-0.84585
   3   2   230630.64  532.68   1-0.28993 0.67633 0.94975-0.73632 0.11792 0.01984
  -3  -2  -229700.81  515.84   1-0.71407 0.32762 0.44160-0.65489 0.54321-0.68100
   3   2   395188.75 2337.66   1-0.18091 0.61020 0.07442 0.16845 0.98067-0.77412
   3   2   3102334.6 2434.66   1-0.25287 0.68235 0.96380-0.72072 0.08442 0.12222
  -3  -2  -386595.54 2069.62   1-0.75847 0.32881 0.23510-0.47798 0.60781-0.81449
   3   2   440404.80 1135.39   1-0.20380 0.67667 0.05135 0.22107 0.97766-0.70230
   3   2   444999.56 1117.38   1-0.18667 0.65932 0.98207-0.70933 0.02626 0.24926
   3   2   5  224.88  114.11   1-0.21388 0.72995 0.04123 0.26077 0.97598-0.63179
   3   2   6 1812.89  314.20   1-0.21441 0.77367 0.04070 0.29088 0.97589-0.56286
   3   2   7 5154.10  867.75   1-0.20771 0.81017 0.04743 0.31373 0.97703-0.49516
  -3  -3  1224932.45 1746.40   1-0.62133 0.81299-0.43178 0.55611 0.65384 0.17253
  -3  -3  11  441.13  289.61   1-0.65249 0.80105-0.47901 0.57382 0.58719 0.17040
  -3  -3  10  596.96  122.90   1-0.47302 0.57820-0.72816 0.79280 0.49600 0.19271
  -3  -3   912173.26  616.04   1-0.70529 0.76745-0.57284 0.60836 0.41762 0.20223
  -3  -3   912332.62  588.26   1 0.14077-0.07846-0.92473 0.96063 0.35361 0.26651
  -3  -3   841638.50 1102.75   1-0.72328 0.74222-0.61841 0.62425 0.30727 0.24371
   3   3  -836211.53  894.77   1 0.20033-0.21908 0.93495-0.94091-0.29280-0.25823
  -3  -3   840861.11 1126.81   1 0.07842-0.05936-0.95560 0.96181 0.28403 0.26720
  -3  -3   7152445.7 2283.15   1-0.73108 0.70682-0.66002 0.63622 0.17289 0.30923
   3   3  -7142367.8 2081.12   1 0.07106-0.04681 0.97906-0.95536-0.19075-0.29170
  -3  -3   7167877.6 2459.50   1 0.00037-0.02474-0.98090 0.95743 0.19449 0.28759
  -3  -3   6 8682.59  586.73   1-0.72127 0.65379-0.69260 0.63913 0.00824 0.40504
   3   3  -6 8470.75  615.98   1-0.04545 0.11290 0.99446-0.94106-0.09470-0.31883
  -3  -3   6 8844.85  671.88   1-0.10301 0.03543-0.99213 0.93900 0.07113 0.34208
   3   3  -546809.23  573.05   1-0.14618 0.25683 0.98921-0.90630-0.00877-0.33563
  -3  -3   548386.04  453.36   1-0.24821 0.13754-0.96230 0.87953-0.11113 0.45552
  -3  -3   3 9851.06  259.62   1-0.47335 0.27613-0.61577 0.47334-0.62988 0.83647
   3   3  -3 7440.39  192.59   1-0.29609 0.49315 0.94714-0.80486 0.12346-0.33012
  -3  -3   2 3166.16  257.65   1-0.31643 0.07605-0.50818 0.33616-0.80100 0.93872
   3   3  -2 3402.07  262.59   1-0.34422 0.58445 0.92390-0.75198 0.16706-0.30483
   3   3  -138758.29  423.70   1-0.37516 0.65857 0.90611-0.70455 0.19546-0.26435
   3   3   088013.55 2121.07   1 0.04356 0.28299 0.28469-0.05349 0.95762-0.95762
   3   3   085070.72 2030.79   1-0.38979 0.71638 0.89686-0.66566 0.20901-0.20901
   3   3   115540.71  844.59   1-0.04385 0.41352 0.20552 0.05519 0.97766-0.90881
   3   3   115493.58  820.37   1-0.38865 0.75841 0.89761-0.63676 0.20795-0.13906
   3   3   2 1722.36  243.12   1-0.10247 0.51523 0.15055 0.13976 0.98327-0.84557
   3   3   2 1561.52  152.84   1-0.37145 0.78439 0.90836-0.61787 0.19205-0.05427
   3   3   3  754.43  134.54   1-0.13941 0.59527 0.11507 0.20484 0.98352-0.77697
   3   3   3  560.87  136.84   1-0.33661 0.79273 0.92792-0.60779 0.16012 0.04653
   3   3   453278.30 2125.64   1-0.16056 0.65952 0.09445 0.25506 0.98249-0.70708
   3   3   458391.77 2208.46   1-0.28018 0.77947 0.95371-0.60393 0.10919 0.16635
   3   3   524471.93 1116.90   1-0.17009 0.71215 0.08509 0.29402 0.98174-0.63748
   3   3   7 1663.01  326.64   1-0.16468 0.79292 0.09042 0.34790 0.98219-0.50023
  -3  -4  13 1086.06  253.18   1-0.62002 0.82831-0.42988 0.50677 0.65632 0.23891
  -3  -4  1216946.20 1037.28   1-0.65182 0.81703-0.47796 0.52532 0.58879 0.23768
  -3  -4  1120561.87  981.86   1-0.68053 0.80254-0.52540 0.54311 0.51071 0.24688
  -3  -4  1121599.77 1000.89   1 0.16826-0.04610-0.90800 0.92617 0.38368 0.37425
  -3  -4  10 3013.73  361.67   1-0.70483 0.78364-0.57187 0.55994 0.41972 0.26900
  -3  -4  10 2953.81  289.97   1 0.11106-0.03214-0.94064 0.92913 0.32069 0.36834
  -3  -4   9  126.94  159.69   1-0.72268 0.75826-0.61652 0.57491 0.31245 0.30742
   3   4  -9  219.09   78.67   1 0.15538-0.19076 0.95371-0.91226-0.25745-0.36246
  -3  -4   9  541.82  109.59   1 0.04465-0.00899-0.96835 0.92715 0.24555 0.37457
  -3  -4   847918.26 1252.49   1-0.73097 0.72335-0.65681 0.58556 0.18511 0.36588
   3   4  -845982.66 1164.13   1 0.02411-0.01652 0.98802-0.91681-0.15241-0.39896
  -3  -4   847244.46 1227.41   1-0.03521 0.02742-0.98766 0.91681 0.15259 0.39836
  -3  -4   792595.71 1467.89   1-0.72411 0.67326-0.68885 0.58792 0.03378 0.44839
   3   4  -795585.95 1455.43   1-0.09062 0.14143 0.99429-0.89362-0.05623-0.42593
  -3  -4   796227.59 1459.59   1-0.13352 0.08265-0.99047 0.88998 0.03371 0.44843
  -3  -4   621617.15 1159.89   1-0.69445 0.60035-0.70519 0.57460-0.14292 0.55624
   3   4  -619847.93 1249.37   1-0.18932 0.28329 0.98149-0.85117 0.02856-0.44185
  -3  -4   619002.74 1186.41   1-0.25699 0.16293-0.95861 0.82847-0.12253 0.53580
  -3  -4   5 3311.65  307.63   1-0.63303 0.49572-0.69584 0.53561-0.33921 0.68364
   3   4  -5 3207.24  482.51   1-0.27068 0.40783 0.95743-0.79745 0.10026-0.44467
  -3  -4   5 2584.99  192.82   1-0.40414 0.26689-0.85612 0.69621-0.32203 0.66637
  -3  -4   4206931.4 1534.17   1-0.53508 0.35456-0.65191 0.46214-0.53729 0.81284
   3   4  -4209337.1 1538.92   1-0.33461 0.51504 0.92896-0.73926 0.15829-0.43384
  -3  -4   3196560.5 1484.12   1-0.40818 0.18436-0.57339 0.35387-0.71035 0.91694
   3   4  -3189959.2 1411.86   1-0.38252 0.60613 0.90153-0.68218 0.20227-0.40893
  -3  -4   2  899.58  239.50   1-0.27307 0.00609-0.47537 0.22625-0.83633 0.97405
   3   4  -2  697.40  117.56   1-0.41532 0.68210 0.87937-0.63038 0.23282-0.37060
   3   4  -116008.91 1021.61   1 0.15146 0.15846 0.37734-0.09867 0.91360-0.98242
   3   4  -115319.76  970.36   1-0.43422 0.74418 0.86523-0.58660 0.25061-0.31949
   3   4   0 5677.32  703.95   1 0.05431 0.29881 0.29417 0.01409 0.95420-0.95420
   3   4   0 4032.37  268.78   1-0.44015 0.79328 0.86059-0.55231 0.25621-0.25621
   3   4   129473.24  814.68   1-0.01713 0.41336 0.23006 0.10769 0.97302-0.90417
   3   4   126096.53  694.29   1-0.43348 0.82979 0.86581-0.52789 0.24990-0.18102
   3   4   238850.12 1509.23   1-0.06665 0.50598 0.18433 0.18302 0.98060-0.84289
   3   4   234720.34 1307.57   1-0.41385 0.85334 0.88042-0.51286 0.23145-0.09367
   3   4   3 4879.30  579.47   1-0.09887 0.58129 0.15397 0.24298 0.98311-0.77656
   3   4   3 4783.36  290.64   1-0.37983 0.86249 0.90322-0.50601 0.19978 0.00687
   3   4   416431.25 1358.03   1-0.11779 0.64331 0.13591 0.29064 0.98369-0.70828
   3   4   416884.68  750.63   1-0.32827 0.85410 0.93218-0.50533 0.15253 0.12301
   3   4   519317.55 1424.25   1-0.12644 0.69506 0.12759 0.32856 0.98373-0.63947
   3   4   6  189.10  121.18   1-0.12701 0.73872 0.12705 0.35870 0.98373-0.57062
  -3  -5  13 3639.20  436.35   1-0.64801 0.82986-0.47203 0.47194 0.59771 0.29763
  -3  -5  1215419.95  952.90   1-0.67741 0.81606-0.51995 0.49021 0.52034 0.30612
  -3  -5  1216303.66 1011.71   1 0.15334-0.01457-0.91732 0.88809 0.36741 0.45943
  -3  -5  1192996.55 3874.01   1-0.70225 0.79771-0.56646 0.50708 0.43122 0.32637
  -3  -5  1197138.8512350.29   1 0.09406 0.00144-0.94876 0.88983 0.30166 0.45627
  -3  -5  1010084.08  533.56   1-0.72076 0.77298-0.61078 0.52172 0.32777 0.36097
   3   5 -10 7967.73  342.11   1 0.13063-0.18265 0.96249-0.87362-0.23778-0.45100
  -3  -5  1010651.75  741.91   1 0.02641 0.02556-0.97405 0.88550 0.22476 0.46393
  -3  -5   911820.57  609.42   1-0.73047 0.73949-0.65068 0.53198 0.20738 0.41248
   3   5  -912651.02  595.85   1-0.00081-0.00826 0.99126-0.87255-0.13185-0.48844
  -3  -5   912226.00  838.37   1-0.05151 0.06028-0.98974 0.87153 0.13321 0.48661
  -3  -5   824788.90 1471.06   1-0.72710 0.69289-0.68320 0.53480 0.06745 0.48360
   3   5  -828768.52 1546.20   1-0.11356 0.14770 0.99285-0.84477-0.03672-0.51432
  -3  -5   823872.68 1420.72   1-0.14298 0.10872-0.98947 0.84163 0.02202 0.52899
  -3  -5   755439.93 1413.76   1-0.70531 0.62789-0.70281 0.52478-0.09257 0.57475
   3   5  -756087.61 1402.52   1-0.20967 0.28698 0.97667-0.79894 0.04633-0.52851
  -3  -5   754062.34 1341.28   1-0.25057 0.17312-0.96133 0.78383-0.11420 0.59634
  -3  -5   661973.91 1032.57   1-0.65866 0.53799-0.70271 0.49501-0.26897 0.68229
   3   5  -661547.85  999.87   1-0.28842 0.40904 0.95037-0.74289 0.11657-0.52989
  -3  -5   660826.42  957.81   1-0.37184 0.25119-0.88604 0.67873-0.27687 0.69008
  -3  -5   570125.03 1721.96   1-0.58316 0.41927-0.67614 0.43892-0.45027 0.79470
   3   5  -571616.31 1760.91   1-0.35131 0.51510 0.92003-0.68290 0.17354-0.51797
  -3  -5   437305.88  966.83   1-0.48143 0.27422-0.62074 0.35373-0.61878 0.89424
   3   5  -438312.40  985.89   1-0.39920 0.60617 0.89062-0.62385 0.21776-0.49330
  -3  -5   3325489.816534.30   1-0.36542 0.11501-0.54368 0.24704-0.75556 0.96215
   3   5  -3305975.815540.41   1-0.43346 0.68361 0.86583-0.56941 0.24989-0.45655
  -3  -5   261638.30 1037.28   1-0.25104-0.04252-0.45828 0.13206-0.85261 0.99032
   3   5  -256738.54  933.66   1-0.45539 0.74872 0.84813-0.52207 0.27069-0.40847
   3   5  -1  543.18  197.27   1 0.15136 0.18514 0.37725-0.02151 0.91365-0.98247
   3   5  -1  243.22  128.15   1-0.46548 0.80226 0.83926-0.48370 0.28097-0.34986
   3   5   0  752.23  130.44   1 0.07154 0.30815 0.30924 0.07608 0.94828-0.94828
   3   5   0  536.43  115.69   1-0.46549 0.84548 0.83925-0.45408 0.28099-0.28099
   3   5   1 5871.73  727.50   1 0.01178 0.41111 0.25636 0.15855 0.96650-0.89768
   3   5   1 4177.88  544.33   1-0.45563 0.87848 0.84793-0.43295 0.27092-0.20203
   3   5   214963.52 1100.71   1-0.03069 0.49659 0.21764 0.22675 0.97554-0.83784
   3   5   213873.45 1002.21   1-0.43415 0.90017 0.86529-0.42067 0.25053-0.11276
   3   5   314635.23  854.13   1-0.05888 0.56787 0.19158 0.28241 0.97970-0.77315
   3   5   314660.52  663.89   1-0.40024 0.90944 0.88992-0.41565 0.21872-0.01206
   3   5   4  336.78   87.59   1-0.07565 0.62773 0.17590 0.32769 0.98149-0.70608
   3   5   5 6706.55 1688.39   1-0.08326 0.67844 0.16874 0.36445 0.98213-0.63787
  -3  -6  13 1527.56  299.94   1-0.67174 0.82705-0.51028 0.43309 0.53699 0.35834
  -3  -6  13 1637.22  255.59   1 0.14688 0.00848-0.92118 0.84454 0.36033 0.53541
  -3  -6  12  518.24  217.04   1-0.69765 0.80976-0.55719 0.45035 0.45035 0.37612
  -3  -6  12   51.73  113.63   1 0.08694 0.02516-0.95194 0.84562 0.29365 0.53319
  -3  -6  1140989.79 2306.72   1-0.71745 0.78630-0.60170 0.46518 0.35102 0.40659
  -3  -6  1143574.71 2445.05   1 0.01985 0.04868-0.97592 0.84000 0.21717 0.54039
  -3  -6  1058010.60 2378.10   1-0.72919 0.75484-0.64188 0.47572 0.23720 0.45154
   3   6 -1057595.30 2412.66   1-0.00840-0.01733 0.99204-0.82582-0.12557-0.56365
  -3  -6  1056487.00 2299.00   1-0.05530 0.08064-0.99014 0.82455 0.12869 0.56000
  -3  -6   9  179.77  191.21   1-0.72954 0.71196-0.67549 0.47964 0.10706 0.51287
   3   6  -9  348.53  131.89   1-0.11967 0.13714 0.99231-0.79683-0.03150-0.58842
  -3  -6   9  775.94  110.41   1-0.14037 0.12271-0.98977 0.79456 0.02525 0.59464
  -3  -6   810390.56  683.24   1-0.71465 0.65386-0.69836 0.47286-0.03958 0.59064
   3   6  -810715.82  672.74   1-0.21402 0.27466 0.97554-0.75040 0.05015-0.60120
  -3  -6   811845.02  892.72   1-0.23644 0.17559-0.96689 0.74203-0.09593 0.64695
  -3  -6   732940.92  890.03   1-0.67975 0.57571-0.70558 0.45041-0.20020 0.68241
   3   6  -732297.68  847.04   1-0.29137 0.39536 0.94914-0.69424 0.11922-0.60142
  -3  -6   730937.18  798.28   1-0.34125 0.23720-0.91013 0.65544-0.23495 0.71702
  -3  -6   616104.62 1337.05   1-0.62154 0.47427-0.69201 0.40735-0.36714 0.78046
   3   6  -615433.11  948.78   1-0.35370 0.50086 0.91869-0.63414 0.17573-0.58905
  -3  -6   556059.84 1421.16   1-0.54053 0.35004-0.65485 0.34055-0.52819 0.87263
   3   6  -555526.29 1399.34   1-0.40203 0.59237 0.88870-0.57450 0.22039-0.56483
  -3  -6   453062.32 1362.56   1-0.44298 0.20917-0.59650 0.25239-0.66928 0.94474
   3   6  -448909.21 1264.95   1-0.43778 0.67129 0.86246-0.51862 0.25396-0.52951
  -3  -6   370654.87 1792.50   1-0.34009 0.06315-0.52559 0.15191-0.77979 0.98637
   3   6  -361570.89 1546.55   1-0.46169 0.73864 0.84256-0.46917 0.27735-0.48401
  -3  -6   2140916.6 3411.84   1-0.24324-0.07691-0.45217 0.04883-0.85812 0.99584
   3   6  -2123902.6 2990.41   1-0.47598 0.79615 0.82989-0.42689 0.29105-0.42883
   3   6  -1 2326.32  259.30   1 0.16004 0.20302 0.38447 0.04833 0.90915-0.97797
   3   6  -1 2594.35  300.32   1-0.48085 0.84423 0.82541-0.39281 0.29574-0.36463
   3   6   0 5827.08  653.82   1 0.09308 0.31319 0.32789 0.13450 0.94011-0.94011
   3   6   0 4939.57  302.36   1-0.47667 0.88327 0.82926-0.36705 0.29172-0.29172
   3   6   1  505.97  158.95   1 0.04223 0.40723 0.28351 0.20846 0.95803-0.88921
   3   6   1  108.34  106.21   1-0.46334 0.91315 0.84113-0.34932 0.27893-0.21004
   3   6   2 -102.01  146.60   1 0.00564 0.48702 0.25084 0.27073 0.96801-0.83036
   3   6   2  -97.60  105.71   1-0.44089 0.93346 0.86000-0.33830 0.25691-0.11914
   3   6   3 5888.36  909.50   1-0.01915 0.55470 0.22821 0.32281 0.97342-0.76686
   3   6   3 6459.23  439.24   1-0.40657 0.94232 0.88557-0.33423 0.22463-0.01797
   3   6   4 4018.58  883.61   1-0.03386 0.61251 0.21474 0.36589 0.97608-0.70067
  -3  -7  13 3195.21  398.35   1-0.69093 0.81968-0.54427 0.38998 0.47579 0.41955
  -3  -7  13 2520.58  703.68   1 0.08760 0.04111-0.95166 0.79792 0.29439 0.60135
  -3  -7  12 2743.36  400.43   1-0.71251 0.79800-0.58943 0.40546 0.38064 0.44585
  -3  -7  12 2188.90  494.73   1 0.02173 0.06338-0.97540 0.79210 0.21935 0.60708
  -3  -7  11 6392.06  507.83   1-0.72669 0.76898-0.63041 0.41680 0.27292 0.48469
   3   7 -11 6430.72  741.11   1-0.00211-0.04029 0.99140-0.77768-0.13078-0.62736
  -3  -7  11 5585.66  882.85   1-0.05045 0.09237-0.98963 0.77667 0.13447 0.62309
  -3  -7  1054666.73 2336.45   1-0.73086 0.72991-0.66554 0.42223 0.15128 0.53753
   3   7 -1052995.13 2222.19   1-0.11294 0.11374 0.99290-0.75001-0.03725-0.65156
  -3  -7  1050491.75 2130.49   1-0.13022 0.12893-0.99076 0.74814 0.03781 0.65089
  -3  -7   910047.53  775.15   1-0.72215 0.67799-0.69155 0.41860 0.01571 0.60422
   3   7  -9 9417.72  935.78   1-0.20657 0.25054 0.97745-0.70491 0.04362-0.66356
  -3  -7   9 8768.75  763.06   1-0.21754 0.17330-0.97341 0.70118-0.07169 0.69159
  -3  -7   8 1008.65  173.51   1-0.69695 0.60953-0.70485 0.40221-0.13205 0.68314
   3   7  -8  772.13  135.13   1-0.28349 0.37084 0.95239-0.65006 0.11215-0.66324
  -3  -7   8 1066.93  164.68   1-0.31103 0.22358-0.93033 0.62825-0.19424 0.74518
  -3  -7   712389.16  790.11   1-0.65256 0.52194-0.70136 0.36908-0.28678 0.76899
   3   7  -712022.78  761.08   1-0.34601 0.47654 0.92294-0.59096 0.16869-0.65089
  -3  -7   711115.87  693.00   1-0.40618 0.27552-0.85407 0.52235-0.32491 0.80698
  -3  -7   6 7362.47  509.52   1-0.58838 0.41452-0.67851 0.31676-0.43980 0.85312
   3   7  -6 6487.33  462.95   1-0.39524 0.56895 0.89328-0.53166 0.21407-0.62739
  -3  -7   5 6450.97  577.64   1-0.50772 0.29052-0.63640 0.24481-0.58070 0.92501
   3   7  -5 6238.73  569.83   1-0.43264 0.64952 0.86646-0.47520 0.24911-0.59354
  -3  -7   430341.34  854.81   1-0.41798 0.15758-0.58000 0.15879-0.69920 0.97465
   3   7  -425130.93  730.54   1-0.45891 0.71926 0.84495-0.42413 0.27469-0.55025
  -3  -7   3 5078.76  690.87   1-0.32784 0.02431-0.51662 0.06583-0.79095 0.99753
   3   7  -3 3938.96  529.12   1-0.47630 0.77986 0.82960-0.37917 0.29136-0.49803
  -3  -7   252633.60 1415.65   1-0.24520-0.10155-0.45370-0.02672-0.85675 0.99447
   3   7  -244098.51 1194.35   1-0.48504 0.83182 0.82149-0.34146 0.29979-0.43757
  -3  -7   1 6295.89  537.04   1-0.17458-0.21539-0.39693-0.11315-0.90109 0.96994
   3   7  -1 5900.10  492.95   1-0.48564 0.87563 0.82092-0.31128 0.30037-0.36926
   3   7   0 1272.53  197.37   1 0.11769 0.31514 0.34894 0.19052 0.92972-0.92972
   3   7   0 1153.46  220.65   1-0.47824 0.91144 0.82782-0.28858 0.29323-0.29323
   3   7   1 2286.58  343.84   1 0.07396 0.40207 0.31134 0.25770 0.94741-0.87859
   3   7   1 1502.71  235.83   1-0.46256 0.93898 0.84181-0.27296 0.27818-0.20929
   3   7   2  944.77  208.85   1-0.43854 0.95765 0.86186-0.26309 0.25469-0.11691
   3   7   3 1579.62  361.63   1 0.02072 0.54171 0.26438 0.36384 0.96419-0.75773
   3   7   3 1456.15  263.27   1-0.40336 0.96565 0.88778-0.25937 0.22164-0.01498
  -3  -8  12 9698.81  763.92   1-0.72256 0.78149-0.61614 0.35508 0.31347 0.51302
  -3  -8  12 5473.67 1312.80   1-0.03928 0.09777-0.98824 0.72790 0.14777 0.67866
  -3  -8  11 6983.61  843.17   1-0.73070 0.74642-0.65293 0.36222 0.19937 0.55824
   3   8 -11 7608.61  871.75   1-0.09587 0.08001 0.99404-0.70375-0.05177-0.70592
  -3  -8  11 6717.21  789.18   1-0.11450 0.12978-0.99177 0.70178 0.05710 0.70046
  -3  -8  1042688.59 1845.80   1-0.72752 0.70000-0.68217 0.36175 0.07309 0.61572
   3   8 -1040340.46 1712.34   1-0.18988 0.21718 0.98137-0.66143 0.02905-0.71787
  -3  -8  1038553.22 1649.71   1-0.19525 0.16762-0.97979 0.66020-0.04336 0.73214
  -3  -8   939174.92 1643.32   1-0.71063 0.63990-0.70065 0.35060-0.06387 0.68381
   3   8  -939803.26 1644.22   1-0.26767 0.33814 0.95855-0.60895 0.09757-0.71751
  -3  -8   936739.96 1614.76   1-0.28065 0.20983-0.94745 0.59821-0.15347 0.77337
  -3  -8   8  590.62  202.47   1-0.67753 0.56354-0.70543 0.32569-0.20808 0.75917
   3   8  -8  684.84  143.26   1-0.33064 0.44454 0.93099-0.55158 0.15469-0.70578
  -3  -8   8  866.90  177.37   1-0.36733 0.25327-0.88983 0.51073-0.27064 0.82158
  -3  -8   7 1916.60  211.07   1-0.62740 0.47020-0.69397 0.28459-0.35320 0.83541
   3   8  -7 1710.27  224.39   1-0.38123 0.53830 0.90234-0.49330 0.20107-0.68328
  -3  -8   619736.11  664.11   1-0.56169 0.36125-0.66582 0.22700-0.49109 0.90441
   3   8  -617682.21  606.83   1-0.42048 0.62073 0.87561-0.43693 0.23766-0.65098
  -3  -8   5 3189.06  275.37   1-0.48498 0.24119-0.62290 0.15421-0.61382 0.95814
   3   8  -5 2631.25  285.32   1-0.44967 0.69310 0.85289-0.38456 0.26525-0.60968
  -3  -8   4  935.21  219.16   1-0.40397 0.11697-0.57053 0.07222-0.71505 0.99050
   3   8  -4 1491.28  231.16   1-0.46929 0.75624 0.83591-0.33806 0.28462-0.56018
  -3  -8   3 3960.04  356.23   1-0.32519-0.00493-0.51467-0.01322-0.79332 0.99990
   3   8  -3 3589.20  330.46   1-0.48136 0.81153 0.82494-0.29748 0.29624-0.50290
  -3  -8   2 4359.88  474.19   1-0.25411-0.11923-0.46068-0.09686-0.85041 0.98812
   3   8  -2 3279.41  335.41   1-0.48587 0.85925 0.82071-0.26364 0.30059-0.43837
  -3  -8   134317.27 1526.67   1-0.19357-0.22299-0.41245-0.17473-0.89017 0.95903
   3   8  -126226.29 1168.04   1-0.48309 0.89969 0.82332-0.23665 0.29791-0.36680
   3   8   014557.32  728.34   1 0.14464 0.31476 0.37164 0.24488 0.91703-0.91703
   3   8   012783.75  621.10   1-0.47300 0.93281 0.83258-0.21631 0.28819-0.28819
   3   8   1 3231.92  447.18   1 0.10676 0.39584 0.33962 0.30649 0.93448-0.86566
   3   8   1 3155.14  417.46   1-0.45588 0.95836 0.84772-0.20153 0.27116-0.20227
   3   8   211179.89 1326.60   1 0.07910 0.46670 0.31581 0.35989 0.94551-0.80787
   3   8   210012.00  754.93   1-0.42953 0.97518 0.86884-0.19301 0.24617-0.10840
  -3  -9  1211600.57 1287.36   1-0.72837 0.76073-0.63767 0.29951 0.25067 0.57582
  -3  -9  1126919.04 1579.62   1-0.73048 0.71959-0.66995 0.30207 0.13246 0.62524
   3   9 -1123547.32 1473.91   1-0.16543 0.17606 0.98618-0.61883 0.00783-0.76553
  -3  -9  1122831.35 1366.15   1-0.17026 0.15924-0.98532 0.61837-0.01192 0.76958
  -3  -9  10 1293.27  282.41   1-0.72083 0.66673-0.69309 0.29557 0.00464 0.68417
   3   9 -10 1554.20  333.97   1-0.24457 0.29837 0.96656-0.56955 0.07706-0.76588
  -3  -9  10 1624.73  336.27   1-0.24945 0.19523-0.96180 0.56519-0.11274 0.80152
  -3  -9   951213.00 2180.04   1-0.69734 0.59997-0.70478 0.27757-0.13034 0.75032
   3   9  -948990.98 2077.00   1-0.30901 0.40627 0.94141-0.51458 0.13509-0.75507
  -3  -9   948234.06 2035.85   1-0.32975 0.23230-0.91822 0.49172-0.21938 0.83919
  -3  -9   8 6450.01  597.15   1-0.65903 0.51846-0.70279 0.24594-0.26787 0.81896
   3   9  -8 6343.27  568.81   1-0.36136 0.50180 0.91433-0.45786 0.18276-0.73385
  -3  -9   8 6023.95  716.26   1-0.40800 0.26734-0.85221 0.39608-0.32749 0.87843
  -3  -9   7  352.90  179.64   1-0.60637 0.42255-0.68619 0.19992-0.40179 0.88401
   3   9  -7   98.57  144.23   1-0.40269 0.58631 0.88824-0.40213 0.22101-0.70322
  -3  -9   6  734.08  157.18   1-0.54221 0.31518-0.65575 0.13984-0.52534 0.93867
   3   9  -6  550.19  114.60   1-0.43428 0.66107 0.86519-0.34944 0.25066-0.66398
  -3  -9   5 1280.67  207.62   1-0.47110 0.20072-0.61437 0.06858-0.63292 0.97724
   3   9  -5  593.53  143.05   1-0.45719 0.72716 0.84661-0.30121 0.27241-0.61684
  -3  -9   411123.33  618.60   1-0.39867 0.08508-0.56691-0.00850-0.72088 0.99633
   3   9  -4 9549.49  524.62   1-0.47167 0.78523 0.83378-0.25889 0.28691-0.56247
  -3  -9   330189.35 1383.87   1-0.32972-0.02699-0.51801-0.08698-0.78926 0.99584
   3   9  -324281.58 1118.82   1-0.47957 0.83635 0.82659-0.22210 0.29451-0.50118
  -3  -9   2  677.21  372.50   1-0.26816-0.13178-0.47158-0.16305-0.84005 0.97777
   3   9  -2  866.28  307.63   1-0.48066 0.88065 0.82559-0.19149 0.29556-0.43334
  -3  -9   119355.89 1431.89   1-0.21582-0.22734-0.43040-0.23388-0.87645 0.94531
   3   9  -115664.38 1140.52   1-0.47504 0.91825 0.83074-0.16704 0.29015-0.35904
  -3  -9   017674.60 1114.28   1-0.17335-0.31303-0.39592-0.29802-0.90177 0.90177
   3   9   014368.87  877.33   1-0.46256 0.94897 0.84181-0.14850 0.27818-0.27818
   3   9   1  897.59  278.28   1 0.14051 0.38866 0.36819 0.35499 0.91906-0.85024
   3   9   1 1576.28  299.29   1-0.44339 0.97241 0.85800-0.13474 0.25928-0.19039
  -3 -10  11 3764.45  555.28   1-0.72758 0.69012-0.68201 0.23703 0.07393 0.68376
   3  10 -11 3246.30  643.83   1-0.21536 0.25249 0.97518-0.53077 0.05132-0.80902
  -3 -10  11 2662.34  653.49   1-0.21730 0.17969-0.97348 0.52952-0.07139 0.82904
  -3 -10  1011218.35  726.77   1-0.71250 0.63183-0.69967 0.22505-0.05288 0.74170
   3  10 -1010529.02  803.71   1-0.28234 0.36264 0.95290-0.47884 0.11067-0.79949
  -3 -10  1010345.75  771.45   1-0.29262 0.21177-0.94103 0.46715-0.16976 0.85844
  -3 -10   9 3005.56  413.82   1-0.68434 0.56039-0.70572 0.20141-0.18338 0.80336
   3  10  -9 3978.47  527.39   1-0.33642 0.46023 0.92802-0.42412 0.15995-0.77993
  -3 -10   9 2938.97  393.56   1-0.36675 0.24269-0.89031 0.38679-0.26985 0.88965
  -3 -10   815603.76  935.81   1-0.64320 0.47605-0.69892 0.16497-0.31271 0.86380
   3  10  -815488.97  929.00   1-0.38008 0.54706 0.90306-0.36952 0.20001-0.75110
  -3 -10   719667.36  924.01   1-0.59054 0.38013-0.67947 0.11612-0.43540 0.91761
   3  10  -717780.12  828.27   1-0.41416 0.62432 0.88020-0.31702 0.23173-0.71394
  -3 -10   6  364.05  311.82   1-0.52965 0.27603-0.64894 0.05596-0.54619 0.95951
   3  10  -6  199.02  172.60   1-0.43974 0.69308 0.86091-0.26808 0.25583-0.66915
  -3 -10   519373.96  968.11   1-0.46473 0.16775-0.61039-0.01249-0.64143 0.98574
   3  10  -515398.77  748.97   1-0.45770 0.75422 0.84618-0.22371 0.27290-0.61733
  -3 -10   4 1395.89  338.23   1-0.40025 0.06007-0.56799-0.08452-0.71915 0.99460
  -3 -10   3 2089.13  445.64   1-0.33976-0.04354-0.52535-0.15674-0.78010 0.98667
   3  10  -3  620.91  200.06   1-0.47254 0.85592 0.83300-0.15148 0.28774-0.49441
  -3 -10   2 6861.72  815.49   1-0.28614-0.14039-0.48538-0.22636-0.82615 0.96387
   3  10  -2 6488.91  774.12   1-0.47071 0.89730 0.83464-0.12351 0.28599-0.42376
  -3 -10   1  626.33  357.24   1-0.24063-0.22912-0.45011-0.29128-0.85993 0.92879
   3  10  -1  145.28  163.04   1-0.46256 0.93237 0.84181-0.10107 0.27818-0.34707
  -3 -11  11  645.63  190.93   1-0.72315 0.65912-0.69023 0.16816 0.02471 0.73299
   3  11 -11  638.93  167.12   1-0.25012 0.31375 0.96473-0.44326 0.08198-0.83968
  -3 -11  11  253.48  135.88   1-0.25549 0.19131-0.95925 0.43827-0.12059 0.87824
  -3 -11  10 8820.52 1002.58   1-0.70401 0.59677-0.70323 0.15151-0.09915 0.78797
  -3 -11   9 1369.91  305.58   1-0.67299 0.52247-0.70501 0.12359-0.22367 0.84365
   3  11  -9 1020.91  291.14   1-0.35308 0.50343 0.91904-0.33808 0.17516-0.79514
  -3 -11   9  570.25  200.23   1-0.39358 0.24290-0.86645 0.28590-0.30715 0.92696
  -3 -11   826895.49 1590.00   1-0.63101 0.43728-0.69518 0.08413-0.34428 0.89537
   3  11  -825199.22 1493.74   1-0.38980 0.58333 0.89686-0.28625 0.20902-0.76011
  -3 -11   731116.25 1823.58   1-0.58001 0.34301-0.67468 0.03425-0.45649 0.93870
   3  11  -727230.48 1602.50   1-0.41810 0.65480 0.87736-0.23710 0.23543-0.71763
  -3 -11   6 1148.87  392.31   1-0.52333 0.24311-0.64543-0.02462-0.55636 0.96968
   3  11  -6  770.04  248.55   1-0.43886 0.71874 0.86161-0.19171 0.25499-0.66831
  -3 -11   520013.52 1252.43   1-0.46459 0.14102-0.61030-0.08968-0.64161 0.98593
   3  11  -517916.33 1103.74   1-0.45278 0.77584 0.85032-0.15078 0.26821-0.61264
  -3 -11   4 3951.44  624.65   1-0.40730 0.04052-0.57280-0.15682-0.71134 0.98679
   3  11  -4 3079.74  484.90   1-0.45971 0.82648 0.84426-0.11530 0.27545-0.55101
  -3 -11   3  296.69  248.57   1-0.35412-0.05578-0.53574-0.22346-0.76653 0.97311
   3  11  -3  141.79  173.34   1-0.46123 0.87122 0.84296-0.08439 0.27691-0.48357
  -3 -11   2 3339.47  512.95   1-0.30723-0.14589-0.50132-0.28753-0.80887 0.94659
   3  11  -2 2877.94  369.85   1-0.45746 0.91004 0.84639-0.05792 0.27266-0.41044
  -3 -12   9 1402.79  240.59   1-0.66416 0.48706-0.70375 0.04523-0.25221 0.87219
   3  12  -9 1710.86  267.25   1-0.36144 0.53834 0.91428-0.25625 0.18283-0.80281
  -3 -12   9 1765.95  282.43   1-0.41216 0.23488-0.84791 0.19033-0.33340 0.95320
  -3 -12   8 1343.04  329.11   1-0.62270 0.40233-0.69243 0.00456-0.36438 0.91547
   3  12  -8  988.39  292.10   1-0.39256 0.61263 0.89505-0.20738 0.21158-0.76267
  -3 -12   723078.30 2487.21   1-0.57451 0.31093-0.67209-0.04541-0.46713 0.94934
   3  12  -718545.42 1994.45   1-0.41613 0.67938 0.87878-0.16146 0.23358-0.71579
   3  12  -624488.57 2611.87   1-0.43290 0.73933 0.86625-0.11929 0.24936-0.66268
  -3 -12   5 1894.99  378.78   1-0.46960 0.11944-0.61344-0.16365-0.63494 0.97926
   3  12  -5 1286.66  317.58   1-0.44341 0.79301 0.85798-0.08138 0.25930-0.60374
  -4  12  -1 3834.63  659.57   1-0.71102 0.65793 0.45110 0.44395 0.53939-0.60829
  -4  12  -210295.46 1161.28   1-0.70951 0.61321 0.45568 0.40978 0.53752-0.67531
  -4  12  -330045.79 2099.55   1-0.70501 0.56548 0.46899 0.36687 0.53197-0.73866
  -4  12  -4  375.27  223.00   1-0.69707 0.51416 0.49124 0.31487 0.52226-0.79779
  -4  12  -532037.18 2216.17   1-0.68454 0.45842 0.52330 0.25321 0.50748-0.85190
  -4  12  -6 7343.43  850.72   1-0.66616 0.39681 0.56531 0.18159 0.48645-0.89975
   4 -12   6 7781.53  888.65   1-0.40230 0.67142-0.85796 0.11146-0.31943 0.73263
  -4  12  -7  590.75  224.88   1-0.63988 0.32732 0.61748 0.09982 0.45744-0.93962
   4 -12   7  268.53  172.15   1-0.34837 0.66070-0.90486 0.18800-0.24464 0.72671
  -4  11   2 9329.68 1031.87   1-0.72030 0.77026 0.42117 0.48561 0.55115-0.41336
  -4  11   1 6479.30  908.13   1-0.72545 0.73220 0.40308 0.47410 0.55788-0.48898
  -4  11   0  777.35  356.04   1-0.72812 0.69164 0.39325 0.45434 0.56142-0.56142
  -4  11  -1  318.35  218.11   1-0.72841 0.64872 0.39214 0.42586 0.56181-0.63070
  -4  11  -2 2274.34  355.90   1-0.72622 0.60331 0.40029 0.38812 0.55889-0.69668
  -4  11  -331351.06 2233.90   1-0.72114 0.55502 0.41828 0.34053 0.55225-0.75893
  -4  11  -428926.62 2057.32   1-0.71244 0.50310 0.44672 0.28250 0.54116-0.81674
  -4  11  -5 3501.03  462.86   1-0.69903 0.44630 0.48593 0.21353 0.52461-0.86902
  -4  11  -613548.69  843.81   1-0.67883 0.38289 0.53693 0.13293 0.50087-0.91417
   4 -11   613314.15  850.79   1-0.38257 0.67830-0.87664 0.20717-0.29176 0.70497
  -4  11  -712285.60  894.19   1-0.64925 0.31008 0.59980 0.04046 0.46766-0.94984
   4 -11   712084.47  903.34   1-0.32386 0.66280-0.92217 0.28233-0.21144 0.69352
   4 -11   8 6858.33  979.55   1-0.26287 0.64512-0.95600 0.34605-0.13019 0.68121
  -4  10   3  139.16  115.35   1-0.02320 0.08896 0.22451 0.63467 0.97419-0.76763
  -4  10   3   76.23  201.62   1-0.73219 0.79877 0.37746 0.48185 0.56693-0.36024
  -4  10   216826.99 1013.76   1 0.02274 0.00019 0.26618 0.56365 0.96365-0.82601
  -4  10   218592.16 1147.46   1-0.73828 0.76164 0.35185 0.47786 0.57543-0.43764
  -4  10   111978.64  868.12   1 0.08928-0.10954 0.32462 0.47562 0.94161-0.87279
  -4  10   113209.39 1006.02   1-0.74199 0.72213 0.33485 0.46527 0.58079-0.51189
   4 -10   0 1057.99  205.94   1-0.18213 0.24558-0.40312-0.36792-0.89683 0.89683
  -4  10   0 1041.29  339.46   1-0.74361 0.68054 0.32698 0.44356 0.58319-0.58319
   4 -10   1  343.29  149.60   1-0.30662 0.41330-0.50086-0.24053-0.80939 0.87824
  -4  10  -1  266.05  204.87   1-0.74323 0.63694 0.32885 0.41209 0.58262-0.65152
  -4  10  -2 3777.01  464.73   1-0.74064 0.59113 0.34119 0.37016 0.57882-0.71661
  -4  10  -3 2345.19  348.99   1-0.73529 0.54257 0.36476 0.31700 0.57121-0.77789
  -4  10  -430082.55 1351.06   1-0.72619 0.49024 0.40041 0.25175 0.55885-0.83442
  -4  10  -523569.77 1091.47   1-0.71171 0.43255 0.44897 0.17360 0.54026-0.88473
   4 -10   523244.57 1068.73   1-0.41629 0.69542-0.84355 0.22146-0.33928 0.68361
  -4  10  -610478.63  668.72   1-0.68953 0.36699 0.51093 0.08189 0.51331-0.92661
   4 -10   6 9773.46 1162.11   1-0.35573 0.67807-0.89920 0.30676-0.25470 0.66791
  -4  10  -730518.26 2137.32   1-0.65554 0.28978 0.58737-0.02415 0.47460-0.95678
   4 -10   733459.91 2345.14   1-0.29218 0.65773-0.94127 0.37847-0.16918 0.65125
   4 -10   8 4082.23 1033.74   1-0.22755 0.63638-0.97009 0.43715-0.08451 0.63553
   4 -10   9 1673.93  515.82   1-0.16312 0.61514-0.98660 0.48332-0.00299 0.62289
  -4   9   5 2484.62  552.62   1-0.13610 0.26149 0.11827 0.72308 0.98360-0.63935
  -4   9   5 4455.22  551.63   1-0.73186 0.85827 0.37876 0.46267 0.56648-0.22200
  -4   9   4 6112.49 1028.11   1-0.11868 0.20097 0.13505 0.67669 0.98370-0.70829
  -4   9   4 7383.55  598.79   1-0.74176 0.82495 0.33594 0.47591 0.58045-0.30487
  -4   9   3  981.47  265.62   1-0.08798 0.12718 0.16428 0.61787 0.98248-0.77592
  -4   9   3  968.67  287.88   1-0.74845 0.78843 0.30166 0.48060 0.59060-0.38392
  -4   9   2 2608.61  386.94   1-0.03909 0.03519 0.20992 0.54263 0.97693-0.83923
  -4   9   2 3590.84  527.21   1-0.75272 0.74948 0.27632 0.47634 0.59753-0.45974
  -4   9   122900.69 1080.15   1 0.03521-0.08204 0.27729 0.44589 0.96013-0.89131
  -4   9   123534.65 1093.38   1-0.75510 0.70865 0.26047 0.46260 0.60163-0.53273
  -4   9   017130.79  742.55   1 0.14430-0.23433 0.37137 0.32222 0.91720-0.91720
  -4   9   017776.34  847.97   1-0.75591 0.66623 0.25479 0.43869 0.60305-0.60305
   4  -9   1  455.27  164.88   1-0.29665 0.42992-0.49335-0.17093-0.81767 0.88653
  -4   9  -1  329.19  199.65   1-0.75516 0.62226 0.26010 0.40379 0.60172-0.67062
   4  -9   2 6770.11  475.22   1-0.48807 0.66453-0.62476-0.00990-0.60946 0.74719
  -4   9  -2 6266.48  516.56   1-0.75255 0.57644 0.27736 0.35693 0.59726-0.73505
  -4   9  -3 5736.52  551.43   1-0.74735 0.52803 0.30766 0.29704 0.58889-0.79557
  -4   9  -412433.25  901.50   1-0.73821 0.47567 0.35219 0.22292 0.57532-0.85090
  -4   9  -520768.94  930.28   1-0.72290 0.41714 0.41219 0.13333 0.55453-0.89900
   4  -9   516901.71  785.88   1-0.38711 0.69285-0.87251 0.32745-0.29810 0.64244
  -4   9  -6  568.90  135.71   1-0.69806 0.34893 0.48856 0.02721 0.52345-0.93675
   4  -9   6  974.10  192.48   1-0.32051 0.66946-0.92436 0.40894-0.20694 0.62014
  -4   9  -719167.39 1101.89   1-0.65778 0.26543 0.58284-0.09666 0.47709-0.95927
   4  -9   718853.94 1687.29   1-0.25255 0.64477-0.96051 0.47494-0.11676 0.59891
   4  -9   828319.75 1649.85   1-0.18498 0.62039-0.98227 0.52635-0.03040 0.58142
   4  -9   9  279.12  117.94   1-0.11933 0.59768-0.99153 0.56518 0.05119 0.56863
  -4   8   6  311.48  157.47   1-0.20863 0.35128 0.04650 0.74743 0.97688-0.56385
  -4   8   6  455.37  226.69   1-0.73853 0.88156 0.35074 0.44324 0.57579-0.16242
  -4   8   5  524.62  243.21   1-0.20290 0.30236 0.05224 0.71212 0.97780-0.63360
  -4   8   5  950.61  306.21   1-0.74919 0.84900 0.29746 0.46692 0.59178-0.24731
  -4   8   4 8484.76  927.17   1-0.18740 0.24313 0.06798 0.66673 0.97992-0.70452
  -4   8   4 8772.74  605.97   1-0.75613 0.81272 0.25317 0.48163 0.60346-0.32788
  -4   8   323181.79 1041.44   1-0.15708 0.16971 0.09786 0.60725 0.98272-0.77616
  -4   8   326027.09 1189.33   1-0.76035 0.77360 0.21805 0.48727 0.61181-0.40508
  -4   8   2 3295.51  371.73   1-0.10595 0.07548 0.14723 0.52828 0.98341-0.84570
  -4   8   2 3344.28  278.27   1-0.76280 0.73284 0.19288 0.48284 0.61718-0.47937
  -4   8   117290.66 1246.73   1-0.02344-0.05011 0.22429 0.42161 0.97423-0.90538
  -4   8   117421.09 1282.96   1-0.76399 0.69081 0.17823 0.46790 0.62011-0.55120
  -4   8   041364.55 1064.58   1 0.10654-0.22313 0.33943 0.27709 0.93457-0.93457
  -4   8   038835.19 1129.52   1-0.76423 0.64784 0.17499 0.44155 0.62074-0.62074
   4  -8   122689.14  602.25   1-0.30130 0.46116-0.49686-0.09032-0.81384 0.88270
  -4   8  -119232.31  642.41   1-0.76352 0.60392 0.18427 0.40268 0.61892-0.68783
   4  -8   2 1679.00  105.89   1-0.54973 0.75283-0.65971 0.10234-0.51242 0.65019
  -4   8  -2 2121.95  255.44   1-0.76145 0.55863 0.20739 0.34996 0.61414-0.75196
   4  -8   311245.34  461.02   1-0.72285 0.96922-0.69065 0.16275 0.02194 0.18470
  -4   8  -311534.78  576.96   1-0.75712 0.51119 0.24582 0.28183 0.60525-0.81194
  -4   8  -4 5614.41  489.13   1-0.74848 0.45934 0.30149 0.19657 0.59065-0.86623
  -4   8  -539131.01 1547.97   1-0.73249 0.40013 0.37628 0.09219 0.56733-0.91180
   4  -8   535797.24 1429.90   1-0.34789 0.68024-0.90522 0.43719-0.24398 0.58832
  -4   8  -6 2838.96  225.18   1-0.70389 0.32831 0.47221-0.03333 0.53061-0.94397
   4  -8   6 2733.27  318.21   1-0.27572 0.65134-0.94993 0.51172-0.14699 0.56026
  -4   8  -713499.41  617.21   1-0.65383 0.23488 0.59079-0.18165 0.47271-0.95489
   4  -8   716508.27 1220.85   1-0.20423 0.62303-0.97739 0.56883-0.05474 0.53688
   4  -8   817116.25 1737.91   1-0.13511 0.59710-0.99032 0.61142 0.03176 0.51926
   4  -8   912934.34 1484.83   1-0.06933 0.57431-0.99130 0.64198 0.11187 0.50795
  -4   7   7 5870.51 1181.28   1-0.27141 0.43066-0.01754 0.76400 0.96230-0.48043
  -4   7   7 7638.60  870.32   1-0.74328 0.90292 0.32862 0.41790 0.58270-0.10043
  -4   7   6  789.86  293.09   1-0.27585 0.39191-0.02216 0.73904 0.96094-0.54791
  -4   7   6 1199.85  333.39   1-0.75472 0.87114 0.26315 0.45378 0.60095-0.18758
  -4   7   5  238.61   92.09   1-0.27286 0.34573-0.01905 0.70636 0.96186-0.61766
  -4   7   5  480.23  196.76   1-0.76148 0.83456 0.20706 0.48038 0.61421-0.26966
  -4   7   4  236.06  144.07   1-0.25966 0.28933-0.00539 0.66312 0.96568-0.69032
  -4   7   4 1042.01  194.80   1-0.76517 0.79504 0.16089 0.49696 0.62339-0.34775
  -4   7   317685.37  765.64   1-0.23148 0.21796 0.02344 0.60471 0.97255-0.76603
  -4   7   317278.07  767.19   1-0.76685 0.75351 0.12483 0.50342 0.62955-0.42282
  -4   7   251377.73 1363.44   1-0.18037 0.12334 0.07495 0.52352 0.98073-0.84303
  -4   7   256912.07 1515.68   1-0.76742 0.71086 0.09956 0.49910 0.63335-0.49554
  -4   7   1 3366.64  571.51   1-0.08965-0.01047 0.16271 0.40616 0.98259-0.91374
  -4   7   1 3106.34  469.89   1-0.76752 0.66774 0.08596 0.48310 0.63522-0.56632
  -4   7   039892.01  970.49   1 0.06902-0.21218 0.30704 0.23241 0.94918-0.94918
   4  -7   041618.71  998.19   1-0.63937 0.78281-0.45883-0.08085 0.61698-0.61698
  -4   7   041496.82 1114.47   1-0.76752 0.62453 0.08526 0.45422 0.63532-0.63532
   4  -7   141230.26  973.11   1-0.62246 0.80898-0.43341-0.07655 0.65168-0.58282
   4  -7   145377.56 1073.67   1-0.33551 0.52197-0.52225 0.01216-0.78401 0.85287
  -4   7  -142248.65 1121.08   1-0.76743 0.58123 0.09895 0.41093 0.63344-0.70235
   4  -7   2  947.13   86.56   1-0.60418 0.83390-0.40743-0.07290 0.68480-0.54707
   4  -7   2 1028.87   96.44   1-0.66597 0.89571-0.70405 0.22360-0.24654 0.38432
  -4   7  -2 1039.27  221.32   1-0.76671 0.53730 0.12894 0.35134 0.62889-0.76671
  -4   7  -3 9219.18  789.28   1-0.76404 0.49141 0.17754 0.27315 0.62025-0.82698
   4  -7   4  215.41   45.86   1-0.11515 0.43075 0.13844-0.55931 0.98365-0.70824
   4  -7   4  379.18   57.08   1-0.56035 0.87645-0.34837-0.07269 0.75142-0.47596
  -4   7  -4  459.45  157.50   1-0.75691 0.44117 0.24737 0.17364 0.60488-0.88046
   4  -7   4  711.49  205.71   1-0.37446 0.69020-0.88379 0.46315-0.28049 0.55596
   4  -7   5 3408.65  160.92   1-0.53781 0.89710-0.31939-0.07204 0.78021-0.43589
  -4   7  -5 3764.79  255.48   1-0.74046 0.38150 0.34200 0.04941 0.57856-0.92304
   4  -7   5 3698.02  266.75   1-0.29678 0.65574-0.93871 0.54771-0.17528 0.51961
  -4   7  -632970.08 1286.77   1-0.70636 0.30418 0.46506-0.10323 0.53363-0.94700
   4  -7   633408.14 1372.81   1-0.22037 0.62256-0.97250 0.61131-0.07530 0.48857
   4  -7   7 3750.45  758.20   1-0.14724 0.59262-0.98895 0.65742 0.01675 0.46538
   4  -7   8 5831.72  747.62   1-0.07854 0.56695-0.99180 0.68985 0.10078 0.45017
   4  -7   929377.73 2034.34   1-0.01409 0.54571-0.98401 0.71173 0.17752 0.44230
  -4   6   8  245.63  161.38   1-0.32408 0.49995-0.07302 0.77200 0.94320-0.39249
  -4   6   719551.94 1200.32   1-0.33692 0.46959-0.08680 0.75621 0.93752-0.45565
  -4   6   721102.68 1237.58   1-0.75855 0.89160 0.23444 0.43502 0.60796-0.12570
  -4   6   6 5964.05  506.71   1-0.34466 0.43414-0.09517 0.73500 0.93388-0.52085
  -4   6   6 6743.76  398.84   1-0.76493 0.85462 0.16475 0.47522 0.62268-0.20922
  -4   6   5 1475.60  255.18   1-0.34569 0.39197-0.09629 0.70653 0.93339-0.58919
  -4   6   5  998.56  203.53   1-0.76733 0.81381 0.10561 0.50476 0.63248-0.28793
  -4   6   4  268.35   97.02   1-0.33718 0.34027-0.08709 0.66776 0.93739-0.66204
  -4   6   4  457.91  251.56   1-0.76724 0.77051 0.05695 0.52383 0.63881-0.36317
  -4   6   3 1187.28  206.88   1-0.31391 0.27380-0.06218 0.61327 0.94741-0.74089
  -4   6   3 1356.33  282.11   1-0.76591 0.72597 0.01927 0.53191 0.64264-0.43591
  -4   6   233428.04  913.19   1-0.26540 0.18209-0.01132 0.53283 0.96407-0.82639
  -4   6   236693.80 1005.83   1-0.76437 0.68121-0.00658 0.52818 0.64474-0.50692
  -4   6   125388.06  694.15   1-0.16913 0.04244 0.08604 0.40579 0.98182-0.91297
   4  -6  -125796.63  656.11   1-0.67453 0.80132-0.51501 0.02277 0.52891-0.59779
  -4   6   130097.36  895.00   1-0.76340 0.63703-0.01944 0.51145 0.64562-0.57671
  -4   6   018938.96  994.90   1 0.03134-0.20107 0.27385 0.18854 0.96125-0.96125
   4  -6   020165.11 1040.14   1-0.67105 0.84104-0.50911 0.04652 0.53896-0.53896
  -4   6   020892.96 1133.65   1-0.76354 0.59395-0.01772 0.48013 0.64551-0.64551
   4  -6   157843.20  828.30   1-0.68426 0.89744-0.53203 0.09909 0.49871-0.42984
   4  -6   156656.45  812.45   1-0.44942 0.66246-0.60066 0.16767-0.66122 0.73008
  -4   6  -158681.31 1012.16   1-0.76485 0.55205 0.00071 0.43210 0.64419-0.71310
  -4   6  -2 1997.11  200.11   1-0.76674 0.51072 0.03864 0.36458 0.64079-0.77861
  -4   6  -3 3194.75  288.45   1-0.76742 0.46819 0.09965 0.27397 0.63334-0.84007
   4  -6   3 2907.08  238.74   1-0.40038 0.69952-0.85987 0.48662-0.31671 0.52332
   4  -6   4 7731.84  625.72   1-0.46280 0.80535-0.22798-0.11615 0.85664-0.58130
  -4   6  -4 6544.27  531.28   1-0.30569-0.03702-0.50016 0.84420-0.81017 0.53473
  -4   6  -4 7392.30  636.89   1-0.76318 0.42074 0.18843 0.15560 0.61809-0.89373
   4  -6   4 6638.26  599.78   1-0.31547 0.65782-0.92757 0.58396-0.20018 0.47565
   4  -6   5 2211.93  128.65   1-0.47829 0.86405-0.24635-0.06819 0.84293-0.49876
  -4   6  -5 1829.46  167.43   1-0.74678 0.36121 0.31076 0.00360 0.58799-0.93247
   4  -6   5 2324.01  362.22   1-0.23256 0.61816-0.96831 0.65448-0.09095 0.43533
   4  -6   674239.66 4068.90   1-0.46803 0.89699-0.23416-0.05080 0.85212-0.43911
  -4   6  -668469.17 3760.71   1-0.70280 0.27402 0.47530-0.19052 0.52928-0.94265
   4  -6   675010.13 4146.35   1-0.15451 0.58328-0.98796 0.70378 0.00773 0.40553
   4  -6   7 8351.86  673.92   1-0.44935 0.92151-0.21223-0.04314 0.86777-0.38593
   4  -6   7 9725.48 1131.78   1-0.08246 0.55430-0.99195 0.73738 0.09606 0.38602
   4  -6   8 2806.36  489.20   1-0.01602 0.53107-0.98439 0.75948 0.17526 0.37569
   4  -6   9 7461.12 1044.56   1 0.04549 0.51319-0.96807 0.77268 0.24651 0.37361
  -4   5   9 4264.04  722.16   1-0.36728 0.55976-0.11984 0.77134 0.92235-0.30280
  -4   5   8  292.36  165.57   1-0.38685 0.53617-0.14112 0.76320 0.91127-0.36060
  -4   5   8  307.27  165.63   1-0.76088 0.91041 0.21300 0.40908 0.61292-0.06164
  -4   5   724768.34 1149.82   1-0.40294 0.50905-0.15911 0.75161 0.90128-0.41944
  -4   5   721055.52  945.35   1-0.76676 0.87307 0.12753 0.46496 0.62912-0.14675
  -4   5   614475.79  693.02   1-0.41487 0.47778-0.17260 0.73551 0.89335-0.48035
  -4   5   615065.70  691.31   1-0.76716 0.83026 0.05330 0.50959 0.63922-0.22576
  -4   5   5 2323.91  240.44   1-0.42134 0.44105-0.17996 0.71329 0.88886-0.54469
  -4   5   5 2186.85  225.26   1-0.76413 0.78401-0.00987 0.54319 0.64497-0.30043
  -4   5   4 5387.67  695.21   1-0.41990 0.39640-0.17831 0.68205 0.88988-0.61454
  -4   5   4 6678.21  510.37   1-0.75890 0.73526-0.06243 0.56606 0.64819-0.37277
  -4   5   3 6117.01  420.16   1-0.40558 0.33888-0.16209 0.63625 0.89956-0.69306
  -4   5   3 6334.77  476.09   1-0.75373 0.68689-0.10245 0.57645 0.64914-0.44257
  -4   5   226965.09  484.30   1-0.36684 0.25695-0.11935 0.56381 0.92259-0.78491
  -4   5   231017.17  645.60   1-0.74950 0.63947-0.12961 0.57400 0.64918-0.51146
  -4   5   124213.04  611.32   1-0.27263 0.11955-0.01881 0.43369 0.96193-0.89309
   4  -5  -126367.25  653.70   1-0.70471 0.85805-0.57162 0.15648 0.42026-0.48913
  -4   5   122915.48 1234.30   1-0.74731 0.59407-0.14243 0.55719 0.64903-0.58017
  -4   5   0  448.05   56.54   1-0.00751-0.18883 0.23881 0.14638 0.97103-0.97103
   4  -5   0  402.42   49.59   1-0.72051 0.91700-0.61008 0.22461 0.32961-0.32961
  -4   5   0  146.91  162.59   1-0.74794 0.55151-0.13879 0.52394 0.64908-0.64908
  -4   5  -120709.88 1300.62   1-0.75173 0.51211-0.11575 0.47127 0.64922-0.71808
  -4   5  -2188793.1 2759.54   1-0.75812 0.47530-0.06914 0.39504 0.64843-0.78614
   4  -5   2167052.0 2435.82   1-0.42591 0.70845-0.83304 0.50717-0.35304 0.49077
   4  -5   391834.57 1283.77   1-0.23245 0.55832 0.02245-0.31901 0.97234-0.76583
  -4   5  -387996.60 1233.02   1-0.30886-0.01723-0.50253 0.79911-0.80750 0.60092
  -4   5  -393894.08 1438.68   1-0.76526 0.43943 0.00724 0.28931 0.64367-0.85040
   4  -5   385327.59 1320.50   1-0.33097 0.65672-0.91739 0.62116-0.22102 0.42762
   4  -5   414331.19  841.02   1-0.40383 0.77296-0.16011-0.10693 0.90071-0.62537
  -4   5  -411189.05  663.53   1-0.63235 0.26303-0.69572 0.96258-0.34073 0.06518
  -4   5  -412942.79  787.83   1-0.76697 0.39792 0.12122 0.14574 0.63012-0.90576
   4  -5   412958.42  934.29   1-0.23940 0.60838-0.96578 0.69931-0.09975 0.37526
   4  -5   519259.94 1116.69   1-0.42777 0.84010-0.18730-0.05016 0.88426-0.54009
  -4   5  -516647.68  970.04   1-0.69019 0.27768-0.70557 0.94291-0.16058-0.18384
  -4   5  -516899.02  987.98   1-0.75122 0.33905 0.28562-0.04831 0.59504-0.93952
   4  -5   516522.49  959.08   1-0.41514 0.82743-0.78774 0.55052 0.45509-0.11073
   4  -5   519558.35 1182.99   1-0.15525 0.56743-0.98785 0.75103 0.00680 0.33758
   4  -5   618537.62 1309.88   1-0.42510 0.88064-0.18425-0.02362 0.88618-0.47318
  -4   5  -615734.21 1104.84   1-0.68458 0.22906 0.52322-0.31562 0.50752-0.92082
   4  -5   619303.06 1193.27   1-0.07951 0.53478-0.99184 0.78464 0.09962 0.31359
   4  -5   722601.30  946.00   1-0.41160 0.91034-0.16889-0.00940 0.89557-0.41373
   4  -5   725660.81 1139.74   1-0.01123 0.50971-0.98343 0.80589 0.18089 0.30119
   4  -5   8 3255.28  261.07   1-0.39195 0.93390-0.14680-0.00190 0.90819-0.35751
   4  -5   8 3823.23  513.72   1 0.05083 0.49124-0.96622 0.81824 0.25264 0.29858
   4  -5   9 1102.49  349.71   1 0.10731 0.47801-0.94249 0.82420 0.31651 0.30362
  -4   4   9 2543.86  452.89   1-0.42656 0.59250-0.18592 0.76051 0.88514-0.26563
  -4   4   8  244.34  111.06   1-0.76745 0.89037 0.09732 0.44770 0.63367-0.08239
  -4   4   7 7372.63  336.22   1-0.46857 0.54810-0.23479 0.75021 0.85165-0.36981
  -4   4   7 7708.30  339.11   1-0.76515 0.84486 0.00539 0.51003 0.64382-0.16145
  -4   4   637587.65 2121.04   1-0.48538 0.52171-0.25484 0.74068 0.83633-0.42332
  -4   4   640561.52 2272.78   1-0.75739 0.79361-0.07516 0.56100 0.64861-0.23547
  -4   4   514397.45  888.54   1-0.49853 0.49165-0.27073 0.72698 0.82350-0.47933
  -4   4   514983.36  916.92   1-0.74718 0.74020-0.14313 0.59935 0.64901-0.30473
  -4   4   4  693.00  113.58   1-0.50652 0.45644-0.28049 0.70715 0.81532-0.53998
  -4   4   4  839.11  158.73   1-0.73600 0.68583-0.19914 0.62573 0.64701-0.37159
  -4   4   3 8445.10  484.11   1-0.50608 0.41280-0.27995 0.67703 0.81578-0.60927
  -4   4   310109.51  602.27   1-0.72557 0.63220-0.24254 0.63952 0.64397-0.43740
  -4   4   253368.37 1293.50   1-0.48863 0.35214-0.25874 0.62623 0.83324-0.69557
   4  -4  -255343.37 1334.12   1-0.72337 0.86002-0.61870 0.25105 0.30647-0.44422
  -4   4   261543.10 1534.10   1-0.71753 0.58096-0.27221 0.63957 0.64112-0.50341
  -4   4   1207708.9 1407.94   1-0.42324 0.24355-0.18212 0.52003 0.88752-0.81868
   4  -4  -1196205.6 1317.94   1-0.73072 0.91056-0.65314 0.31512 0.19863-0.26750
  -4   4   1207778.5 1593.85   1-0.71342 0.53365-0.28638 0.62412 0.63954-0.57068
  -4   4   075274.25  503.79   1-0.05634-0.16656 0.19394 0.11421 0.97939-0.97939
   4  -4   074706.97  494.43   1-0.64070 0.86373-0.69830 0.38998-0.31917 0.31917
  -4   4  -111756.96  816.75   1-0.72198 0.45582-0.25613 0.53463 0.64275-0.71161
  -4   4  -2193000.1 4549.45   1-0.73549 0.42613-0.20145 0.45033 0.64689-0.78460
   4  -4   2185112.5 4368.76   1-0.34181 0.65096-0.90972 0.66089-0.23571 0.37345
   4  -4   3198382.7 2791.14   1-0.26814 0.62060-0.01416-0.20534 0.96327-0.75675
  -4   4  -3174000.4 2447.42   1-0.71379 0.36113-0.69890 0.91839-0.04498-0.16165
  -4   4  -3196688.5 2828.33   1-0.75284 0.40029-0.10850 0.32776 0.64919-0.85576
   4  -4   3171016.1 2442.67   1-0.44583 0.79834-0.75745 0.53811 0.47696-0.27034
   4  -4   3193778.4 2860.12   1-0.23825 0.59063-0.96621 0.74711-0.09827 0.30490
   4  -4   4 7916.18  504.85   1-0.35888 0.75454-0.11064-0.07928 0.92679-0.65144
  -4   4  -4 6608.11  410.10   1-0.72875 0.33288-0.67857 0.86842 0.09193-0.36746
  -4   4  -4 7583.35  471.49   1-0.76677 0.37113 0.03959 0.15030 0.64069-0.91633
   4  -4   4 8648.74  558.12   1-0.14671 0.54227-0.98902 0.79957 0.01741 0.25809
   4  -4   5 5672.43  711.60   1-0.38267 0.82159-0.13647-0.02391 0.91374-0.56957
  -4   4  -5 2761.96  392.56   1 0.17529-0.61430 0.94586-0.78584-0.27316-0.07122
  -4   4  -5 3969.93  497.57   1-0.75296 0.31420 0.27476-0.11451 0.59794-0.94242
   4  -4   5 5713.24  891.21   1-0.06726 0.50596-0.99115 0.83133 0.11436 0.22998
   4  -4   610335.16  756.12   1-0.38384 0.86596-0.13777 0.00696 0.91306-0.50005
   4  -4   612011.07  914.11   1 0.00222 0.47967-0.98046 0.85030 0.19666 0.21655
   4  -4   722647.13 1020.44   1-0.37378 0.89910-0.12663 0.02541 0.91882-0.43698
   4  -4   726117.99 1177.97   1 0.06402 0.46146-0.96137 0.86080 0.26768 0.21463
   4  -4   814963.05  865.25   1-0.35701 0.92545-0.10859 0.03698 0.92776-0.37705
   4  -4   817357.29 1061.73   1 0.11939 0.44934-0.93641 0.86552 0.32996 0.22126
   4  -4   9 2590.10  678.10   1-0.33523 0.94686-0.08498 0.04295 0.93829-0.31874
   4  -4   9 4424.09  634.76   1 0.16991 0.44207-0.90693 0.86574 0.38547 0.23466
  -4   3  10  527.24  191.64   1-0.45738 0.63994-0.22162 0.74872 0.86120-0.17286
  -4   3   9 6961.84  822.50   1-0.48411 0.62347-0.25331 0.75083 0.83753-0.21802
  -4   3   815435.11  759.08   1-0.50917 0.60532-0.28374 0.75166 0.81254-0.26187
  -4   3   814750.90  673.12   1-0.76153 0.85761-0.03716 0.50521 0.64706-0.09620
  -4   3   7   93.41  159.42   1-0.53258 0.58534-0.31278 0.75146 0.78646-0.30441
  -4   3   7  265.98  136.63   1-0.74843 0.80131-0.13599 0.57442 0.64912-0.16712
  -4   3   643950.75 1677.64   1-0.55443 0.56399-0.34068 0.74973 0.75930-0.34611
  -4   3   647697.56 1801.36   1-0.73074 0.74043-0.22183 0.63064 0.64559-0.23245
  -4   3   569855.66 1731.28   1-0.57465 0.54103-0.36721 0.74663 0.73138-0.38706
  -4   3   578586.99 1946.00   1-0.71084 0.67737-0.29519 0.67427 0.63840-0.29411
  -4   3   422244.27 1172.46   1-0.59314 0.51633-0.39217 0.74196 0.70311-0.42766
  -4   3   425261.00  708.23   1-0.69071 0.61405-0.35590 0.70539 0.62947-0.35404
  -4   3   3 3696.36  266.41   1-0.60962 0.48961-0.41507 0.73522 0.67532-0.46873
   4  -3  -3 3922.82  274.73   1-0.73066 0.85067-0.65258 0.33237 0.20065-0.40727
  -4   3   3 3942.05  326.58   1-0.67250 0.55264-0.40349 0.72339 0.62042-0.41385
   4  -3  -240106.63  372.63   1-0.72891 0.89211-0.67803 0.38745 0.09465-0.23241
  -4   3   1223586.8 1473.56   1-0.63074 0.42435-0.44552 0.70641 0.63534-0.56648
   4  -3  -1213254.1 1394.24   1-0.67944 0.88587-0.70556 0.44461-0.20133 0.13245
  -4   3   1220706.8 1623.83   1-0.65052 0.44426-0.45431 0.71504 0.60861-0.53976
  -4   3   053066.91  350.35   1-0.02714-0.22233 0.22090 0.01021 0.97491-0.97491
  -4   3   054043.32  356.59   1-0.58487 0.33528-0.38091 0.61217 0.71611-0.71611
  -4   3   054339.85  564.08   1-0.65126 0.40181-0.45269 0.68383 0.60903-0.60903
  -4   3  -112689.91  827.18   1-0.72183 0.42901-0.61393 0.81557 0.31944-0.38832
  -4   3  -112797.54  834.22   1-0.58463 0.29179-0.67681 0.87842-0.44734 0.37845
  -4   3  -113239.61  896.41   1-0.66266 0.37002-0.42701 0.62855 0.61524-0.68410
   4  -3   115279.65 1023.21   1-0.42209 0.71480-0.78112 0.57966 0.46008-0.39120
   4  -3   114830.29  989.80   1-0.34476 0.63731-0.90756 0.70611-0.23972 0.30859
   4  -3   2  517.33   67.75   1-0.06897 0.40464 0.18216-0.35408 0.98084-0.84314
  -4   3  -2  542.15   56.95   1-0.70495 0.36892-0.57212 0.74412 0.41918-0.55693
  -4   3  -2  604.56  114.46   1-0.68609 0.35024-0.36855 0.54051 0.62725-0.76496
   4  -3   2  475.85   81.11   1-0.22396 0.55973-0.97131 0.79957-0.07990 0.21766
  -4   3  -3133944.0 1923.77   1-0.70877 0.32954-0.58084 0.72320 0.40030-0.60693
  -4   3  -3144770.8 2090.59   1-0.72055 0.34147-0.26139 0.40362 0.64224-0.84881
   4  -3   3143715.5 2134.40   1-0.12407 0.50299-0.99123 0.84911 0.04537 0.16123
   4  -3   481729.28 2001.85   1-0.31855 0.74079-0.06712-0.04574 0.94552-0.67016
  -4   3  -474204.58 1771.73   1-0.75789 0.33562-0.07104 0.18365 0.64849-0.92392
   4  -3   480474.28 1987.51   1-0.04186 0.46399-0.98858 0.87613 0.14470 0.13077
   4  -3   5 1316.25  276.20   1-0.34081 0.80625-0.09100 0.00772 0.93571-0.59152
  -4   3  -5  672.69  109.18   1-0.27337-0.19215 0.95636-0.87337 0.10310-0.44753
  -4   3  -5  931.18  123.73   1-0.74629 0.28093 0.31332-0.23012 0.58725-0.93172
   4  -3   5 1789.82  331.47   1 0.02718 0.43814-0.97382 0.89103 0.22566 0.11869
   4  -3   6 4640.86  560.89   1-0.34379 0.85242-0.09423 0.04052 0.93430-0.52127
   4  -3   6 6500.34 1076.72   1 0.08704 0.42183-0.95190 0.89874 0.29376 0.11965
   4  -3   712000.62  983.25   1-0.33596 0.88779-0.08577 0.06164 0.93795-0.45608
   4  -3   711889.78  997.87   1 0.13986 0.41227-0.92525 0.90177 0.35261 0.12971
   4  -3   8 6161.58 1171.82   1-0.32110 0.91612-0.06983 0.07528 0.94446-0.39375
   4  -3   811071.06  851.09   1 0.18762 0.40776-0.89503 0.90124 0.40461 0.14661
   4  -3   9 1980.31  496.08   1-0.30105 0.93927-0.04856 0.08359 0.95236-0.33281
  -4   2  11  173.45  188.40   1-0.48055 0.67974-0.24905 0.72866 0.84085-0.08367
  -4   2  10  108.24  169.77   1-0.51047 0.66645-0.28534 0.73535 0.81116-0.12282
  -4   2   911009.99  587.69   1-0.53897 0.65155-0.32087 0.74174 0.77881-0.15902
  -4   2   911306.02  531.60   1-0.75799 0.87074-0.07025 0.49089 0.64846-0.02875
  -4   2   833228.54 1348.81   1-0.56640 0.63579-0.35630 0.74754 0.74312-0.19220
  -4   2   837138.91 1450.17   1-0.73775 0.80731-0.19114 0.58216 0.64743-0.09657
  -4   2   716461.00 1009.28   1-0.59290 0.61910-0.39183 0.75343 0.70351-0.22146
  -4   2   717579.51 1065.45   1-0.71039 0.73675-0.29664 0.65786 0.63822-0.15622
  -4   2   6  629.84  133.27   1-0.61873 0.60174-0.42803 0.76000 0.65875-0.24556
  -4   2   6  854.43  140.87   1-0.67876 0.66191-0.38779 0.71942 0.62361-0.21047
  -4   2   591683.16 1425.31   1-0.64400 0.58380-0.46587 0.76830 0.60680-0.26244
  -4   2   5100195.1 1534.46   1-0.64531 0.58526-0.46550 0.76754 0.60570-0.26141
  -4   2   4118159.7 2813.86   1-0.66971 0.56632-0.50687 0.77965 0.54273-0.26724
  -4   2   4136783.1 3251.58   1-0.61201 0.50874-0.53001 0.80258 0.58696-0.31151
  -4   2   3 7453.83  512.53   1-0.69608 0.54948-0.55410 0.79724 0.45654-0.24992
   4  -2  -3 7967.91  541.50   1-0.72095 0.86751-0.69296 0.44984 0.00560-0.21225
  -4   2   3 9131.36  641.50   1-0.58222 0.43573-0.58111 0.82405 0.56861-0.36203
  -4   2   2 2067.58  111.11   1-0.72161 0.53183-0.61326 0.82673 0.32121-0.18346
   4  -2  -2 1859.05   84.99   1-0.67811 0.86791-0.70547 0.49199-0.20607 0.06829
  -4   2   2 3174.85  200.70   1-0.55824 0.36855-0.61821 0.83153 0.55332-0.41560
  -4   2   121041.67  276.80   1-0.72570 0.49272-0.68614 0.86999 0.05050 0.01838
   4  -2  -123108.41  288.96   1-0.47271 0.70572-0.61537 0.43154-0.63075 0.56188
  -4   2   121983.58  371.30   1-0.54314 0.31023-0.64001 0.82370 0.54348-0.47461
  -4   2   041891.78  484.65   1-0.09081-0.18522 0.16160-0.00752 0.98266-0.98266
  -4   2   045222.32  514.11   1-0.54915 0.27294-0.65941 0.81356-0.51342 0.51342
  -4   2   043396.13  581.15   1-0.54033 0.26421-0.64395 0.79801 0.54163-0.54163
  -4   2  -162616.81  484.29   1-0.46584 0.14658-0.23157 0.35614 0.85402-0.92286
  -4   2  -161027.96  559.57   1-0.55357 0.23424-0.62507 0.74951 0.55029-0.61916
   4  -2   2 5893.75  406.29   1-0.11892 0.48115 0.13483-0.22971 0.98370-0.84600
  -4   2  -2 5190.08  359.04   1-0.59033 0.22779-0.38832 0.48323 0.70760-0.84533
  -4   2  -2 4629.49  332.25   1 0.11985-0.48242 0.96597-0.87115-0.22917 0.09141
  -4   2  -2 4898.52  349.62   1-0.58691 0.22436-0.57345 0.66826 0.57156-0.70928
   4  -2   2 5490.70  421.77   1-0.07810 0.44045-0.99178 0.89703 0.10132 0.03641
   4  -2   380296.18 1201.18   1-0.23066 0.63630 0.02426-0.08965 0.97272-0.76621
  -4   2  -375695.42 1142.86   1-0.64434 0.23856-0.46639 0.53164 0.60605-0.81267
  -4   2  -375106.51 1116.54   1-0.64416 0.23854-0.46792 0.53324 0.60506-0.81163
   4  -2   381769.90 1284.39   1 0.00278 0.40277-0.98033 0.91525 0.19731 0.00929
   4  -2   478805.94 1940.83   1-0.28048 0.72931-0.02698-0.00882 0.95947-0.68412
  -4   2  -469418.37 1641.18   1-0.33307-0.11581 0.92975-0.89419 0.15689-0.43244
  -4   2  -478636.28 1863.58   1-0.72483 0.27602-0.24540 0.28098 0.64373-0.91916
   4  -2   483894.50 2057.24   1 0.06779 0.38123-0.95991 0.92446 0.27197 0.00363
   4  -2   5  839.55  173.50   1-0.30053 0.79255-0.04800 0.04177 0.95256-0.60836
   4  -2   5  665.12  168.00   1 0.12247 0.36980-0.93479 0.92904 0.33339 0.01112
   4  -2   6 9715.81 1117.47   1-0.30426 0.83948-0.05195 0.07530 0.95116-0.53813
   4  -2   610965.23  813.61   1 0.17040 0.36513-0.90662 0.93055 0.38600 0.02742
   4  -2   7 6691.46  772.18   1-0.29788 0.87630-0.04522 0.09815 0.95352-0.47165
   4  -2   8 5458.61  933.54   1-0.28450 0.90612-0.03118 0.11369 0.95816-0.40745
   4  -2   9  740.14  157.55   1-0.26581 0.93061-0.01174 0.12382 0.96395-0.34440
  -4   1  11 2936.10  442.06   1-0.52930 0.70171-0.30865 0.71170 0.79029-0.03278
  -4   1  10   59.66  165.02   1-0.56021 0.68942-0.34819 0.72161 0.75161-0.06296
  -4   1   9 4243.31  259.90   1-0.58995 0.67597-0.38781 0.73159 0.70820-0.08841
  -4   1   9 3879.93  185.27   1-0.72667 0.81289-0.23828 0.58189 0.64433-0.02462
  -4   1   832584.05  927.78   1-0.61869 0.66151-0.42797 0.74212 0.65883-0.10791
  -4   1   833774.72  901.71   1-0.68745 0.73042-0.36486 0.67862 0.62791-0.07705
  -4   1   748815.86 1255.30   1-0.64627 0.64592-0.46935 0.75397 0.60169-0.11958
  -4   1   754267.30 1337.40   1-0.64154 0.64131-0.47340 0.75758 0.60357-0.12157
  -4   1   631718.50  613.97   1-0.67315 0.62960-0.51265 0.76763 0.53295-0.11971
  -4   1   635108.08  645.78   1-0.59139 0.54799-0.56601 0.82080 0.57435-0.16117
  -4   1   526061.50  700.58   1-0.69857 0.61182-0.55902 0.78435 0.44664-0.10227
  -4   1   529089.35  775.98   1-0.54046 0.45385-0.64377 0.86893 0.54171-0.19740
   4  -1  -528932.71  732.27   1 0.16508-0.07865-0.91004 0.68451 0.38022-0.72474
  -4   1   4215974.8 1573.06   1-0.72033 0.59039-0.60954 0.80520 0.33102-0.05552
  -4   1   4234749.9 1694.71   1-0.49101 0.36119-0.70737 0.90291 0.50845-0.23300
  -4   1   328515.24  412.26   1-0.73108 0.55794-0.66268 0.82870 0.16238 0.04424
   4  -1  -328268.07  388.68   1-0.66890 0.84208-0.70450 0.53848-0.23715 0.03049
  -4   1   2 1337.98   96.90   1-0.70338 0.48700-0.70344 0.83981-0.10208 0.23986
   4  -1  -2 1319.59   88.55   1-0.54821 0.76457-0.65891 0.52257-0.51506 0.37728
  -4   1   2 1152.17   77.33   1 0.20436-0.42081 0.93308-0.79675-0.29594 0.43370
  -4   1   2 1299.87  135.71   1-0.40815 0.19182-0.79426 0.93040 0.45006-0.31232
  -4   1   1  469.99   66.66   1-0.56420 0.30462-0.66707 0.77379-0.48649 0.55538
   4  -1  -1  343.30   54.96   1-0.25418 0.51376-0.46074 0.35398-0.85035 0.78149
  -4   1   1  766.90   85.53   1 0.16079-0.42040 0.95165-0.84495-0.26173 0.33061
  -4   1   1  494.12   85.50   1-0.38205 0.12253-0.81741 0.92398 0.43112-0.36225
   4  -1  -1  617.91   86.36   1-0.26774 0.52711-0.95376 0.84709-0.13655 0.06767
  -4   1   052542.51  641.77   1-0.12933-0.17327 0.12481-0.04777 0.98371-0.98371
  -4   1   054422.66  634.21   1-0.28449-0.01830-0.48412 0.56123-0.82745 0.82745
  -4   1   051644.80  642.29   1-0.37137 0.06865-0.82636 0.90337 0.42331-0.42331
  -4   1   057287.86  672.39   1-0.38395 0.08139-0.87539 0.95242-0.29369 0.29369
  -4   1  -134662.91  351.62   1-0.38367 0.03783-0.13758 0.18508 0.91316-0.98199
  -4   1  -133526.16  396.95   1-0.28180-0.06393-0.94686 0.99423-0.15499 0.08611
   4  -1   2 3664.82  494.71   1-0.12322 0.51202 0.13070-0.14854 0.98373-0.84603
  -4   1  -2 2998.33  213.41   1-0.51726 0.12821-0.29372 0.31163 0.80384-0.94151
  -4   1  -2 2533.87  245.69   1-0.18254-0.20659 0.98293-0.96518 0.02266-0.16043
  -4   1  -2 3156.79  227.32   1-0.41703 0.02791-0.78595 0.80383 0.45645-0.59420
   4  -1   2 3664.22  556.03   1 0.07616 0.31301-0.95654 0.93881 0.28147-0.14366
   4  -1   325174.02  470.16   1-0.20299 0.63521 0.05215-0.04048 0.97778-0.77127
  -4   1  -322879.52 1177.53   1-0.39055-0.04170 0.89637-0.90823 0.20971-0.41637
  -4   1  -322517.67 1162.74   1-0.48827 0.05595-0.71061 0.69876 0.50656-0.71315
   4  -1   325649.87  510.64   1 0.12882 0.30360-0.93140 0.94336 0.34042-0.13371
   4  -1   496512.45 2326.71   1-0.24346 0.71887 0.01124 0.03001 0.96984-0.69449
  -4   1  -489861.68 2069.88   1-0.63667 0.16120 0.62335-0.66472 0.45396-0.72949
  -4   1  -496744.65 2230.85   1-0.61425 0.13872-0.52591 0.48443 0.58830-0.86375
   4  -1   492917.03 2224.20   1 0.17327 0.30240-0.90474 0.94639 0.38911-0.11350
   4  -1   5 9573.82  471.72   1-0.26128 0.77989-0.00706 0.07789 0.96523-0.62104
   4  -1   6 5391.81  694.15   1-0.26514 0.82695-0.01105 0.11146 0.96414-0.55111
   4  -1   7 4863.91  724.40   1-0.25963 0.86463-0.00536 0.13535 0.96569-0.48382
   4  -1   8 3129.66  733.17   1-0.24730 0.89550 0.00730 0.15225 0.96890-0.41820
  -4   0  1222106.37 2174.49   1-0.54204 0.73107-0.32476 0.68036 0.77505 0.05131
  -4   0  1122344.61 1341.12   1-0.57456 0.72040-0.36709 0.69306 0.73151 0.02599
  -4   0  10  112.30  173.72   1-0.60568 0.70832-0.40952 0.70585 0.68223 0.00641
  -4   0   9 1879.59  231.34   1-0.63539 0.69485-0.45242 0.71912 0.62576-0.00597
  -4   0   9 1498.59  176.07   1-0.66400 0.72359-0.42390 0.69021 0.61595 0.00376
  -4   0   811355.97  738.93   1-0.66332 0.67962-0.49633 0.73350 0.56004-0.00905
  -4   0   813423.49  811.71   1-0.60162 0.61810-0.54851 0.78553 0.58066-0.02976
  -4   0   734448.62  935.55   1-0.68944 0.66254-0.54149 0.74902 0.48108 0.00102
  -4   0   739336.97 1022.81   1-0.53408 0.50734-0.65257 0.85995 0.53750-0.05546
  -4   0   647712.03  834.84   1-0.71204 0.64194-0.58831 0.76616 0.38324 0.03000
  -4   0   652334.62  858.56   1-0.46330 0.39317-0.73891 0.91631 0.48923-0.07600
  -4   0   512594.64  869.94   1-0.72795 0.61465-0.63571 0.78391 0.25679 0.08757
  -4   0   514812.96 1004.96   1-0.39367 0.28034-0.80732 0.95516 0.43959-0.09523
   4   0  -513634.78 1052.64   1 0.00608 0.10709-0.97953 0.83123 0.20116-0.54551
  -4   0   4132474.6 1051.81   1-0.72842 0.57191-0.67965 0.79821 0.08640 0.18912
   4   0  -4140649.1  955.00   1 0.02928 0.12709-0.97319 0.85455 0.22809-0.50357
  -4   0   3259400.4 2796.53   1-0.69332 0.49357-0.70532 0.79423-0.14770 0.35436
   4   0  -3243719.0 2612.31   1-0.56773 0.76747-0.66881 0.57991-0.47995 0.27329
   4   0  -3248243.4 2683.52   1 0.26897-0.06915 0.89892-0.98785-0.34580 0.13916
   4   0  -3265638.5 2762.01   1 0.03076 0.16882-0.97275 0.88376 0.22980-0.43641
  -4   0   2  607.94  103.63   1-0.58559 0.34263-0.67725 0.73652-0.44543 0.58320
   4   0  -2  503.49   68.18   1-0.38505 0.62805-0.55749 0.49823-0.73547 0.59775
   4   0  -2  720.12  120.30   1 0.21929 0.02367 0.92591-0.98519-0.30756 0.16980
  -4   0   2  414.33   62.72   1-0.00047-0.24252 0.99123-0.93181-0.13214 0.26998
   4   0  -2  708.46   31.39   1 0.14752 0.09529-0.92080 0.86143 0.36104-0.49884
  -4   0   133930.11  444.84   1-0.38720 0.10101-0.55899 0.58862-0.73320 0.80207
  -4   0   133254.60  440.28   1-0.06794-0.21825 0.99480-0.96509-0.07581 0.14473
  -4   0   136905.54  433.23   1-0.29074 0.00478-0.94206 0.97170-0.16727 0.23613
  -4   0   040498.41  387.88   1-0.16465-0.16465 0.98632-0.98632 0.00715-0.00715
   4   0   128716.40  357.45   1-0.00483 0.37718 0.24137-0.21178 0.97042-0.90160
  -4   0  -128953.53  363.65   1-0.35667-0.01574-0.10822 0.07864 0.92793-0.99677
   4   0   128256.70  310.76   1 0.16766 0.20479 0.94895-0.91931-0.26715 0.33603
  -4   0  -125215.41  310.58   1-0.12335-0.24905-0.99128 0.96162 0.04625-0.11512
   4   0   230148.21  772.97   1-0.11157 0.52693 0.14187-0.08267 0.98357-0.84587
   4   0   234660.67  852.19   1 0.19771 0.21790 0.93614-0.87686-0.29074 0.42850
  -4   0  -229275.95  725.24   1-0.44317 0.02754 0.85818-0.91747 0.25907-0.39684
   4   0   3 2678.61  352.28   1-0.17361 0.63208 0.08162 0.00717 0.98142-0.77486
   4   0   3 2653.33  179.17   1 0.26360 0.19517 0.90208-0.81316-0.34169 0.54833
  -4   0  -3 1962.47  145.91   1-0.60467 0.14582 0.67675-0.76556 0.41996-0.62661
   4   0   444149.41 1674.17   1-0.20690 0.70890 0.04824 0.07006 0.97717-0.70181
  -4   0  -439500.77 1446.25   1-0.73922 0.23728 0.34765-0.46602 0.57677-0.85235
  -4   0  -442174.17 1545.80   1-0.38838-0.11374-0.81196 0.69369 0.43574-0.71123
   4   0   532489.54 1290.53   1-0.22262 0.76782 0.03241 0.11547 0.97436-0.63017
   4   0   6 1130.98  218.81   1-0.22622 0.81461 0.02877 0.14869 0.97365-0.56061
   4   0   7  271.49  214.48   1-0.22116 0.85275 0.03389 0.17315 0.97464-0.49277
   4   0   8  647.40  222.21   1-0.20953 0.88431 0.04560 0.19101 0.97673-0.42602
  -4  -1  12 9787.02 1096.94   1-0.58334 0.74581-0.37884 0.65735 0.71846 0.10791
  -4  -1  1141756.92 2906.88   1-0.61537 0.73465-0.42322 0.67210 0.66497 0.09253
  -4  -1  10 3908.67  460.64   1-0.64531 0.72145-0.46787 0.68724 0.60387 0.08485
  -4  -1  10 3561.00  367.42   1-0.64259 0.71880-0.47121 0.69006 0.60417 0.08440
  -4  -1   9 8627.26  733.08   1-0.67327 0.70622-0.51287 0.70259 0.53259 0.08726
  -4  -1   910272.77  754.25   1-0.56341 0.59655-0.61048 0.80008 0.55666 0.06310
  -4  -1   8 5288.10  692.12   1-0.69822 0.68797-0.55832 0.71840 0.44804 0.10293
  -4  -1   8 6759.92  452.18   1-0.47834 0.46826-0.72212 0.88210 0.49972 0.05117
  -4  -1   710805.12  688.17   1-0.71830 0.66484-0.60396 0.73434 0.34535 0.13677
  -4  -1   711976.26  736.71   1-0.38982 0.33628-0.81070 0.94066 0.43679 0.04531
  -4  -1   689929.13 2194.94   1-0.73012 0.63346-0.64781 0.74856 0.21736 0.19588
   4   1  -684563.39 2009.42   1-0.18831 0.28492-0.98149 0.88058-0.03460-0.37866
  -4  -1   554435.62  604.17   1-0.72606 0.58618-0.68546 0.75655 0.05457 0.28984
   4   1  -551724.45  524.70   1 0.22130-0.08128 0.92491-0.99606-0.30911-0.03527
   4   1  -554102.78  434.90   1-0.24627 0.38606-0.96309 0.89183-0.10862-0.23576
  -4  -1   4349134.3 2397.58   1-0.69224 0.50912-0.70542 0.74687-0.15221 0.42776
   4   1  -4332347.5 2291.47   1 0.14527 0.03790 0.95743-0.99894-0.24943-0.02608
  -4  -1   3643409.7 6767.58   1-0.60777 0.38145-0.68676 0.69858-0.39870 0.60536
   4   1  -3585961.3 6155.61   1-0.43870 0.66509-0.59372 0.58194-0.67455 0.46796
   4   1  -3618367.6 6522.07   1 0.07910 0.14723 0.97715-0.98905-0.19727-0.00949
  -4  -1   215360.19  280.07   1-0.46071 0.19112-0.60786 0.59002-0.64671 0.78443
   4   1  -218153.08  289.53   1-0.23953 0.50907-0.44924 0.46705-0.86069 0.72297
  -4  -1   218053.53  297.59   1-0.21070-0.05876 0.97640-0.99415 0.04724 0.09051
  -4  -1   1 4605.18  449.04   1 0.00730-0.31982 0.25233-0.29981 0.96761-0.89879
  -4  -1   1 5053.84  365.38   1-0.27811-0.03464-0.47925 0.43179-0.83244 0.90130
   4   1  -1 6882.94  566.26   1-0.01045 0.32319 0.99224-0.94473-0.12387 0.05495
  -4  -1   1 6197.41  432.48   1-0.28649-0.02615 0.95117-0.99860 0.11483-0.04595
  -4  -1   1 4809.32  159.99   1 0.03046-0.34309-0.97284 0.92547 0.22944-0.16057
   4   1   0 1724.23  179.18   1 0.11170 0.24400 0.34384-0.26678 0.93235-0.93235
   4   1   0 2226.29  277.79   1-0.02921 0.38515 0.99369-0.91647-0.10827 0.10827
  -4  -1   0 1675.67  146.58   1-0.38164 0.02582 0.90208-0.97915 0.20145-0.20145
  -4  -1   0 1335.76  174.88   1 0.02471-0.38055-0.97455 0.89751 0.22280-0.22280
   4   1   159850.37 1468.60   1-0.01102 0.40994 0.23575-0.12909 0.97175-0.90292
   4   1   166164.82 1591.81   1-0.02734 0.42648 0.99357-0.88665-0.10982 0.17875
  -4  -1  -160038.73 1447.35   1-0.49051 0.09142 0.81627-0.92291 0.30509-0.37398
   4   1   255607.06  983.48   1-0.09221 0.53414 0.16028-0.02404 0.98275-0.84505
  -4  -1  -253063.53  819.83   1-0.60312 0.16090 0.67913-0.81538 0.41834-0.55611
   4   1   327489.36  779.37   1-0.14233 0.62736 0.11223 0.05360 0.98343-0.77687
   4   1   332162.03  862.43   1 0.05391 0.43162 0.98276-0.81643-0.17681 0.38358
  -4  -1  -325134.68  628.66   1-0.70281 0.21748 0.47528-0.64111 0.52929-0.73598
   4   1   4  310.40  111.25   1-0.17103 0.69915 0.08417 0.11126 0.98166-0.70625
   4   1   4  160.74   51.70   1 0.15107 0.37738 0.95532-0.75970-0.25403 0.52955
   4   1   522774.93 1162.28   1-0.18486 0.75607 0.07050 0.15453 0.98023-0.63597
   4   1   618639.51 1090.28   1-0.18801 0.80233 0.06737 0.18726 0.97985-0.56674
   4   1   7 2235.58  532.56   1-0.18316 0.84057 0.07219 0.21205 0.98042-0.49846
  -4  -2  12  274.20  207.59   1-0.62030 0.75620-0.43028 0.63171 0.65580 0.17057
  -4  -2  1136967.21 2087.85   1-0.65059 0.74338-0.47604 0.64796 0.59169 0.16590
  -4  -2  1042267.92 1765.86   1-0.67836 0.72795-0.52161 0.66387 0.51743 0.17129
  -4  -2  1041885.42 1695.03   1-0.53025 0.58004-0.65775 0.79995 0.53496 0.15365
  -4  -2   9  473.23  185.61   1-0.70243 0.70882-0.56684 0.67946 0.43042 0.18943
  -4  -2   9  594.41  201.99   1-0.42835 0.43461-0.77504 0.88712 0.46455 0.15528
  -4  -2   819881.98  618.37   1-0.72089 0.68407-0.61116 0.69409 0.32678 0.22420
  -4  -2   780165.35 1313.14   1-0.73064 0.65062-0.65234 0.70564 0.20148 0.28063
   4   2  -789467.24 1362.89   1 0.22848-0.14826 0.92128-0.97466-0.31468-0.16747
  -4  -2   779091.20 1193.05   1 0.16410-0.24398-0.91066 0.96427 0.37916 0.10316
  -4  -2   644025.05 1165.09   1-0.72553 0.60229-0.68646 0.71010 0.04860 0.36469
   4   2  -641031.25 1092.49   1 0.13443-0.01105 0.96121-0.98495-0.24080-0.17246
  -4  -2   634704.91  849.76   1 0.10229-0.22541-0.94492 0.96885 0.31089 0.10252
   4   2  -639897.55  966.16   1-0.38006 0.50317-0.87889 0.85510-0.28827-0.12492
  -4  -2   5 3534.23  282.57   1-0.69599 0.52950-0.70499 0.69897-0.13626 0.48069
   4   2  -5 3695.93  413.54   1 0.04842 0.11804 0.98384-0.97795-0.17233-0.17227
  -4  -2   5 3172.94  306.58   1 0.00291-0.16936-0.98030 0.97454 0.19746 0.14688
  -4  -2   4 4107.24  339.03   1-0.62917 0.41947-0.69457 0.65891-0.34884 0.62439
   4   2  -4 4660.77  566.88   1-0.02574 0.23542 0.99346-0.95786-0.11116-0.16453
  -4  -2   4 4905.93  371.09   1-0.21605 0.00649-0.97388 0.93846-0.06978 0.34530
  -4  -2   2242389.5 1717.97   1-0.36953 0.07335-0.54659 0.45164-0.75144 0.88917
   4   2  -2256178.6 1780.75   1-0.13199 0.42796 0.99102-0.89621-0.02096-0.11679
   4   2   0  593.64  107.24   1 0.09080 0.29148 0.32593-0.17179 0.94102-0.94102
   4   2   0  717.70  100.70   1-0.17466 0.55697 0.98450-0.83038 0.01582-0.01582
   4   2   142214.71  767.31   1-0.00363 0.42912 0.24245-0.05873 0.97015-0.90133
   4   2   143369.08  709.78   1-0.16948 0.59495 0.98546-0.80169 0.01133 0.05754
   4   2   230613.34  826.94   1-0.06841 0.53690 0.18268 0.03059 0.98078-0.84308
   4   2   232344.33  821.12   1-0.14442 0.61306 0.98946-0.77603-0.01029 0.14805
   4   2   327498.62 1110.12   1-0.11001 0.62160 0.14335 0.09952 0.98353-0.77698
   4   2   332041.89 1256.56   1-0.09585 0.60766 0.99404-0.75096-0.05179 0.25843
   4   2   416630.50  818.70   1-0.13457 0.68925 0.11975 0.15272 0.98364-0.70823
   4   2   422145.94  867.07   1-0.01599 0.57126 0.99273-0.71948-0.11927 0.39496
   4   2   5 5348.93  799.56   1-0.14655 0.74433 0.10813 0.19394 0.98327-0.63901
   4   2   615155.39 1461.56   1-0.14904 0.78992 0.10571 0.22596 0.98316-0.57005
   4   2   7 2073.24  627.98   1-0.14410 0.82807 0.11052 0.25076 0.98337-0.50141
  -4  -3  13 6689.88  750.18   1-0.62127 0.77380-0.43169 0.58566 0.65395 0.24128
  -4  -3  12 6243.15  788.75   1-0.65205 0.76149-0.47833 0.60279 0.58822 0.23824
  -4  -3  11 6276.21  406.64   1-0.67990 0.74613-0.52429 0.61910 0.51268 0.24491
  -4  -3  1089523.56 3430.06   1-0.70361 0.72665-0.56929 0.63446 0.42523 0.26349
  -4  -3  1097067.82 1967.68   1-0.38982 0.41267-0.81070 0.87534 0.43679 0.25192
  -4  -3   912722.43  659.97   1-0.72140 0.70122-0.61264 0.64813 0.32286 0.29701
   4   3  -913332.33  594.49   1 0.27895-0.25854 0.89290-0.92851-0.35340-0.26650
  -4  -3   912178.27  564.74   1 0.15522-0.17524-0.91618 0.95208 0.36947 0.25066
  -4  -3   821251.98  676.88   1-0.73063 0.66724-0.65219 0.65803 0.20204 0.34895
   4   3  -820098.50  593.78   1 0.17095-0.10737 0.94763-0.95359-0.26974-0.28128
  -4  -3   818237.18  520.36   1 0.09317-0.15644-0.94916 0.95537 0.30066 0.25056
  -4  -3   720732.34 1124.85   1-0.72643 0.61982-0.68469 0.66086 0.05901 0.42316
   4   3  -720558.24 1088.43   1 0.07012 0.03648 0.97927-0.95557-0.18999-0.29246
  -4  -3   719317.01 1015.52   1 0.01243-0.11910-0.97793 0.95445 0.20855 0.27353
  -4  -3   617889.51 1149.17   1-0.70209 0.55222-0.70379 0.65029-0.10836 0.52168
   4   3  -616556.68 1051.28   1-0.01965 0.16946 0.99302-0.93962-0.11623-0.29730
  -4  -3   615021.94  955.03   1-0.10168-0.04819-0.99215 0.93902 0.07275 0.34046
  -4  -3   516301.69 1035.34   1-0.64910 0.45603-0.70050 0.61737-0.29656 0.64099
   4   3  -517712.91 1113.95   1-0.09666 0.28963 0.99400-0.91109-0.05110-0.29330
  -4  -3   516405.53 1012.15   1-0.27527 0.08232-0.95015 0.86737-0.14641 0.49080
  -4  -3   4133649.2 1083.47   1-0.56143 0.32515-0.66569 0.55299-0.49157 0.76711
   4   3  -4135850.9 1082.37   1-0.16060 0.39673 0.98701-0.87444 0.00365-0.27918
  -4  -3   3 1173.76  178.38   1-0.44302 0.16345-0.59653 0.45411-0.66923 0.87582
   4   3  -3 1107.92  158.58   1-0.21026 0.48956 0.97652-0.83430 0.04685-0.25350
  -4  -3   2232102.4 1700.40   1-0.31139-0.01133-0.50442 0.33240-0.80534 0.94306
   4   3  -2231533.0 1680.08   1-0.24534 0.56782 0.96631-0.79443 0.07775-0.21551
  -4  -3   1100685.6 2425.96   1-0.18822-0.17773-0.40809 0.20642-0.89332 0.96218
   4   3  -196139.10 2307.39   1-0.26579 0.63142 0.95924-0.75772 0.09590-0.16478
   4   3   0 4914.71  508.09   1 0.08722 0.32162 0.32284-0.09165 0.94242-0.94242
   4   3   0 4369.74  499.52   1-0.27148 0.68029 0.95712-0.72595 0.10097-0.10097
   4   3   115226.16  982.91   1 0.01155 0.44049 0.25616 0.00462 0.96656-0.89774
   4   3   114398.32  900.79   1-0.26197 0.71395 0.96062-0.69979 0.09250-0.02362
   4   3   214220.96 1322.58   1-0.04172 0.53678 0.20749 0.08282 0.97734-0.83964
   4   3   211107.20  742.19   1-0.23603 0.73117 0.96925-0.67876 0.06952 0.06824
   4   3   3 2022.01  316.00   1-0.07685 0.61500 0.17477 0.14514 0.98160-0.77504
   4   3   3 1522.51  236.10   1-0.19101 0.72931 0.98112-0.66098 0.03003 0.17660
   4   3   413392.59 1715.56   1-0.09795 0.67920 0.15484 0.19467 0.98307-0.70766
   4   3   5 2139.41  558.67   1-0.10819 0.73254 0.14509 0.23402 0.98348-0.63922
   4   3   6 4979.53 1003.96   1-0.10989 0.77733 0.14347 0.26525 0.98353-0.57042
  -4  -4  13 5495.42  616.52   1-0.65031 0.77640-0.47561 0.55262 0.59234 0.30299
  -4  -4  12 5179.47  663.85   1-0.67859 0.76148-0.52201 0.56937 0.51672 0.30975
  -4  -4  11  314.74  312.50   1-0.70250 0.74219-0.56700 0.58471 0.43010 0.32749
  -4  -4  11  333.85  138.50   1 0.17649-0.13665-0.90261 0.92078 0.39260 0.36533
  -4  -4  1021770.88  983.27   1-0.72044 0.71690-0.60987 0.59789 0.33017 0.35856
   4   4 -1020660.70  836.40   1 0.24511-0.24133 0.91249-0.90068-0.32751-0.36127
  -4  -4  1020444.51  850.43   1 0.11902-0.12244-0.93660 0.92508 0.32956 0.35947
  -4  -4   930405.69  914.42   1-0.73023 0.68348-0.64865 0.60704 0.21448 0.40539
   4   4  -928412.85  813.81   1 0.13191-0.08497 0.96206-0.92061-0.23880-0.38111
  -4  -4   929512.29  920.60   1 0.05101-0.09768-0.96616 0.92496 0.25284 0.36729
  -4  -4   818196.58  629.82   1-0.72804 0.63807-0.68078 0.60949 0.08054 0.47051
   4   4  -816495.07  618.02   1 0.02792 0.06200 0.98743-0.91622-0.15555-0.39583
  -4  -4   817803.40  505.47   1-0.03317-0.05692-0.98735 0.91651 0.15502 0.39593
  -4  -4   7 1206.51  206.36   1-0.70907 0.57589-0.70137 0.60044-0.07262 0.55479
   4   4  -7 1365.71  249.23   1-0.06345 0.19659 0.99480-0.89389-0.07959-0.40286
  -4  -4   7 1385.90  199.42   1-0.14075 0.00760-0.98973 0.88924 0.02478 0.45736
  -4  -4   660473.31 1017.41   1-0.66726 0.49082-0.70426 0.57366-0.24242 0.65574
   4   4  -658440.33  954.95   1-0.14132 0.31763 0.98987-0.85955-0.01295-0.40033
  -4  -4   653205.12  820.82   1-0.28055 0.10420-0.94751 0.81737-0.15334 0.56660
  -4  -4   511611.48  778.46   1-0.59819 0.37854-0.68280 0.52265-0.41945 0.76389
   4   4  -511129.44  933.24   1-0.20624 0.42571 0.97753-0.81756 0.04334-0.38775
  -4  -4   4 3010.68  293.38   1-0.50280 0.23983-0.63353 0.44363-0.58806 0.86351
   4   4  -4 2169.43  350.08   1-0.25752 0.52016 0.96220-0.77257 0.08854-0.36407
  -4  -4   341978.39 1077.97   1-0.39091 0.08474-0.56156 0.34203-0.72926 0.93585
   4   4  -342343.52 1069.52   1-0.29515 0.60107 0.94754-0.72820 0.12261-0.32927
  -4  -4   2 9816.92  671.34   1-0.27753-0.07178-0.47880 0.22968-0.83289 0.97061
   4   4  -2 9813.99  634.67   1-0.31999 0.66909 0.93625-0.68726 0.14502-0.28280
  -4  -4   154199.64  928.94   1-0.17630-0.21623-0.39834 0.11957-0.90013 0.96899
   4   4  -153119.03  864.94   1-0.33217 0.72445 0.93021-0.65158 0.15608-0.22496
   4   4   028411.13  812.97   1 0.09408 0.34133 0.32875-0.02049 0.93971-0.93971
   4   4   027573.76  740.30   1-0.33182 0.76727 0.93039-0.62212 0.15575-0.15575
   4   4   1 4380.58  790.74   1 0.03173 0.44688 0.27420 0.06364 0.96114-0.89232
   4   4   1 3659.13  480.21   1-0.31861 0.79723 0.93691-0.59900 0.14377-0.07488
   4   4   230240.72 1946.69   1-0.01298 0.53460 0.23384 0.13351 0.97218-0.83448
   4   4   229616.26 1657.85   1-0.29151 0.81331 0.94909-0.58153 0.11934 0.01843
   4   4   3  350.84  195.81   1-0.04295 0.60767 0.20636 0.19059 0.97753-0.77097
   4   4   3  280.03  115.58   1-0.24842 0.81322 0.96530-0.56810 0.08047 0.12617
   4   4   4  561.98  204.93   1-0.06107 0.66888 0.18954 0.23701 0.97997-0.70456
   4   4   5 4702.63  923.55   1-0.06966 0.72057 0.18151 0.27464 0.98091-0.63665
  -4  -5  13 5109.89  712.72   1-0.67479 0.77432-0.51545 0.51536 0.52816 0.36717
  -4  -5  12 9852.48 2169.36   1-0.69941 0.75575-0.56070 0.53097 0.44319 0.38328
  -4  -5  12 9725.44 1091.80   1 0.15821-0.10178-0.91434 0.88511 0.37273 0.45410
  -4  -5  1116365.60  834.67   1-0.71816 0.73125-0.60357 0.54415 0.34632 0.41129
   4   5 -1115556.56  696.26   1 0.22631-0.23917 0.92239-0.86317-0.31300-0.44467
  -4  -5  1115397.49  748.63   1 0.09797-0.08479-0.94695 0.88803 0.30605 0.45188
  -4  -5  10 1295.07  243.04   1-0.72926 0.69915-0.64229 0.55323 0.23585 0.45289
   4   5 -10 1421.09  234.87   1 0.10868-0.07861 0.96917-0.88016-0.22111-0.46811
  -4  -5  10 1696.63  325.31   1 0.02814-0.05847-0.97354 0.88498 0.22677 0.46193
  -4  -5   983338.93 2134.24   1-0.72968 0.65634-0.67486 0.55611 0.11008 0.50985
   4   5  -986997.56 2280.20   1 0.00391 0.06935 0.99073-0.87201-0.13577-0.48453
  -4  -5   983758.54 2093.13   1-0.05392-0.01960-0.99000 0.87178 0.13033 0.48949
  -4  -5   840220.94 1563.51   1-0.71590 0.59935-0.69749 0.54910-0.03140 0.58246
   4   5  -838695.75 1468.11   1-0.08797 0.20445 0.99438-0.84596-0.05888-0.49249
  -4  -5   836954.88 1397.80   1-0.15247 0.03592-0.98825 0.84040 0.01025 0.54076
  -4  -5   714341.36  902.17   1-0.68346 0.52365-0.70571 0.52764-0.18665 0.66885
   4   5  -713963.42  977.02   1-0.16593 0.32557 0.98610-0.80837 0.00826-0.49044
  -4  -5   713153.38  829.39   1-0.27042 0.11068-0.95250 0.77499-0.14004 0.62219
  -4  -5   612623.18  807.22   1-0.62900 0.42598-0.69452 0.48681-0.34927 0.76258
   4   5  -612562.64  937.57   1-0.23116 0.43396 0.97072-0.76334 0.06522-0.47851
  -4  -5   611011.82  669.88   1-0.40241 0.19947-0.85786 0.65055-0.31958 0.73279
  -4  -5   552196.53  902.15   1-0.55220 0.30596-0.66099 0.42377-0.50809 0.85252
   4   5  -550255.54  853.23   1-0.28334 0.52931 0.95250-0.71547 0.11157-0.45598
  -4  -5   4 1038.31  216.67   1-0.45819 0.16863-0.60626 0.33926-0.64999 0.92545
   4   5  -4  884.59  165.40   1-0.32274 0.61203 0.93491-0.66814 0.14752-0.42306
  -4  -5   334675.94  729.43   1-0.35729 0.02453-0.53787 0.24124-0.76356 0.97015
   4   5  -330320.15  572.90   1-0.35057 0.68304 0.92044-0.62402 0.17286-0.37952
  -4  -5   2 2985.03  340.35   1-0.26049-0.11542-0.46564 0.13941-0.84576 0.98348
   4   5  -2 2819.53  235.36   1-0.36713 0.74277 0.91095-0.58490 0.18806-0.32584
  -4  -5   151124.15 1313.66   1-0.17611-0.24302-0.39818 0.04231-0.90023 0.96909
   4   5  -148761.18 1218.66   1-0.37284 0.79166 0.90753-0.55183 0.19332-0.26221
   4   5   045562.59 1753.20   1 0.10772 0.35426 0.34045 0.04487 0.93406-0.93406
   4   5   039546.92 1500.95   1-0.36779 0.82978 0.91056-0.52522 0.18867-0.18867
   4   5   1 2039.02  331.00   1 0.05536 0.44982 0.29509 0.11982 0.95386-0.88504
   4   5   1 1970.50  167.39   1-0.35161 0.85678 0.91986-0.50487 0.17382-0.10493
   4   5   221603.62  976.53   1 0.01746 0.53092 0.26146 0.18304 0.96505-0.82741
   4   5   220906.35  894.11   1-0.32330 0.87165 0.93464-0.49001 0.14802-0.01025
   4   5   310986.51 1513.27   1-0.00815 0.59974 0.23835 0.23573 0.97114-0.76468
   4   5   3 9101.89  961.68   1-0.28082 0.87234 0.95346-0.47918 0.10976 0.09689
   4   5   4  868.78  277.29   1-0.02387 0.65825 0.22390 0.27969 0.97431-0.69891
  -4  -6  1313553.39 1502.64   1-0.69437 0.76736-0.55080 0.47361 0.46309 0.43225
  -4  -6  1311865.17 1302.62   1 0.14954-0.07651-0.91961 0.84296 0.36325 0.53249
  -4  -6  1210080.86  696.92   1-0.71445 0.74418-0.59411 0.48723 0.36956 0.45693
  -4  -6  12 9471.42 1448.94   1 0.08838-0.05860-0.95131 0.84498 0.29527 0.53156
  -4  -6  1110651.56  626.77   1-0.72740 0.71393-0.63331 0.49679 0.26417 0.49344
   4   6 -11 7014.03  689.55   1 0.10079-0.08739 0.97144-0.83493-0.21478-0.54336
  -4  -6  11 9179.26  815.82   1 0.01910-0.03286-0.97613 0.84021 0.21630 0.54126
  -4  -6  1031768.04 1374.97   1-0.73078 0.67407-0.66687 0.50066 0.14571 0.54310
   4   6 -1035522.76 1475.85   1-0.00519 0.06180 0.99173-0.82550-0.12823-0.56099
  -4  -6  1032059.50 1372.60   1-0.05962 0.00267-0.99054 0.82496 0.12351 0.56518
  -4  -6   911122.57  867.92   1-0.72196 0.62204-0.69179 0.49593 0.01405 0.60589
   4   6  -911544.67  870.69   1-0.09681 0.19661 0.99399-0.79851-0.05097-0.56895
  -4  -6   910250.85  949.87   1-0.15008 0.05013-0.98858 0.79337 0.01323 0.60666
  -4  -6   8136650.7 3374.93   1-0.69756 0.55437-0.70475 0.47921-0.12936 0.68045
   4   6  -8136980.5 3397.03   1-0.17550 0.31847 0.98433-0.75920 0.01655-0.56761
  -4  -6   8131134.9 3221.22   1-0.25323 0.11010-0.96022 0.73535-0.11765 0.66867
  -4  -6   745297.75 1732.91   1-0.65494 0.46855-0.70191 0.44674-0.27995 0.76215
   4   6  -744650.49 1713.20   1-0.24105 0.42718 0.96768-0.71290 0.07395-0.55612
  -4  -6   743082.71 1611.28   1-0.36533 0.17899-0.89149 0.63680-0.26788 0.74995
  -4  -6   6 2191.97  281.23   1-0.59322 0.36361-0.68065 0.39598-0.42987 0.84319
   4   6  -6 1211.17  212.50   1-0.29374 0.52322 0.94814-0.66359 0.12134-0.53466
  -4  -6   539743.41 1050.90   1-0.51517 0.24234-0.64082 0.32652-0.56915 0.91359
   4   6  -537314.13  973.88   1-0.33497 0.60763 0.92877-0.61458 0.15862-0.50306
  -4  -6   4 3199.51  368.62   1-0.42718 0.11102-0.58614 0.24203-0.68843 0.96389
   4   6  -4 2805.00  336.96   1-0.36518 0.68102 0.91210-0.56826 0.18627-0.46182
  -4  -6   323261.57  748.44   1-0.33789-0.02139-0.52399 0.15030-0.78182 0.98840
   4   6  -321588.08  623.83   1-0.38510 0.74411 0.89989-0.52641 0.20466-0.41132
  -4  -6   229295.53 1204.44   1-0.25516-0.14735-0.46149 0.05816-0.84965 0.98737
   4   6  -225938.51 1107.21   1-0.39527 0.79746 0.89326-0.49013 0.21410-0.35187
  -4  -6   111669.44  605.82   1-0.18389-0.26184-0.40455-0.02842-0.89583 0.96469
   4   6  -111287.81  548.05   1-0.39602 0.84138 0.89276-0.45999 0.21479-0.28368
   4   6   040417.21 1619.39   1 0.12610 0.36245 0.35606 0.10633 0.92591-0.92591
   4   6   033089.09 1313.07   1-0.38731 0.87585 0.89847-0.43606 0.20671-0.20671
   4   6   130614.10 1559.40   1 0.08153 0.45022 0.31792 0.17406 0.94460-0.87578
   4   6   129128.19 1265.83   1-0.36870 0.90041 0.91002-0.41796 0.18951-0.12062
   4   6   2  245.45  164.31   1 0.04904 0.52591 0.28952 0.23204 0.95591-0.81827
   4   6   2  265.42  116.44   1-0.33913 0.91402 0.92661-0.40491 0.16241-0.02464
   4   6   317907.59 1277.45   1 0.02704 0.59111 0.27002 0.28113 0.96247-0.75600
   4   6   4  848.31  223.60   1 0.01400 0.64734 0.25836 0.32238 0.96594-0.69066
  -4  -7  13 4243.35  532.48   1-0.70910 0.75547-0.58157 0.42724 0.39866 0.49670
  -4  -7  13 2560.12  665.80   1 0.08760-0.04122-0.95165 0.79792 0.29439 0.60135
  -4  -7  12 2260.60  418.18   1-0.72429 0.72745-0.62171 0.43773 0.29811 0.52838
  -4  -7  12 2113.30  547.74   1 0.01972-0.01690-0.97596 0.79266 0.21702 0.60941
  -4  -7  11 4979.67  413.24   1-0.73095 0.69092-0.65651 0.44290 0.18624 0.57137
   4   7 -11 4932.90  516.65   1-0.00200 0.04194 0.99139-0.77766-0.13087-0.62727
  -4  -7  11 4065.39  624.77   1-0.05546 0.01508-0.99015 0.77719 0.12849 0.62907
  -4  -7  1039185.60 1712.26   1-0.72675 0.64347-0.68400 0.44069 0.06293 0.62588
   4   7 -1038032.23 1628.48   1-0.09432 0.17745 0.99412-0.75123-0.05309-0.63572
  -4  -7  1033864.12 1450.26   1-0.13922 0.05588-0.98990 0.74732 0.02667 0.66209
  -4  -7   9 2504.66  268.06   1-0.70945 0.58296-0.70121 0.42825-0.07052 0.69046
   4   7  -9 1989.50  306.56   1-0.17350 0.29980 0.98472-0.71218 0.01481-0.63475
  -4  -7   9 1591.10  295.37   1-0.23185 0.10532-0.96857 0.69634-0.09003 0.70993
  -4  -7   870149.29 3895.20   1-0.67669 0.50693-0.70537 0.40273-0.21102 0.76211
   4   7  -867309.56 3735.50   1-0.23969 0.40915 0.96811-0.66592 0.07274-0.62380
  -4  -7   862604.60 3455.08   1-0.33063 0.16089-0.91762 0.61554-0.22056 0.77150
  -4  -7   747048.66 1263.47   1-0.62757 0.41460-0.69403 0.36176-0.35279 0.83500
   4   7  -749418.85 1308.44   1-0.29337 0.50622 0.94830-0.61633 0.12101-0.60321
  -4  -7   743216.53 1123.02   1-0.42936 0.21641-0.82913 0.49741-0.35801 0.84008
  -4  -7   6 6678.03  431.39   1-0.56327 0.30707-0.66661 0.30486-0.48821 0.90153
   4   7  -6 5466.62  352.22   1-0.33614 0.59217 0.92817-0.56655 0.15969-0.57301
  -4  -7   522757.54 1383.82   1-0.48788 0.18834-0.62465 0.23307-0.60972 0.95404
   4   7  -521194.13 1265.58   1-0.36852 0.66772 0.91013-0.51886 0.18934-0.53377
  -4  -7   413120.86  705.85   1-0.40778 0.06503-0.57313 0.15192-0.71079 0.98625
   4   7  -412256.87  585.45   1-0.39127 0.73365 0.89590-0.47499 0.21038-0.48593
  -4  -7   3 1525.38  240.71   1-0.32938-0.05649-0.51776 0.06696-0.78957 0.99615
   4   7  -3 1353.98  183.65   1-0.40504 0.79059 0.88663-0.43608 0.22320-0.42986
  -4  -7   244233.00 2502.09   1-0.25821-0.17089-0.46387-0.01655-0.84743 0.98515
   4   7  -238506.29 2161.32   1-0.41026 0.83899 0.88298-0.40279 0.22808-0.36585
  -4  -7   1  593.83  221.75   1-0.19733-0.27498-0.41550-0.09457-0.88792 0.95678
   4   7  -1  234.26  174.94   1-0.40710 0.87900 0.88520-0.37536 0.22512-0.29401
   4   7   022330.58 1033.47   1 0.14794 0.36718 0.37440 0.16505 0.91538-0.91538
   4   7   020059.71  924.24   1-0.39541 0.91049 0.89316-0.35368 0.21423-0.21423
   4   7   1 8733.02 1015.76   1 0.10967 0.44865 0.34211 0.22693 0.93323-0.86441
   4   7   1 8975.35 1870.55   1-0.37465 0.93291 0.90642-0.33730 0.19499-0.12611
   4   7   2 2103.08  496.69   1 0.08171 0.51981 0.31807 0.28056 0.94453-0.80689
   4   7   2 1871.38  289.54   1-0.34369 0.94513 0.92418-0.32542 0.16657-0.02880
  -4  -8  1231930.50 2211.75   1-0.72952 0.70612-0.64383 0.38276 0.23078 0.59570
   4   8 -1229132.00 1978.98   1 0.01166 0.01160 0.98977-0.72853-0.14216-0.68490
  -4  -8  1228464.03 1947.55   1-0.04432 0.02051-0.98890 0.72857 0.14178 0.68466
  -4  -8  11 3987.62  568.45   1-0.72988 0.66323-0.67386 0.38308 0.11477 0.64293
   4   8 -11 2527.74  597.18   1-0.08265 0.14912 0.99455-0.70361-0.06339-0.69475
  -4  -8  11 2896.39  574.71   1-0.12281 0.05579-0.99131 0.70132 0.04691 0.71065
  -4  -8  10 2136.04  359.24   1-0.71891 0.60905-0.69502 0.37460-0.01025 0.69908
   4   8 -10 2916.85  519.05   1-0.16223 0.27186 0.98673-0.66679 0.00506-0.69388
  -4  -8  10 2038.31  384.02   1-0.20749 0.09757-0.97646 0.65687-0.05888 0.74766
  -4  -8   9 8152.29  739.47   1-0.69466 0.54152-0.70517 0.35506-0.14204 0.76201
   4   8  -9 8134.95  848.92   1-0.22949 0.38229 0.97121-0.62161 0.06375-0.68369
  -4  -8   9 7503.49  642.63   1-0.29677 0.14364-0.93872 0.58925-0.17526 0.79507
  -4  -8   8 5918.48  379.83   1-0.65619 0.45985-0.70218 0.32244-0.27629 0.82738
   4   8  -8 6067.92  470.45   1-0.28448 0.48069 0.95199-0.57259 0.11303-0.66412
  -4  -8   8 5773.58  238.73   1-0.38672 0.19038-0.87286 0.49375-0.29756 0.84850
  -4  -8   755114.25 2147.99   1-0.60389 0.36431-0.68518 0.27599-0.40722 0.88943
   4   8  -752516.90 2049.40   1-0.32894 0.56833 0.93184-0.52280 0.15314-0.63534
  -4  -8   629514.40 1221.71   1-0.54035 0.25755-0.65475 0.21593-0.52850 0.94182
   4   8  -628356.06 1166.21   1-0.36343 0.64600 0.91313-0.47444 0.18466-0.59798
  -4  -8   5 2478.55  313.59   1-0.46983 0.14369-0.61358 0.14490-0.63463 0.97895
   4   8  -5 1291.24  193.17   1-0.38877 0.71451 0.89753-0.42920 0.20806-0.55249
  -4  -8   483464.08 3250.17   1-0.39781 0.02846-0.56631 0.06800-0.72182 0.99727
   4   8  -468803.50 2649.90   1-0.40564 0.77456 0.88621-0.38824 0.22376-0.49931
  -4  -8   3 9096.08  569.99   1-0.32904-0.08343-0.51751-0.01038-0.78988 0.99645
   4   8  -3 7360.74  336.55   1-0.41456 0.82665 0.87992-0.35230 0.23210-0.43876
  -4  -8   2  493.32  241.75   1-0.26745-0.18824-0.47104-0.08649-0.84058 0.97830
   4   8  -2  -83.49  136.09   1-0.41581 0.87108 0.87902-0.32176 0.23328-0.37105
  -4  -8   1  328.10  231.67   1-0.21500-0.28391-0.42975-0.15743-0.87697 0.94583
   4   8  -1  651.28  225.19   1-0.40943 0.90788 0.88356-0.29666 0.22731-0.29619
  -4  -8   0  372.92  238.68   1-0.17240-0.36973-0.39513-0.22169-0.90229 0.90229
   4   8   0  492.23  197.53   1-0.39517 0.93679 0.89332-0.27678 0.21400-0.21400
   4   8   1 1405.63  320.96   1 0.13943 0.44546 0.36728 0.27883 0.91959-0.85077
   4   8   1 1578.78  302.90   1-0.37236 0.95717 0.90781-0.26162 0.19288-0.12400
  -4  -9  1210175.76 1147.40   1-0.73109 0.68112-0.66093 0.32277 0.16931 0.65717
   4   9 -12 7156.08  994.07   1-0.06186 0.11167 0.99479-0.65634-0.08092-0.74614
  -4  -9  12 6942.35  986.84   1-0.10198 0.05153-0.99214 0.65478 0.07238 0.75405
  -4  -9  1119642.40 1193.06   1-0.72579 0.63257-0.68597 0.31809 0.05154 0.70615
   4   9 -1116753.05  999.27   1-0.14317 0.23613 0.98963-0.62227-0.01137-0.74633
  -4  -9  1115165.21  915.70   1-0.18070 0.08739-0.98321 0.61626-0.02501 0.78267
  -4  -9  10 3586.42  484.84   1-0.70908 0.57265-0.70137 0.30385-0.07257 0.76140
   4   9 -10 3053.26  508.64   1-0.21201 0.34814 0.97606-0.57906 0.04839-0.73721
  -4  -9  10 2732.24  668.36   1-0.26308 0.12658-0.95591 0.55930-0.13046 0.81924
  -4  -9   9 1414.45  240.58   1-0.67980 0.50009-0.70558 0.27837-0.20002 0.82000
   4   9  -9 2201.46  401.94   1-0.26906 0.44836 0.95803-0.53137 0.09881-0.71875
  -4  -9   8 1758.13  324.94   1-0.63808 0.41516-0.69742 0.24057-0.32626 0.87735
   4   9  -8 1291.75  239.48   1-0.31501 0.53777 0.93862-0.48215 0.14051-0.69160
  -4  -9   8 1548.33  240.53   1-0.42571 0.20275-0.83326 0.37712-0.35275 0.90369
  -4  -9   724039.68 1101.85   1-0.58525 0.31909-0.67710 0.19083-0.44610 0.92831
   4   9  -722600.14 1040.37   1-0.35167 0.61761 0.91983-0.43371 0.17387-0.65608
  -4  -9   636708.26 1612.75   1-0.52446 0.21508-0.64606 0.13016-0.55455 0.96788
   4   9  -632036.46 1404.85   1-0.37950 0.68861 0.90343-0.38767 0.19947-0.61279
  -4  -9   517408.70  921.24   1-0.45969 0.10696-0.60721 0.06143-0.64804 0.99236
   4   9  -517860.15  873.98   1-0.39921 0.75150 0.89062-0.34522 0.21776-0.56220
  -4  -9   426218.69 1258.18   1-0.39535-0.00057-0.56463-0.01078-0.72448 0.99994
   4   9  -421924.04 1017.08   1-0.41136 0.80682 0.88220-0.30716 0.22911-0.50465
  -4  -9   326663.76 1602.29   1-0.33497-0.10409-0.52186-0.08314-0.78450 0.99108
   4   9  -322212.92 1289.24   1-0.41632 0.85496 0.87864-0.27396 0.23376-0.44042
  -4  -9   2  113.61  253.12   1-0.28139-0.20089-0.48176-0.15288-0.82989 0.96760
   4   9  -2  546.79  167.26   1-0.41426 0.89608 0.88013-0.24580 0.23183-0.36960
  -4  -9   1 2207.09  408.35   1-0.23593-0.28957-0.44640-0.21788-0.86316 0.93202
   4   9  -1 1151.88  292.32   1-0.40510 0.93010 0.88658-0.22261 0.22326-0.29215
  -4  -9   0 1224.98  422.72   1-0.19905-0.36968-0.41689-0.27704-0.88689 0.88689
   4   9   0  149.04  142.04   1-0.38847 0.95664 0.89772-0.20410 0.20778-0.20778
  -4 -10  1112749.46 1412.78   1-0.71994 0.60014-0.69402 0.24905-0.00242 0.76012
  -4 -10  1110185.19 1508.81   1-0.22872 0.10883-0.96968 0.52571-0.08601 0.84367
  -4 -10  1012310.80  815.28   1-0.69883 0.53575-0.70452 0.22984-0.12362 0.81249
   4  10 -1010172.17 1374.60   1-0.24729 0.40992 0.96567-0.49160 0.07947-0.76829
  -4 -10  1010978.34  682.76   1-0.30635 0.14320-0.93316 0.45928-0.18799 0.87666
  -4 -10   9 4550.28  585.46   1-0.66643 0.46014-0.70413 0.19981-0.24509 0.86506
   4  10  -9 3615.02  467.68   1-0.29538 0.50150 0.94745-0.44355 0.12281-0.74279
  -4 -10   9 4795.06  594.29   1-0.38201 0.17565-0.87714 0.37362-0.29099 0.91079
  -4 -10   8 1793.05  332.34   1-0.62343 0.37389-0.69269 0.15897-0.36264 0.91374
   4  10  -8 1544.72  269.02   1-0.33434 0.58364 0.92910-0.39556 0.15805-0.70914
  -4 -10   7 1318.90  281.76   1-0.57198 0.27922-0.67087 0.10752-0.47197 0.95418
   4  10  -7 1268.63  268.36   1-0.36465 0.65713 0.91242-0.34923 0.18578-0.66798
  -4 -10   6 1252.37  283.80   1-0.51504 0.17907-0.64075 0.04776-0.56935 0.98267
   4  10  -6 1199.44  278.99   1-0.38706 0.72272 0.89863-0.30580 0.20648-0.61980
  -4 -10   532203.33 2280.36   1-0.45621 0.07688-0.60500-0.01788-0.65256 0.99687
   4  10  -529174.75 2052.54   1-0.40218 0.78101 0.88860-0.26613 0.22053-0.56496
  -4 -10   412157.17  958.43   1-0.39892-0.02360-0.56708-0.08543-0.72060 0.99606
   4  10  -4 9946.30 2088.40   1-0.41042 0.83243 0.88286-0.23075 0.22823-0.50378
  -4 -10   320451.76 1272.01   1-0.34581-0.11985-0.52974-0.15235-0.77445 0.98103
   4  10  -316684.10 1039.99   1-0.41205 0.87724 0.88171-0.19995 0.22976-0.43642
  -4 -10   2 3727.50  574.43   1-0.29903-0.20985-0.49515-0.21659-0.81572 0.95343
   4  10  -2 3233.12  492.71   1-0.40711 0.91547 0.88519-0.17379 0.22513-0.36291
  -4 -11  10 6826.71  810.08   1-0.68946 0.49981-0.70561 0.15383-0.16349 0.85236
   4  11 -10 4761.57 1186.20   1-0.27109 0.46022 0.95727-0.40615 0.10063-0.78945
  -4 -11  10 5223.12  712.09   1-0.33903 0.14927-0.91173 0.36082-0.23193 0.92061
  -4 -11   9 2017.17  344.54   1-0.65552 0.42266-0.70204 0.12062-0.27824 0.89822
   4  11  -9 1793.48  337.20   1-0.31208 0.54475 0.93999-0.35903 0.13786-0.75784
  -4 -11   9 1607.03  287.36   1-0.40727 0.17430-0.85296 0.27241-0.32645 0.94625
  -4 -11   8 2801.59  455.32   1-0.61287 0.33675-0.68877 0.07798-0.38726 0.93835
   4  11  -8 2825.63  434.34   1-0.34495 0.62079 0.92351-0.31290 0.16772-0.71881
  -4 -11   7  624.70  266.53   1-0.56390 0.24455-0.66692 0.02649-0.48706 0.96927
   4  11  -7  558.12  279.72   1-0.37003 0.68905 0.90922-0.26897 0.19073-0.67294
  -4 -11   6 1001.69  464.63   1-0.51134 0.14878-0.63862-0.03143-0.57504 0.98837
   4  11  -6  460.50  216.02   1-0.38796 0.75016 0.89805-0.22815 0.20731-0.62063
  -4 -11   5  270.52  238.76   1-0.45826 0.05234-0.60631-0.09368-0.64990 0.99422
   4  11  -5  -60.35  191.84   1-0.39923 0.80461 0.89060-0.19106 0.21778-0.56222
  -4 -11   4 6020.84  829.53   1-0.40734-0.04178-0.57282-0.15679-0.71129 0.98674
   4  11  -4 4692.48  655.41   1-0.40414 0.85269 0.88725-0.15807 0.22236-0.49791
  -5  12  -1 1831.45  402.94   1-0.72804 0.59268 0.39352 0.50153 0.56132-0.63021
  -5  12  -2 3781.08  579.89   1-0.72595 0.54738 0.40126 0.46420 0.55854-0.69633
  -5  12  -3  364.06  224.98   1-0.72119 0.49940 0.41812 0.41775 0.55231-0.75899
  -5  12  -4 1054.91  311.88   1-0.71310 0.44809 0.44465 0.36162 0.54200-0.81757
  -5  12  -5 5439.51  636.88   1-0.70076 0.39233 0.48116 0.29535 0.52669-0.87111
   5 -12   5 4393.35  648.34   1-0.41728 0.72548-0.84249 0.06635-0.34069 0.68502
  -5  11   2 1486.27  346.68   1-0.73856 0.70625 0.35061 0.55616 0.57583-0.43804
  -5  11   1  386.70  265.86   1-0.74194 0.66642 0.33505 0.54213 0.58073-0.51183
  -5  11   0 8440.91  722.36   1-0.74341 0.62467 0.32796 0.51962 0.58289-0.58289
  -5  11  -112027.46  830.97   1-0.74302 0.58106 0.32986 0.48813 0.58232-0.65121
  -5  11  -2 1103.89  275.91   1-0.74060 0.53542 0.34136 0.44705 0.57877-0.71656
  -5  11  -3   98.20  204.25   1-0.73568 0.48729 0.36312 0.39569 0.57175-0.77844
  -5  11  -4 3497.36  470.95   1-0.72740 0.43579 0.39591 0.33331 0.56047-0.83605
  -5  11  -5 5915.05  697.43   1-0.71441 0.37958 0.44051 0.25912 0.54365-0.88812
   5 -11   5 5677.42  710.18   1-0.39927 0.73408-0.86096 0.16184-0.31515 0.65949
  -5  11  -6 4443.42  627.66   1-0.69475 0.31650 0.49744 0.17242 0.51948-0.93278
   5 -11   6 4388.14  619.77   1-0.34287 0.72089-0.90895 0.23947-0.23715 0.65035
  -5  11  -7  157.17  141.91   1-0.66490 0.24344 0.56801 0.07225 0.48503-0.96722
   5 -11   7  558.44  172.17   1-0.28368 0.70503-0.94589 0.30629-0.15747 0.63961
  -5  10   3 1271.83  293.00   1-0.02857 0.01203 0.21959 0.63959 0.97517-0.76861
  -5  10   3 1812.53  344.21   1-0.74897 0.73328 0.29872 0.56059 0.59143-0.38474
  -5  10   214179.67  970.05   1-0.75282 0.69391 0.27568 0.55404 0.59770-0.45991
  -5  10   116647.93 1234.13   1-0.75497 0.65284 0.26140 0.53873 0.60139-0.53250
  -5  10   0  533.73  269.55   1-0.75568 0.61033 0.25643 0.51410 0.60264-0.60264
  -5  10  -130046.05 1357.93   1-0.75496 0.56640 0.26146 0.47948 0.60138-0.67027
  -5  10  -2 6781.46  455.42   1-0.75257 0.52079 0.27727 0.43408 0.59728-0.73507
  -5  10  -3 1321.46  336.96   1-0.74788 0.47289 0.30478 0.37697 0.58971-0.79640
  -5  10  -4  -19.13  191.58   1-0.73980 0.42159 0.34504 0.30712 0.57760-0.85318
   5 -10   4  -86.36  153.72   1-0.43222 0.75043-0.82585 0.17413-0.36212 0.63759
  -5  10  -5 2792.25  394.43   1-0.72652 0.36509 0.39918 0.22339 0.55929-0.90376
   5 -10   5 2551.31  398.49   1-0.37430 0.73572-0.88393 0.26184-0.28028 0.62461
  -5  10  -6 4828.70  600.39   1-0.70521 0.30056 0.46842 0.12457 0.53222-0.94559
   5 -10   6 4692.39  565.66   1-0.31279 0.71742-0.92925 0.33680-0.19660 0.60980
   5 -10   7 8375.44 1381.65   1-0.24960 0.69753-0.96173 0.39915-0.11294 0.59508
   5 -10   8  302.08  143.33   1-0.18610 0.67722-0.98201 0.44908-0.03181 0.58283
  -5   9   5  227.68  106.70   1-0.15680 0.19990 0.09813 0.74322 0.98274-0.63848
  -5   9   5  421.55  267.51   1-0.75074 0.79488 0.28849 0.55295 0.59426-0.24979
  -5   9   4  284.47   96.17   1-0.13547 0.13547 0.11888 0.69287 0.98362-0.70821
  -5   9   4  703.88  336.14   1-0.75679 0.75771 0.24831 0.56354 0.60465-0.32907
  -5   9   3  183.07   64.44   1-0.09831 0.05521 0.15450 0.62765 0.98308-0.77653
  -5   9   3  359.46  219.68   1-0.76050 0.71805 0.21667 0.56572 0.61211-0.40539
  -5   9   2 6602.64  559.20   1-0.03825-0.04793 0.21069 0.54186 0.97680-0.83910
  -5   9   2 7768.97  501.20   1-0.76269 0.67703 0.19416 0.55863 0.61692-0.47910
  -5   9   1 4527.38  775.49   1 0.05598-0.18509 0.29563 0.42755 0.95365-0.88483
  -5   9   1 6531.59  640.94   1-0.76376 0.63489 0.18124 0.54196 0.61952-0.55061
  -5   9   0 7256.34  366.20   1-0.76396 0.59187 0.17861 0.51500 0.62004-0.62004
  -5   9  -1 7254.44  348.94   1-0.76328 0.54799 0.18717 0.47684 0.61834-0.68725
  -5   9  -235916.79 1533.21   1-0.76139 0.50288 0.20799 0.42644 0.61401-0.75183
  -5   9  -3 3734.64  328.23   1-0.75758 0.45599 0.24221 0.36249 0.60612-0.81281
  -5   9  -4  829.88  218.22   1-0.75023 0.40542 0.29150 0.28361 0.59344-0.86902
   5  -9   4  763.34  225.39   1-0.40522 0.75004-0.85504 0.28034-0.32356 0.59903
  -5   9  -5 2405.18  356.85   1-0.73699 0.34896 0.35750 0.18802 0.57360-0.91807
   5  -9   5 1983.07  337.92   1-0.34097 0.72899-0.91033 0.36528-0.23456 0.57890
  -5   9  -6 3155.87  275.69   1-0.71390 0.28265 0.44213 0.07380 0.54300-0.95637
   5  -9   6 2077.41  413.90   1-0.27459 0.70591-0.95048 0.43526-0.14551 0.55877
   5  -9   7 9816.92 2469.73   1-0.20797 0.68248-0.97632 0.49075-0.05949 0.54164
   5  -9   8 8294.96 1553.77   1-0.14257 0.66027-0.98952 0.53361 0.02253 0.52848
  -5   8   6 4124.25  982.58   1-0.23570 0.29605 0.01914 0.77479 0.97163-0.55860
  -5   8   6 6676.49  785.36   1-0.75653 0.81728 0.25026 0.54372 0.60417-0.19080
  -5   8   5 2279.14  457.89   1-0.22823 0.24538 0.02674 0.73762 0.97323-0.62904
  -5   8   5 2756.46  433.08   1-0.76217 0.77955 0.19993 0.56458 0.61572-0.27117
  -5   8   4  900.92  218.57   1-0.20915 0.18310 0.04599 0.68879 0.97680-0.70144
  -5   8   4  684.65  269.36   1-0.76530 0.73947 0.15875 0.57616 0.62378-0.34814
  -5   8   3 5595.15  638.44   1-0.17364 0.10398 0.08160 0.62351 0.98142-0.77486
  -5   8   3 4927.78  547.88   1-0.76679 0.69774 0.12685 0.57847 0.62923-0.42250
  -5   8   2 5484.82  417.19   1-0.11130-0.00145 0.14212 0.53339 0.98357-0.84586
  -5   8   2 6437.29  424.58   1-0.76735 0.65509 0.10474 0.57098 0.63261-0.49479
  -5   8   1 1141.53  246.30   1-0.00548-0.15019 0.24077 0.40533 0.97056-0.90174
  -5   8   1 1572.72  336.16   1-0.76749 0.61201 0.09314 0.55300 0.63425-0.56534
  -5   8   011223.47  883.13   1-0.76749 0.56880 0.09296 0.52358 0.63428-0.63428
   5  -8   1   86.52   38.55   1-0.47590 0.71810-0.61734 0.03014-0.62641 0.69527
  -5   8  -1   -8.41  214.80   1-0.76734 0.52544 0.10539 0.48156 0.63252-0.70143
  -5   8  -290833.75 5027.50   1-0.76661 0.48149 0.13188 0.42547 0.62842-0.76624
  -5   8  -354202.07 3027.41   1-0.76428 0.43596 0.17424 0.35352 0.62089-0.82761
  -5   8  -4   97.66  169.19   1-0.75855 0.38714 0.23447 0.26358 0.60795-0.88353
   5  -8   4  247.82  124.87   1-0.36827 0.73970-0.88905 0.39138-0.27194 0.54741
  -5   8  -510047.05  493.50   1-0.74586 0.33123 0.31556 0.15291 0.58659-0.93107
   5  -8   510217.84  518.20   1-0.29780 0.71244-0.93814 0.47011-0.17663 0.52097
  -5   8  -6 9975.74  488.69   1-0.72045 0.26261 0.42064 0.01824 0.55135-0.96472
   5  -8   610291.38 1022.54   1-0.22732 0.68522-0.97017 0.53196-0.08420 0.49747
   5  -8   720828.44 1522.12   1-0.15855 0.65964-0.98734 0.57879 0.00269 0.47944
   5  -8   813206.47  998.59   1-0.09275 0.63683-0.99217 0.61319 0.08359 0.46736
  -5   7   7 1100.24  284.97   1-0.30281 0.37976-0.05041 0.79688 0.95171-0.46984
  -5   7   7 1039.42  289.16   1-0.76054 0.83775 0.21625 0.53037 0.61221-0.12984
  -5   7   6 8433.71 1105.20   1-0.30691 0.34067-0.05475 0.77164 0.95015-0.53712
  -5   7   610231.41  678.59   1-0.76553 0.79953 0.15472 0.56231 0.62451-0.21105
  -5   7   514074.44  716.37   1-0.30317 0.29373-0.05079 0.73810 0.95158-0.60738
  -5   7   515180.55  782.74   1-0.76738 0.75816 0.10262 0.58482 0.63292-0.28837
  -5   7   4  193.04   84.53   1-0.28821 0.23558-0.03506 0.69279 0.95692-0.68156
  -5   7   4  661.14  272.85   1-0.76731 0.71488 0.06010 0.59775 0.63845-0.36281
  -5   7   3 1763.06  275.00   1-0.25591 0.16008-0.00152 0.62967 0.96669-0.76018
  -5   7   3 2263.24  304.12   1-0.76630 0.67066 0.02755 0.60070 0.64188-0.43515
  -5   7   214954.19  518.84   1-0.19471 0.05538 0.06071 0.53776 0.97897-0.84127
  -5   7   217367.42  617.82   1-0.76516 0.62630 0.00561 0.59305 0.64380-0.50599
  -5   7   125183.20 1457.75   1-0.07746-0.10495 0.17420 0.39467 0.98165-0.91280
  -5   7   126190.87 1143.56   1-0.76449 0.58242-0.00481 0.57388 0.64461-0.57570
  -5   7   020328.47 1245.93   1-0.76464 0.53936-0.00253 0.54201 0.64444-0.64444
  -5   7  -1 9071.92  604.78   1-0.76564 0.49714 0.01403 0.49585 0.64310-0.71201
  -5   7  -245547.00 1749.89   1-0.76700 0.45529 0.04691 0.43338 0.63992-0.77774
  -5   7  -3136875.1 3389.31   1-0.76743 0.41251 0.09872 0.35197 0.63347-0.84020
   5  -7   3112534.7 2780.87   1-0.39485 0.74968-0.86524 0.41496-0.30894 0.51554
  -5   7  -437190.38 2088.55   1-0.76438 0.36624 0.17286 0.24824 0.62115-0.89679
   5  -7   436643.37 2062.19   1-0.31918 0.71721-0.92522 0.50458-0.20515 0.48062
  -5   7  -5 1871.90  201.11   1-0.75316 0.31193 0.27349 0.11792 0.59828-0.94275
   5  -7   5 1437.86  247.58   1-0.24366 0.68495-0.96413 0.57328-0.10524 0.44963
  -5   7  -628193.23 1214.41   1-0.72431 0.23986 0.40720-0.04537 0.55637-0.96974
   5  -7   626842.86 1251.25   1-0.17072 0.65520-0.98524 0.62404-0.01249 0.42575
   5  -7   713153.05 1263.24   1-0.10179 0.62929-0.99215 0.66054 0.07262 0.40946
   5  -7   8 3771.96  854.63   1-0.03689 0.60760-0.98790 0.68595 0.15061 0.40034
   5  -7   9 4412.27  747.54   1 0.02390 0.59001-0.97478 0.70250 0.22186 0.39796
  -5   6   8 1592.64  410.41   1-0.35816 0.45172-0.10985 0.80883 0.92717-0.37646
  -5   6   8 1343.72  238.08   1-0.76320 0.85702 0.18824 0.51091 0.61813-0.06685
  -5   6   7 2225.44  555.50   1-0.37139 0.42176-0.12436 0.79376 0.92010-0.43823
  -5   6   7 2636.43  579.70   1-0.76717 0.81778 0.11364 0.55591 0.63129-0.14892
  -5   6   6  215.67  135.64   1-0.37972 0.38691-0.13320 0.77320 0.91545-0.50245
  -5   6   6 -159.32  196.58   1-0.76706 0.77446 0.04918 0.59078 0.63968-0.22622
  -5   6   534085.75 1432.29   1-0.38123 0.34521-0.13487 0.74528 0.91458-0.57041
  -5   6   536978.76 1584.39   1-0.76446 0.72864-0.00525 0.61563 0.64464-0.30009
  -5   6   433578.94 1922.76   1-0.37269 0.29347-0.12579 0.70646 0.91938-0.64403
  -5   6   437606.31 2146.30   1-0.76025 0.68086-0.05008 0.63074 0.64769-0.37226
  -5   6   3 1967.57  400.04   1-0.34803 0.22562-0.09882 0.64991 0.93225-0.72574
  -5   6   3 1991.06  324.52   1-0.75632 0.63374-0.08360 0.63464 0.64883-0.44225
  -5   6   2 7608.29  695.10   1-0.29290 0.12729-0.03998 0.56149 0.95530-0.81762
  -5   6   211323.40  986.99   1-0.75325 0.58748-0.10569 0.62711 0.64917-0.51146
  -5   6   140586.69  979.33   1-0.16951-0.03946 0.08566 0.40617 0.98179-0.91294
   5  -6  -140586.84  968.76   1-0.72868 0.93772-0.63919 0.14699 0.24585-0.31473
  -5   6   143669.07 1172.72   1-0.75181 0.54284-0.11524 0.60703 0.64922-0.58036
   5  -6   028971.45  694.22   1-0.72083 0.97306-0.69308 0.23048 0.00467-0.00467
  -5   6   031987.38  926.99   1-0.75251 0.50034-0.11070 0.57287 0.64920-0.64920
  -5   6  -141621.12 1119.59   1-0.75548 0.46011-0.08996 0.52251 0.64896-0.71782
  -5   6  -2  176.48  197.81   1-0.76024 0.42167-0.05018 0.45311 0.64769-0.78541
   5  -6   2   55.10  143.31   1-0.42092 0.75914-0.83856 0.43566-0.34588 0.48362
  -5   6  -388790.35 3291.63   1-0.76558 0.38406 0.01292 0.36070 0.64320-0.84993
   5  -6   377008.28 2846.83   1-0.33830 0.71973-0.91225 0.53900-0.23094 0.43754
  -5   6  -440578.37 1075.06   1-0.76736 0.34262 0.10417 0.23986 0.63269-0.90833
   5  -6   437447.82 1040.04   1-0.25617 0.68087-0.95896 0.61548-0.12147 0.39698
   5  -6   5 1276.47  205.21   1-0.23535 0.70333 0.01950-0.33397 0.97171-0.62752
  -5   6  -5 1857.93  173.03   1-0.75877 0.29082 0.23191 0.08252 0.60866-0.95320
   5  -6   5 1651.19  254.26   1-0.17801 0.64589-0.98378 0.66996-0.02163 0.36602
   5  -6   6  505.38  223.02   1-0.10542 0.61636-0.99208 0.70785 0.06819 0.34502
   5  -6   7 4483.44  444.99   1-0.03827 0.59242-0.98810 0.73352 0.14896 0.33312
   5  -6   8 8052.49 1344.68   1 0.02367 0.57367-0.97485 0.74994 0.22159 0.32936
   5  -6   9 2628.40  719.88   1 0.08136 0.55965-0.95436 0.75897 0.28735 0.33278
  -5   5   9  894.02  271.61   1-0.40289 0.51311-0.15906 0.81074 0.90131-0.28180
  -5   5   8 2426.98  344.59   1-0.42299 0.49000-0.18184 0.80393 0.88769-0.33702
  -5   5   8 2629.86  374.83   1-0.76751 0.83474 0.07805 0.54404 0.63626-0.08498
  -5   5   729210.64 1305.98   1-0.43998 0.46379-0.20135 0.79386 0.87513-0.39329
  -5   5   729151.40 1284.66   1-0.76478 0.78880-0.00044 0.59293 0.64428-0.16191
  -5   5   614983.09  707.37   1-0.45319 0.43379-0.21671 0.77962 0.86466-0.45166
  -5   5   616393.79  769.77   1-0.75816 0.73864-0.06883 0.63170 0.64842-0.23527
  -5   5   550148.41 2793.02   1-0.46141 0.39881-0.22634 0.75967 0.85782-0.51365
  -5   5   553898.67 3008.37   1-0.75011 0.68739-0.12592 0.65916 0.64920-0.30492
  -5   5   4111362.4 4086.63   1-0.46225 0.35645-0.22734 0.73108 0.85710-0.58177
  -5   5   4119728.2 4824.00   1-0.74169 0.63578-0.17223 0.67586 0.64824-0.37281
  -5   5   3 6387.96  544.28   1-0.45056 0.30155-0.21364 0.68779 0.86680-0.66030
  -5   5   3 6721.46  533.35   1-0.73417 0.58506-0.20725 0.68125 0.64655-0.43998
  -5   5   2  280.71  102.12   1-0.41296 0.22075-0.17043 0.61501 0.89465-0.75698
   5  -5  -2  383.52  102.81   1-0.73101 0.92342-0.65778 0.21303 0.18146-0.31921
  -5   5   2 1027.24  330.71   1-0.72873 0.53642-0.23009 0.67447 0.64498-0.50727
  -5   5   1 3224.05  202.26   1-0.30168 0.06629-0.04922 0.46410 0.95213-0.88329
   5  -5  -1 3189.85  185.54   1-0.72183 0.95743-0.69193 0.27679 0.01300-0.08188
  -5   5   1 3457.16  295.72   1-0.72637 0.49087-0.23943 0.65419 0.64424-0.57538
  -5   5   027109.27  584.16   1-0.72792 0.44922-0.23333 0.61847 0.64473-0.64473
  -5   5  -142692.73  796.32   1-0.73377 0.41187-0.20901 0.56453 0.64644-0.71530
  -5   5  -214512.64  905.94   1-0.74362 0.37852-0.16243 0.48833 0.64857-0.78628
   5  -5   212918.35  797.69   1-0.35452 0.71936-0.90015 0.57428-0.25304 0.39078
  -5   5  -3 5924.20  521.94   1-0.75579 0.34750-0.08761 0.38389 0.64891-0.85548
   5  -5   3 5985.04  789.03   1-0.26343 0.67152-0.95575 0.65962-0.13092 0.33756
   5  -5   423292.37 1336.68   1-0.14961 0.60064 0.10515-0.37194 0.98313-0.70773
  -5   5  -417979.04 1034.86   1-0.67643 0.22478-0.70535 0.97232-0.21191-0.06362
  -5   5  -423835.24 1394.80   1-0.76618 0.31485 0.02495 0.24201 0.64212-0.91776
   5  -5   421706.31 1287.02   1-0.17868 0.62996-0.98364 0.71718-0.02248 0.29799
   5  -5   517177.38 1218.68   1-0.24651 0.74108 0.00811-0.24552 0.96910-0.62491
  -5   5  -515493.96 1105.42   1-0.76298 0.26843 0.19077 0.04660 0.61762-0.96216
   5  -5   517601.33 1271.41   1-0.10195 0.59632-0.99214 0.75528 0.07242 0.27192
   5  -5   6  670.49  108.94   1-0.27956 0.81732-0.02601-0.18180 0.95977-0.54674
   5  -5   6  763.73  158.20   1-0.03264 0.57021-0.98727 0.78007 0.15565 0.25757
   5  -5   711370.21 1559.33   1 0.03008 0.55069-0.97295 0.79541 0.22901 0.25307
   5  -5   8 8316.39 1318.76   1 0.08761 0.53679-0.95165 0.80367 0.29441 0.25681
   5  -5   9  263.54  184.13   1 0.14038 0.52728-0.92495 0.80666 0.35318 0.26694
  -5   4   9 1209.42  348.47   1-0.46320 0.54684-0.22846 0.80305 0.85629-0.23678
  -5   4   9 1050.91  271.50   1-0.76707 0.85092 0.04968 0.52493 0.63962-0.01943
  -5   4   812230.27  786.93   1-0.48627 0.52670-0.25590 0.80091 0.83549-0.28481
  -5   4   813285.05  802.64   1-0.76070 0.80104-0.04567 0.59075 0.64749-0.09663
  -5   4   727601.05 1207.71   1-0.50720 0.50443-0.28132 0.79674 0.81461-0.33277
  -5   4   728052.73 1201.01   1-0.74975 0.74690-0.12810 0.64356 0.64919-0.16719
  -5   4   627687.72 1584.69   1-0.52578 0.47959-0.30423 0.79038 0.79435-0.38116
  -5   4   629990.48 1717.45   1-0.73599 0.68994-0.19920 0.68503 0.64701-0.23387
  -5   4   5  733.33  148.24   1-0.54158 0.45220-0.32419 0.78070 0.77561-0.43129
  -5   4   5 1344.27  291.37   1-0.72116 0.63191-0.25916 0.71538 0.64246-0.29817
  -5   4   478671.46 1921.69   1-0.55364 0.42107-0.33967 0.76654 0.76032-0.48486
  -5   4   482298.82 2042.42   1-0.70692 0.57454-0.30784 0.73438 0.63677-0.36134
  -5   4   337411.91  628.51   1-0.55979 0.38402-0.34764 0.74488 0.75218-0.54558
  -5   4   344596.41  815.46   1-0.69466 0.51909-0.34475 0.74170 0.63133-0.42475
  -5   4   213661.98  849.77   1-0.55377 0.33481-0.33983 0.70744 0.76016-0.62243
   5  -4  -214505.80  896.45   1-0.71793 0.93690-0.69588 0.32820-0.01735-0.12040
  -5   4   215200.99  984.08   1-0.68593 0.46716-0.36897 0.73633 0.62717-0.48946
  -5   4   1 1075.19   89.23   1-0.50773 0.24573-0.28196 0.61987 0.81406-0.74523
   5  -4  -1 1143.42   90.89   1-0.62917 0.89133-0.69467 0.35672-0.34866 0.27977
  -5   4   1 1360.55  196.50   1-0.68213 0.42016-0.37904 0.71681 0.62530-0.55645
  -5   4   033726.63  900.23   1-0.68455 0.37938-0.37267 0.68085 0.62649-0.62649
  -5   4  -121671.71 1158.77   1-0.69410 0.34573-0.34636 0.62495 0.63107-0.69992
   5  -4   119190.41 1196.59   1-0.36654 0.71477-0.89049 0.61202-0.26955 0.33842
  -5   4  -216974.28  863.94   1-0.68650 0.29469-0.70571 0.95486-0.17512 0.03734
  -5   4  -217664.00  899.25   1-0.44574 0.05396-0.59829 0.84745-0.66584 0.52811
  -5   4  -219367.71 1044.81   1-0.71103 0.31947-0.29454 0.54354 0.63848-0.77620
   5  -4   218500.86  985.75   1-0.26274 0.65422-0.95606 0.70730-0.13002 0.26778
   5  -4   3 4052.96  323.79   1-0.03392 0.46842 0.21467-0.43403 0.97609-0.76954
  -5   4  -3 3163.56  205.21   1-0.73090 0.29591-0.66467 0.88416 0.15487-0.36151
  -5   4  -3 3504.51  256.44   1-0.73393 0.29911-0.20832 0.42757 0.64648-0.85305
   5  -4   3 4711.88  674.00   1-0.16971 0.60438-0.98542 0.76632-0.01123 0.21787
   5  -4   435669.08 1336.67   1-0.17961 0.65721 0.07570-0.26545 0.98081-0.70541
  -5   4  -430977.32 1155.88   1-0.73067 0.25247-0.65263 0.84244 0.20046-0.47596
  -5   4  -425419.56 1458.43   1 0.17694-0.65512 0.94517-0.75552-0.27446-0.00104
  -5   4  -433959.42 1281.56   1-0.75787 0.27986-0.07120 0.26083 0.64849-0.92392
   5  -4   435105.82 1349.71   1-0.08864 0.56644-0.99211 0.80262 0.08858 0.18690
   5  -4   535354.34 1957.29   1-0.23715 0.75830 0.01767-0.17802 0.97131-0.62711
  -5   4  -534596.85 1908.18   1-0.76570 0.24455 0.15169 0.00860 0.62504-0.96959
   5  -4   539807.26 2244.80   1-0.01776 0.53876-0.98472 0.82489 0.17322 0.17112
   5  -4   6 1732.58  270.88   1-0.25953 0.82388-0.00525-0.12551 0.96571-0.55268
   5  -4   6 2636.64  268.37   1 0.04510 0.51946-0.96820 0.83794 0.24606 0.16735
   5  -4   7 1738.70  375.62   1-0.26334 0.87089-0.00919-0.09199 0.96465-0.48278
   5  -4   7 2483.00  424.62   1 0.10132 0.50649-0.94538 0.84481 0.30981 0.17251
   5  -4   8 5012.55  732.30   1 0.15251 0.49855-0.91783 0.84694 0.36650 0.18472
  -5   3  10 2159.72  384.26   1-0.49384 0.59410-0.26504 0.79214 0.82817-0.13982
  -5   3   9 3610.68  347.43   1-0.52098 0.57803-0.29834 0.79585 0.79972-0.18021
  -5   3   9 3665.41  319.75   1-0.75635 0.81336-0.08334 0.58101 0.64882-0.02911
  -5   3   8 3982.42  436.12   1-0.54665 0.56028-0.33066 0.79898 0.76930-0.21838
  -5   3   8 4506.76  481.71   1-0.73964 0.75346-0.18224 0.65030 0.64784-0.09699
  -5   3   7 7595.05  600.61   1-0.57113 0.54157-0.36254 0.80123 0.73645-0.25440
  -5   3   7 9041.42  701.89   1-0.71863 0.68925-0.26830 0.70673 0.64154-0.15954
  -5   3   624581.28 1451.14   1-0.59451 0.52176-0.39404 0.80310 0.70091-0.28772
  -5   3   626875.18 1084.50   1-0.69545 0.62289-0.34248 0.75115 0.63169-0.21855
  -5   3   523243.15  653.36   1-0.61702 0.50108-0.42558 0.80500 0.66193-0.31760
  -5   3   526120.61  751.56   1-0.67195 0.55619-0.40484 0.78393 0.62013-0.27584
  -5   3   417497.86  939.98   1-0.63873 0.47956-0.45786 0.80774 0.61837-0.34288
  -5   3   418678.23 1013.59   1-0.64994 0.49098-0.45557 0.80506 0.60829-0.33286
  -5   3   3105363.6 2503.32   1-0.66088 0.45851-0.49236 0.81259 0.56640-0.35978
   5  -3  -3100807.1 2383.76   1-0.71107 0.91340-0.70043 0.38021-0.06130-0.14534
  -5   3   3115682.6 2785.02   1-0.63124 0.42908-0.49430 0.81420 0.59765-0.39108
  -5   3   228753.64  711.19   1-0.68462 0.43906-0.53268 0.82327 0.49752-0.35978
   5  -3  -230188.26  736.84   1-0.65466 0.90023-0.70184 0.41126-0.28075 0.14298
  -5   3   230195.97  808.31   1-0.61771 0.37236-0.52027 0.81059 0.58969-0.45197
  -5   3   1  359.55   57.83   1-0.71259 0.42385-0.58962 0.85054 0.38019-0.31132
   5  -3  -1  189.85   35.35   1-0.42153 0.71029-0.58238 0.32144-0.69508 0.62621
  -5   3   1  584.67  133.14   1-0.61092 0.32225-0.53199 0.79271 0.58630-0.51744
  -5   3   036271.87  858.86   1-0.22673-0.10503 0.02826 0.20291 0.97354-0.97354
  -5   3   035994.79  850.70   1-0.72525 0.39330-0.68697 0.91828 0.04551-0.04551
  -5   3   038034.66  976.28   1-0.61353 0.28165-0.52724 0.75833 0.58787-0.58787
   5  -3   040773.19 1005.05   1-0.37137 0.70299-0.88644 0.65535-0.27622 0.27622
  -5   3  -134054.94  811.12   1-0.58381 0.20871-0.37948 0.58110 0.71774-0.78660
  -5   3  -134183.17  814.53   1-0.44995 0.07478-0.60100 0.80269-0.66055 0.59168
  -5   3  -134042.33  885.36   1-0.62722 0.25228-0.50217 0.70372 0.59531-0.66417
   5  -3   138579.73  991.26   1-0.24855 0.62342-0.96217 0.76077-0.11157 0.18045
   5  -3   212662.62  660.88   1 0.09200 0.32612 0.32696-0.49898 0.94054-0.80290
  -5   3  -210067.10  531.57   1-0.65683 0.23848-0.48587 0.65788 0.57662-0.71436
  -5   3  -211371.89  634.69   1-0.65277 0.23462-0.44939 0.62134 0.60986-0.74757
   5  -3   211297.73  620.18   1-0.14556 0.56362-0.98916 0.81742 0.01883 0.11891
   5  -3   317573.28  487.98   1-0.09194 0.55300 0.16053-0.30285 0.98273-0.77618
  -5   3  -314296.78  850.62   1-0.68533 0.22378-0.53397 0.67632 0.49516-0.70178
  -5   3  -313070.70  775.59   1 0.09534-0.55710 0.97295-0.83043-0.21039 0.00362
  -5   3  -315265.09  923.85   1-0.69062 0.22928-0.35614 0.49851 0.62943-0.83601
   5  -3   315549.05 1083.97   1-0.06104 0.52226-0.99067 0.84855 0.12182 0.08478
   5  -3   4 2512.56  445.14   1-0.17884 0.68299 0.07647-0.18918 0.98090-0.70549
  -5   3  -4 1275.95  234.96   1-0.08516-0.41964 0.99450-0.88193-0.06085-0.21466
  -5   3  -4 2028.69  274.54   1-0.73689 0.23234-0.19514 0.30774 0.64723-0.92266
   5  -3   4 3117.75  572.17   1 0.00966 0.49476-0.97864 0.86618 0.20533 0.07015
   5  -3   534570.25 1947.98   1-0.21887 0.76661 0.03620-0.11949 0.97508-0.63088
   5  -3   537582.42 2121.41   1 0.07058 0.47737-0.95880 0.87595 0.27514 0.06936
   5  -3   629008.91 1292.90   1-0.23516 0.82609 0.01970-0.07341 0.97175-0.55872
   5  -3   629669.00 1311.95   1 0.12413 0.46707-0.93391 0.88075 0.33523 0.07818
   5  -3   7 2942.56  592.83   1-0.23684 0.87098 0.01798-0.04211 0.97138-0.48950
   5  -3   7 4881.64  474.38   1 0.17240 0.46205-0.90531 0.88183 0.38817 0.09415
   5  -3   8 1484.18  417.16   1-0.22884 0.90617 0.02612-0.02067 0.97311-0.42240
  -5   2  1112521.68 1378.42   1-0.51650 0.63337-0.29277 0.77238 0.80467-0.04750
  -5   2  1012972.53  974.49   1-0.54623 0.61969-0.33013 0.78063 0.76983-0.08118
  -5   2   9  132.07  169.24   1-0.57483 0.60509-0.36745 0.78832 0.73112-0.11133
  -5   2   9  409.95  185.86   1-0.72886 0.75934-0.22955 0.65019 0.64502-0.02531
  -5   2   812021.17  888.46   1-0.60235 0.58942-0.40488 0.79611 0.68792-0.13700
  -5   2   813627.20  966.75   1-0.69913 0.68639-0.33172 0.72253 0.63337-0.08251
  -5   2   7 7589.19  408.26   1-0.62896 0.57284-0.44290 0.80450 0.63892-0.15687
  -5   2   7 7629.04  404.96   1-0.66576 0.60982-0.41975 0.78097 0.61689-0.13489
  -5   2   6 3292.76  354.25   1-0.65455 0.55523-0.48227 0.81434 0.58220-0.16897
  -5   2   6 3754.93  364.61   1-0.63091 0.53177-0.49495 0.82658 0.59746-0.18431
  -5   2   524937.06  514.72   1-0.67970 0.53718-0.52394 0.82637 0.51331-0.16894
  -5   2   526676.29  552.94   1-0.59620 0.45384-0.55787 0.86007 0.57732-0.23301
  -5   2   4  161.27  132.25   1-0.70369 0.51797-0.56946 0.84224 0.42488-0.14938
  -5   2   4  311.61  167.41   1-0.56446 0.37888-0.60889 0.88146 0.55733-0.28188
  -5   2   3107905.0  867.26   1-0.72395 0.49505-0.62058 0.86369 0.30126-0.09464
   5  -2  -3102724.8  790.45   1-0.65679 0.88573-0.70232 0.45920-0.27452 0.06786
  -5   2   292293.15  717.83   1-0.72960 0.45749-0.67524 0.88872 0.10828 0.02947
   5  -2  -289914.50  674.85   1-0.53053 0.80265-0.64943 0.43600-0.54476 0.40698
  -5   2   293352.82  847.54   1-0.51728 0.24527-0.67485 0.88817 0.52629-0.38856
  -5   2   1 6498.16  439.92   1-0.67635 0.36100-0.70534 0.88919-0.21221 0.28110
   5  -2  -1 6416.37  430.88   1-0.22725 0.54258-0.43952 0.25566-0.86900 0.80014
  -5   2   1 5876.37  426.13   1-0.50650 0.19128-0.68853 0.87222 0.51901-0.45015
   5  -2  -1 6686.62  455.95   1-0.36063 0.67565-0.89532 0.71162-0.26141 0.19255
  -5   2   033210.94  301.37   1-0.17983-0.17850 0.07548 0.07859 0.98079-0.98079
  -5   2   034780.79  322.56   1-0.47867 0.12011-0.61905 0.77326-0.62260 0.62260
  -5   2   031463.32  413.58   1-0.50765 0.14922-0.68709 0.84115 0.51979-0.51979
  -5   2  -1111260.7 2617.42   1-0.20571-0.19606-0.42227 0.54684-0.88281 0.81395
  -5   2  -1111267.5 2647.81   1-0.52351 0.12187-0.66673 0.79116 0.53047-0.59933
   5  -2   1128891.2 3054.16   1-0.09536 0.49681-0.99218 0.86778 0.08043-0.01156
   5  -2   2 6361.79  518.93   1 0.00848 0.43620 0.25340-0.34836 0.96732-0.82968
  -5   2  -2 5373.79  307.33   1-0.56077 0.11592-0.34893 0.44384 0.75084-0.88857
  -5   2  -2 4866.60  398.17   1-0.00181-0.44327 0.99137-0.89636-0.13103-0.00681
  -5   2  -2 5594.57  331.50   1-0.55704 0.11219-0.61998 0.71479 0.55255-0.69027
   5  -2   2 6170.44  522.27   1-0.01168 0.45633-0.98352 0.88878 0.18036-0.04262
   5  -2   330328.90  788.01   1-0.10475 0.59238 0.14837-0.21365 0.98336-0.77681
  -5   2  -321794.10  563.72   1-0.16280-0.32533 0.98664-0.92148 0.00555-0.21220
  -5   2  -325755.10  666.28   1-0.61133 0.12325-0.53125 0.59643 0.58655-0.79313
   5  -2   328083.84  766.53   1 0.05460 0.43350-0.96487 0.89975 0.25695-0.05024
   5  -2   434384.76 1296.68   1-0.16561 0.69633 0.08950-0.12517 0.98212-0.70671
  -5   2  -435146.75 1302.73   1-0.68841 0.15729-0.36224 0.39797 0.62837-0.90381
   5  -2   434988.46 1341.81   1 0.10989 0.42146-0.94122 0.90578 0.31939-0.04377
   5  -2   515985.37 1162.01   1-0.19636 0.77017 0.05906-0.06514 0.97875-0.63449
   5  -2   516879.30  752.25   1 0.15806 0.41654-0.91443 0.90868 0.37257-0.02805
   5  -2   660490.53 2526.18   1-0.20792 0.82544 0.04722-0.02387 0.97700-0.56397
   5  -2   713840.44 1038.54   1-0.20809 0.86881 0.04705 0.00587 0.97697-0.49510
   5  -2   8  -31.80  120.85   1-0.19965 0.90357 0.05549 0.02700 0.97829-0.42758
  -5   1  11 5187.99  732.71   1-0.56406 0.65415-0.35323 0.75628 0.74636 0.01114
  -5   1  1017387.80 1035.82   1-0.59435 0.64124-0.39381 0.76723 0.70118-0.01253
  -5   1  1018292.27 1051.64   1-0.71870 0.76584-0.26806 0.64130 0.64156 0.04700
  -5   1   910433.20  556.84   1-0.62330 0.62700-0.43464 0.77842 0.65005-0.03027
  -5   1   911219.23  530.73   1-0.67900 0.68287-0.38716 0.73052 0.62374-0.00402
  -5   1   8  631.96  158.08   1-0.65067 0.61119-0.47617 0.79044 0.59151-0.04052
  -5   1   8  667.01  159.59   1-0.63405 0.59472-0.48870 0.80246 0.59928-0.04842
  -5   1   731315.91  882.97   1-0.67673 0.59406-0.51878 0.80341 0.52238-0.04027
  -5   1   732169.83  864.18   1-0.58597 0.50348-0.57499 0.85941 0.57097-0.08893
  -5   1   612994.72  808.41   1-0.70055 0.57468-0.56300 0.81798 0.43845-0.02521
  -5   1   613588.54  856.56   1-0.53777 0.41207-0.64749 0.90228 0.53994-0.12677
  -5   1   5 2522.06  245.00   1-0.72015 0.55109-0.60905 0.83435 0.33229 0.01208
  -5   1   5 2472.18  227.27   1-0.49125 0.32233-0.70709 0.93225 0.50861-0.16430
   5  -1  -5 2686.31  199.58   1 0.17386-0.00510-0.90435 0.67882 0.38975-0.73427
  -5   1   435932.60  439.68   1-0.73087 0.51861-0.65518 0.85084 0.19117 0.08432
  -5   1   437380.27  519.22   1-0.44817 0.23591-0.75502 0.95030 0.47861-0.20312
  -5   1   3 7247.85  503.25   1-0.71972 0.46425-0.69424 0.86026-0.00410 0.21074
   5  -1  -3 6939.10  474.74   1-0.56302 0.81851-0.66648 0.50050-0.48866 0.28200
  -5   1   3 7538.87  539.57   1-0.41185 0.15639-0.79082 0.95653 0.45273-0.24611
  -5   1   2461823.727951.58   1-0.65799 0.35927-0.70257 0.83895-0.27098 0.40875
   5  -1  -2429971.126021.30   1-0.38181 0.68056-0.55523 0.41886-0.73887 0.60114
  -5   1   2416075.825193.40   1-0.38428 0.08562-0.81550 0.95164 0.43275-0.29501
   5  -1  -2453612.827445.48   1-0.29796 0.59638-0.93805 0.80174-0.17683 0.03910
  -5   1   197583.62  751.75   1-0.50987 0.16792-0.63765 0.74438-0.57742 0.64629
  -5   1   0 1956.06  329.94   1-0.18634-0.19856 0.06903 0.00799 0.98005-0.98005
  -5   1   0 2333.68  190.04   1-0.29948-0.08565-0.49549 0.57260-0.81534 0.81534
   5  -1   0 3114.99  369.55   1 0.00398 0.38088-0.98004 0.90301 0.19871-0.19871
  -5   1   0 2308.39  176.08   1-0.37664-0.00819-0.88189 0.95892-0.28353 0.28353
   5  -1   125941.43  663.67   1 0.11018 0.31787 0.34255-0.39002 0.93301-0.86419
  -5   1  -123379.14 1216.18   1-0.38433-0.04381-0.13831 0.18581 0.91277-0.98160
  -5   1  -123902.23  606.74   1-0.10531-0.32298 0.99347-0.94606-0.04375-0.02512
  -5   1  -121451.82 1124.70   1-0.38218-0.04606-0.81730 0.86474 0.43122-0.50009
   5  -1   124804.11  705.68   1 0.07173 0.35652-0.95834 0.91094 0.27644-0.20754
   5  -1   228046.98  506.29   1-0.01995 0.49105 0.22748-0.24532 0.97357-0.83587
  -5   1  -222642.14 1171.85   1-0.24148-0.22998 0.96755-0.94980 0.07433-0.21209
  -5   1  -223187.14 1208.59   1-0.41983-0.05161-0.78329 0.80116 0.45846-0.59621
   5  -1   224872.46  484.56   1 0.12337 0.34813-0.93432 0.91660 0.33439-0.19658
   5  -1   341817.46 1072.96   1-0.09972 0.61391 0.15315-0.14139 0.98315-0.77660
  -5   1  -336291.77  872.62   1-0.41122-0.10335 0.88230-0.89416 0.22898-0.43564
  -5   1  -341094.04 1000.60   1-0.48487-0.02975-0.71459 0.70274 0.50423-0.71081
   5  -1   343215.06 1100.70   1 0.16674 0.34801-0.90898 0.92094 0.38202-0.17531
   5  -1   443224.43 1173.31   1-0.14579 0.70307 0.10887-0.06751 0.98330-0.70789
  -5   1  -443653.93 1079.72   1-0.58892 0.03107-0.57013 0.52866 0.57281-0.84826
   5  -1   5  231.51   97.08   1-0.16993 0.77031 0.08525-0.01429 0.98176-0.63750
   5  -1   631857.86 1500.94   1-0.17936 0.82284 0.07595 0.02461 0.98084-0.56773
   5  -1   715552.56  998.10   1-0.17839 0.86497 0.07690 0.05325 0.98094-0.49898
  -5   0  12  754.03  234.60   1-0.57584 0.68256-0.36880 0.72439 0.72964 0.09672
  -5   0  11 2606.95  398.10   1-0.60719 0.67071-0.41164 0.73761 0.67960 0.07790
  -5   0  10 2026.16  325.89   1-0.63681 0.65714-0.45455 0.75088 0.62277 0.06587
  -5   0  10 2394.52  318.55   1-0.66009 0.68058-0.43294 0.72884 0.61386 0.07471
  -5   0   960361.01 2350.14   1-0.66425 0.64142-0.49784 0.76465 0.55760 0.06225
  -5   0   967849.99 2593.56   1-0.60235 0.57973-0.54724 0.81388 0.58110 0.03865
  -5   0   817994.69 1098.07   1-0.68947 0.62344-0.54155 0.77872 0.48098 0.07000
  -5   0   820268.38 1207.86   1-0.54121 0.47537-0.64272 0.87973 0.54221 0.00868
  -5   0   725162.76  731.50   1-0.71095 0.60173-0.58578 0.79326 0.38911 0.09301
  -5   0   728443.24  799.75   1-0.47884 0.36980-0.72154 0.92893 0.50007-0.01803
  -5   0   649764.22  878.36   1-0.72643 0.57401-0.62940 0.80724 0.27592 0.13732
  -5   0   650296.31  885.31   1-0.41697 0.26451-0.78601 0.96341 0.45641-0.04318
   5   0  -646606.24  720.11   1-0.05027 0.20255-0.98961 0.81164 0.13469-0.54791
  -5   0   512643.23  819.95   1-0.73049 0.53486-0.66984 0.81804 0.13293 0.21147
   5   0  -513021.67  869.85   1-0.04526 0.24074-0.98902 0.84071 0.14066-0.48501
  -5   0   414870.43 1007.61   1-0.71293 0.47409-0.69942 0.81797-0.05026 0.32579
   5   0  -416371.02  995.00   1-0.10239 0.34108-0.99214 0.87349 0.07188-0.34736
  -5   0   379790.66  703.41   1-0.65563 0.37354-0.70206 0.79097-0.27792 0.48458
   5   0  -379277.59  656.49   1-0.44549 0.72764-0.59813 0.50924-0.66615 0.45956
   5   0  -386712.17  765.50   1 0.26429 0.01784 0.90168-0.99060-0.34222 0.13558
  -5   0   2 3195.56  257.90   1-0.54035 0.21505-0.65475 0.71402-0.52849 0.66626
   5   0  -2 3539.62  265.92   1-0.24780 0.57310-0.45575 0.39645-0.85491 0.71719
   5   0  -2 3870.74  298.65   1 0.23085 0.09444 0.92006-0.97934-0.31651 0.17875
  -5   0   1230767.8 1614.06   1-0.37546 0.00691-0.55077 0.58040-0.74543 0.81429
  -5   0   1221368.3 1484.89   1-0.30093-0.06731-0.93635 0.96599-0.18078 0.24965
  -5   0   0134724.1 3180.17   1-0.20587-0.20587-0.42240 0.42240-0.88271 0.88271
   5   0   0160728.6 3786.37   1 0.20581 0.20581 0.93241-0.93241-0.29707 0.29707
  -5   0   0120079.3 2826.03   1-0.20571-0.20571-0.97697 0.97697-0.05662 0.05662
   5   0   1 3498.35  434.76   1 0.06981 0.38481 0.30773-0.27815 0.94890-0.88008
   5   0   1 3449.51  219.27   1 0.21989 0.23488 0.92561-0.89597-0.30802 0.37690
   5   0   264378.83 1606.13   1-0.02477 0.52243 0.22307-0.16387 0.97448-0.83678
   5   0   274919.42 1806.33   1 0.25678 0.24116 0.90600-0.84672-0.33647 0.47423
  -5   0  -261276.25 1484.32   1-0.44587-0.05207 0.85600-0.91529 0.26163-0.39941
   5   0   3 6344.32  773.39   1-0.08546 0.62622 0.16666-0.07786 0.98230-0.77574
  -5   0  -3 5394.31  673.46   1-0.58577 0.04453 0.70489-0.79370 0.39999-0.60666
   5   0   4 7337.37  947.58   1-0.12190 0.70575 0.13196-0.01356 0.98372-0.70832
  -5   0  -4 6522.57  474.15   1-0.43460-0.14985-0.76886 0.65059 0.46900-0.74449
   5   0   5 7631.77  922.16   1-0.14129 0.76824 0.11324 0.03476 0.98346-0.63921
   5   0   6 2776.23  568.66   1-0.14844 0.81848 0.10629 0.07130 0.98319-0.57008
   5   0   7 8097.28 1321.13   1-0.14644 0.85958 0.10823 0.09896 0.98327-0.50131
  -5  -1  12 7556.53  658.22   1-0.61481 0.69496-0.42242 0.70093 0.66600 0.16037
  -5  -1  11 7541.44  549.41   1-0.64457 0.68159-0.46674 0.71575 0.60553 0.15206
  -5  -1  10 1373.44  235.35   1-0.67209 0.66591-0.51086 0.73023 0.53600 0.15271
  -5  -1  10 1843.45  246.66   1-0.57401 0.56805-0.59417 0.81341 0.56343 0.12518
  -5  -1   946646.32 2616.22   1-0.69641 0.64703-0.55475 0.74447 0.45524 0.16461
  -5  -1   954964.26 3050.94   1-0.49970 0.45053-0.69691 0.88651 0.51439 0.10536
  -5  -1   886915.06 3236.24   1-0.71605 0.62347-0.59810 0.75813 0.35990 0.19108
  -5  -1   894623.96 3484.89   1-0.42335 0.33067-0.77991 0.93944 0.46098 0.08999
  -5  -1   7  123.15  186.02   1-0.72870 0.59292-0.63931 0.76970 0.24548 0.23664
   5   1  -7  583.03  104.44   1-0.22169 0.35739-0.97207 0.84150-0.07700-0.40513
  -5  -1   640899.85  746.68   1-0.72951 0.55051-0.67563 0.77637 0.10640 0.30689
   5   1  -642481.09  733.83   1 0.27983-0.10065 0.89236-0.99315-0.35407-0.05919
   5   1  -640297.77  613.80   1-0.27317 0.45206-0.95117 0.85026-0.14365-0.26960
  -5  -1   5 7679.96  530.22   1-0.71082 0.48861-0.70056 0.77165-0.06277 0.40718
   5   1  -5 7326.32  496.81   1 0.21500 0.00733 0.92801-0.99916-0.30423-0.04016
  -5  -1   419279.08 1204.05   1-0.66091 0.39544-0.70316 0.74460-0.26221 0.53775
   5   1  -418015.97 1126.89   1 0.15831 0.10718 0.95260-0.99411-0.25976-0.01574
  -5  -1   3182692.5 1369.40   1-0.56906 0.26039-0.66946 0.68129-0.47746 0.68413
   5   1  -3192240.2 1448.36   1 0.11183 0.19682 0.96843-0.98030-0.22275 0.01611
  -5  -1   2 7550.06  536.31   1-0.43773 0.08579-0.59309 0.57524-0.67574 0.81346
   5   1  -2 9875.05  812.64   1 0.07724 0.27464 0.97760-0.95980-0.19577 0.05792
  -5  -1   2 7637.06  509.06   1-0.14652-0.20510-0.98904 0.97134 0.01764 0.12011
  -5  -1   1114401.1 2719.72   1-0.29097-0.10414-0.48905 0.44159-0.82228 0.89114
   5   1  -1123568.3 2949.96   1 0.05702 0.33806 0.98213-0.93462-0.17934 0.11042
  -5  -1   1100331.6 2359.86   1-0.06753-0.32739-0.99117 0.94380 0.11403-0.04516
   5   1   070096.65 1701.80   1 0.15837 0.27962 0.38308-0.30602 0.91003-0.91003
   5   1   067748.86 1683.70   1 0.05277 0.38551 0.98299-0.90578-0.17588 0.17588
   5   1   1 7169.19  600.91   1 0.05549 0.42570 0.29520-0.18855 0.95382-0.88499
   5   1   1 8063.43  513.56   1 0.06672 0.41476 0.98004-0.87312-0.18723 0.25615
   5   1   222295.56  630.55   1-0.01742 0.54165 0.22979-0.09355 0.97308-0.83538
   5   1   223613.11  610.14   1 0.10207 0.42261 0.97108-0.83446-0.21580 0.35365
   5   1   311838.60 1201.71   1-0.06564 0.63296 0.18527-0.01943 0.98049-0.77393
   5   1   312629.71  585.65   1 0.16398 0.40364 0.95041-0.78443-0.26425 0.47089
   5   1   4  317.20  122.21   1-0.09525 0.70566 0.15740 0.03803 0.98292-0.70752
   5   1   5 2098.30  436.79   1-0.11099 0.76450 0.14242 0.08261 0.98356-0.63930
   5   1   6  -27.43  141.04   1-0.11623 0.81284 0.13740 0.11723 0.98367-0.57056
  -5  -2  12 3668.39  501.64   1-0.64836 0.70202-0.47257 0.67413 0.59690 0.22956
  -5  -2  1113437.22  866.82   1-0.67583 0.68630-0.51723 0.68914 0.52508 0.23251
  -5  -2  1117403.99  995.59   1-0.55111 0.56181-0.62865 0.80048 0.54869 0.20879
  -5  -2  10 1978.60  259.12   1-0.69959 0.66686-0.56105 0.70332 0.44248 0.24624
  -5  -2  10 1572.54  142.49   1-0.46364 0.43076-0.73854 0.88019 0.48947 0.19924
  -5  -2   938456.44 1125.31   1-0.71814 0.64220-0.60353 0.71610 0.34643 0.27343
  -5  -2   940592.82 1106.23   1-0.37660 0.30052-0.82201 0.93410 0.42714 0.19270
  -5  -2   8134724.8 3218.23   1-0.72938 0.61023-0.64295 0.72589 0.23367 0.31732
  -5  -2   749692.15 1315.41   1-0.72922 0.56686-0.67683 0.73010 0.10058 0.38158
   5   2  -748616.75 1235.84   1 0.21282-0.05028 0.92907-0.98245-0.30253-0.17961
   5   2  -744877.94 1089.53   1-0.39412 0.55631-0.86594 0.81251-0.30791-0.17415
  -5  -2   6  682.93  152.55   1-0.71203 0.50646-0.69993 0.72356-0.05569 0.46898
  -5  -2   557408.83 1436.09   1-0.66984 0.42100-0.70463 0.69860-0.23410 0.57853
   5   2  -555790.47 1377.16   1 0.07326 0.17555 0.97854-0.97265-0.19254-0.15207
  -5  -2   543741.35 1032.00   1 0.12637-0.37508-0.93272 0.92696 0.33772 0.00679
  -5  -2   4112954.0 2700.38   1-0.59572 0.30368-0.68174 0.64612-0.42466 0.70021
   5   2  -4118451.6 2826.30   1 0.01834 0.27367 0.98886-0.95326-0.14767-0.12801
  -5  -2   4113647.1 2641.24   1-0.17252-0.11931-0.98489 0.94948-0.01474 0.29025
  -5  -2   322252.86  354.04   1-0.48976 0.15443-0.62578 0.56046-0.60706 0.81365
   5   2  -323879.39  498.94   1-0.02483 0.36005 0.99340-0.92809-0.11192-0.09484
  -5  -2   2 5573.69  385.12   1-0.36499-0.01353-0.54337 0.44842-0.75599 0.89371
   5   2  -2 6045.02  409.98   1-0.05506 0.43349 0.99471-0.89970-0.08664-0.05120
  -5  -2   1 9632.39  641.03   1-0.24189-0.17980-0.45111 0.32654-0.85906 0.92791
   5   2  -110827.46  768.55   1-0.07130 0.49292 0.99478-0.87005-0.07298 0.00405
  -5  -2   1 9067.31  571.62   1 0.09456-0.51626-0.94853 0.82403 0.30222-0.23331
   5   2   034661.26  642.34   1 0.13674 0.32782 0.36503-0.21089 0.92089-0.92089
   5   2   033398.07  585.68   1-0.07242 0.53724 0.99476-0.84034-0.07203 0.07203
   5   2   145197.60 1251.78   1 0.05565 0.45211 0.29534-0.11162 0.95376-0.88494
   5   2   148136.55 1191.92   1-0.05694 0.56497 0.99474-0.81061-0.08506 0.15398
   5   2   2  408.70  183.86   1-0.00257 0.55354 0.24341-0.03010 0.96991-0.83227
   5   2   2  283.47   76.96   1-0.02251 0.57374 0.99324-0.77940-0.11385 0.25170
   5   2   345147.90 1818.56   1-0.04212 0.63600 0.20712 0.03575 0.97740-0.77085
   5   2   350158.79 1911.00   1 0.03515 0.55927 0.98624-0.74270-0.16148 0.36824
   5   2   4 7803.27 1007.66   1-0.06655 0.70353 0.18442 0.08805 0.98059-0.70518
   5   2   5  267.02  168.05   1-0.07933 0.75941 0.17243 0.12964 0.98181-0.63756
   5   2   6  288.51  137.90   1-0.08292 0.80609 0.16906 0.16262 0.98211-0.56900
  -5  -3  1311844.64 1251.69   1-0.64872 0.71903-0.47313 0.62723 0.59607 0.29927
  -5  -3  12 8513.54 1001.61   1-0.67643 0.70354-0.51826 0.64272 0.52329 0.30318
  -5  -3  1123506.53 1105.43   1-0.70009 0.68401-0.56207 0.65688 0.44038 0.31721
  -5  -3  1122362.38  992.58   1-0.43704 0.42075-0.76641 0.86062 0.47074 0.28685
  -5  -3  1019101.36  853.32   1-0.71831 0.65901-0.60399 0.66911 0.34526 0.34348
  -5  -3   9  447.58  220.90   1-0.72927 0.62676-0.64237 0.67785 0.23559 0.38427
   5   3  -9  337.75  151.80   1 0.24900-0.14626 0.91036-0.94596-0.33050-0.28940
  -5  -3   892038.65 2255.32   1-0.72963 0.58390-0.67509 0.68090 0.10898 0.44207
   5   3  -8112493.3 2669.94   1 0.16160-0.01569 0.95133-0.95730-0.26237-0.28866
  -5  -3   892242.64 2161.46   1 0.12760-0.27320-0.93206 0.93826 0.33908 0.21214
  -5  -3   7171701.0 4123.34   1-0.71519 0.52625-0.69799 0.67416-0.03604 0.51822
   5   3  -7176473.1 4214.63   1 0.08125 0.10769 0.97662-0.95292-0.19901-0.28344
  -5  -3   7154901.0 3654.72   1 0.04939-0.23824-0.96672 0.94324 0.25099 0.23133
  -5  -3   6 4109.72  297.98   1-0.68032 0.44811-0.70560 0.65211-0.19818 0.61150
   5   3  -6 4483.49  709.88   1 0.01082 0.22133 0.98988-0.93647-0.14147-0.27206
  -5  -3   6 4399.16  334.08   1-0.07414-0.15803-0.99158 0.93845 0.10609 0.30712
  -5  -3   515945.43 1031.96   1-0.62019 0.34478-0.69152 0.60846-0.37033 0.71477
   5   3  -515852.46 1007.43   1-0.04906 0.32442 0.99457-0.91146-0.09167-0.25293
  -5  -3   514266.87  877.60   1-0.29034 0.01511-0.94228 0.85939-0.16674 0.51108
  -5  -3   451763.84 1306.20   1-0.53408 0.21545-0.65137 0.53867-0.53895 0.81450
   5   3  -455324.50 1409.77   1-0.09699 0.41546 0.99398-0.88141-0.05082-0.22470
  -5  -3   353060.64 1331.50   1-0.42876 0.06684-0.58719 0.44477-0.68655 0.89314
   5   3  -352839.86 1309.98   1-0.13323 0.49486 0.99088-0.84866-0.01990-0.18674
  -5  -3   228969.63  566.99   1-0.31802-0.08705-0.50936 0.33734-0.79962 0.93734
   5   3  -229565.29  819.34   1-0.15686 0.56165 0.98762-0.81574 0.00042-0.13818
  -5  -3   1  752.04  145.05   1-0.21581-0.23248-0.43039 0.22872-0.87646 0.94532
   5   3  -1  681.50  105.56   1-0.16742 0.61538 0.98583-0.78431 0.00955-0.07843
   5   3   027974.56  782.41   1 0.13058 0.36054 0.35985-0.12865 0.92382-0.92382
   5   3   025801.08  891.91   1-0.16432 0.65545 0.98638-0.75520 0.00686-0.00686
   5   3   151394.10 1959.55   1 0.06475 0.46958 0.30332-0.04253 0.95068-0.88186
   5   3   148369.69 1870.71   1-0.14654 0.68084 0.98916-0.72833-0.00847 0.07735
   5   3   227733.25 1594.80   1 0.01692 0.56061 0.26097 0.02939 0.96519-0.82755
   5   3   228316.84 1588.02   1-0.11223 0.68969 0.99296-0.70247-0.03786 0.17562
   5   3   311689.63  964.79   1-0.01594 0.63639 0.23114 0.08877 0.97278-0.76623
   5   3   313288.41 1248.67   1-0.05809 0.67905 0.99476-0.67400-0.08410 0.29086
   5   3   418521.41 1334.62   1-0.03626 0.69980 0.21253 0.13698 0.97648-0.70107
   5   3   5  590.22  283.24   1-0.04654 0.75318 0.20304 0.17608 0.97806-0.63380
  -5  -4  13 5370.22  622.30   1-0.67441 0.71817-0.51479 0.59180 0.52929 0.36605
  -5  -4  12 9299.80 1058.94   1-0.69846 0.69902-0.55879 0.60616 0.44709 0.37938
  -5  -4  11 8474.66  496.52   1-0.71701 0.67434-0.60056 0.61823 0.35384 0.40378
  -5  -4  10 7705.77  663.99   1-0.72855 0.64268-0.63855 0.62658 0.24789 0.44085
   5   4 -10 5851.35  456.66   1 0.21820-0.13210 0.92645-0.91464-0.30671-0.38207
  -5  -4  10 6052.42  478.42   1 0.13911-0.22486-0.92568 0.91416 0.35179 0.33724
  -5  -4   9 6782.30  429.18   1-0.73034 0.60124-0.67104 0.62939 0.12763 0.49230
   5   4  -9 6928.25  514.02   1 0.12600 0.00326 0.96401-0.92256-0.23408-0.38582
  -5  -4   9 6996.76  511.66   1 0.07135-0.20035-0.95850 0.91730 0.27601 0.34411
  -5  -4   8  522.79  297.55   1-0.71925 0.54694-0.69470 0.62341-0.00769 0.55875
   5   4  -8  422.94  127.92   1 0.04181 0.13047 0.98508-0.91387-0.16692-0.38445
  -5  -4   8  468.86  107.78   1-0.01584-0.15656-0.98435 0.91351 0.17548 0.37547
  -5  -4   789842.76 2231.96   1-0.69112 0.47554-0.70551 0.60455-0.15683 0.63903
   5   4  -790191.75 2215.68   1-0.03170 0.24719 0.99383-0.89292-0.10619-0.37626
  -5  -4   778703.56 1897.00   1-0.13368-0.08175-0.99045 0.88997 0.03351 0.44862
  -5  -4   6103308.3 2533.30   1-0.64245 0.38367-0.69871 0.56811-0.31472 0.72803
   5   4  -6108942.7 2638.81   1-0.09393 0.35256 0.99414-0.86382-0.05342-0.35986
  -5  -4   6103430.2 2451.09   1-0.29491 0.03628-0.93976 0.80949-0.17279 0.58600
  -5  -4   5 3189.80  252.99   1-0.57210 0.27010-0.67094 0.51079-0.47173 0.81616
   5   4  -5 3590.14  418.70   1-0.14539 0.44718 0.98932-0.82935-0.00946-0.33495
  -5  -4   4133578.3 2016.35   1-0.48369 0.13837-0.62211 0.43222-0.61563 0.89108
   5   4  -4136613.5 2031.66   1-0.18532 0.53029 0.98235-0.79272 0.02508-0.30061
  -5  -4   314074.45  807.17   1-0.38619-0.00232-0.55828 0.33876-0.73427 0.94086
   5   4  -314321.61  782.11   1-0.21365 0.60178 0.97563-0.75635 0.04982-0.25647
  -5  -4   2  670.03  308.07   1-0.29027-0.14139-0.48852 0.23940-0.82285 0.96056
   5   4  -2  495.09  126.01   1-0.23033 0.66162 0.97097-0.72204 0.06448-0.20225
  -5  -4   1 9839.84  855.95   1-0.20486-0.27003-0.42159 0.14282-0.88334 0.95219
   5   4  -1 8670.95  756.91   1-0.23524 0.70970 0.96949-0.69091 0.06881-0.13770
   5   4   0 1199.44  218.77   1 0.13443 0.38327 0.36308-0.05482 0.92200-0.92200
   5   4   0 1739.20  322.53   1-0.22801 0.74564 0.97165-0.66341 0.06244-0.06244
   5   4   119919.56 1656.91   1 0.07983 0.48106 0.31645 0.02140 0.94524-0.87642
   5   4   117444.78 1259.13   1-0.20782 0.76861 0.97714-0.63925 0.04471 0.02416
   5   4   235658.05 1561.71   1 0.03986 0.56424 0.28141 0.08602 0.95875-0.82111
   5   4   236253.76 1571.18   1-0.17307 0.77703 0.98480-0.61725 0.01444 0.12331
   5   4   3 2401.90  586.40   1 0.01248 0.63481 0.25700 0.14003 0.96633-0.75986
   5   4   410010.92 1263.14   1-0.00432 0.69483 0.24182 0.18479 0.97030-0.69502
  -5  -5  13 1058.10  297.61   1-0.69488 0.71210-0.55179 0.55170 0.46114 0.43420
  -5  -5  12 4245.99  585.59   1-0.71433 0.68830-0.59380 0.56402 0.37029 0.45620
  -5  -5  12 3921.81  505.41   1 0.17197-0.19787-0.90559 0.87636 0.38771 0.43913
  -5  -5  1110277.19  622.69   1-0.72707 0.65784-0.63196 0.57253 0.26829 0.48933
   5   5 -11 9634.70  480.37   1 0.20043-0.13097 0.93490-0.87568-0.29288-0.46479
  -5  -5  11 9124.11  467.55   1 0.11180-0.18094-0.94027 0.88135 0.32151 0.43642
  -5  -5  10 4259.47  319.60   1-0.73101 0.61857-0.66475 0.57568 0.15400 0.53473
   5   5 -10 3746.37  512.96   1 0.10386 0.00855 0.97057-0.88156-0.21724-0.47198
  -5  -5  10 2901.34  540.31   1 0.04103-0.15343-0.96955 0.88095 0.24139 0.44764
  -5  -5   9  703.11  297.60   1-0.72341 0.56773-0.68988 0.57113 0.02708 0.59285
   5   5  -9  552.10  194.62   1 0.01787 0.13774 0.98893-0.87021-0.14728-0.47301
  -5  -5   9  432.24  109.46   1-0.04515-0.11068-0.98900 0.87079 0.14080 0.47903
  -5  -5   8  264.17  202.28   1-0.70146 0.50251-0.70394 0.55551-0.11138 0.66247
   5   5  -8  265.47   95.41   1-0.05759 0.25642 0.99475-0.84633-0.08451-0.46686
  -5  -5   8  155.24   67.54   1-0.15163-0.04720-0.98837 0.84052 0.01131 0.53971
  -5  -5   734966.74  993.04   1-0.66241 0.42025-0.70344 0.52537-0.25763 0.73983
   5   5  -731691.78  856.90   1-0.12159 0.36355 0.99213-0.81440-0.02987-0.45230
  -5  -5   730184.83  752.58   1-0.28237 0.04034-0.94657 0.76907-0.15573 0.63788
  -5  -5   649843.08 1282.32   1-0.60501 0.31964-0.68564 0.47805-0.40477 0.81809
   5   5  -645543.85 1160.19   1-0.17505 0.46018 0.98442-0.77704 0.01616-0.42945
  -5  -5   641314.44  997.62   1-0.42732 0.14208-0.83145 0.62415-0.35506 0.76827
  -5  -5   5 2570.96  265.68   1-0.53121 0.20262-0.64980 0.41257-0.54366 0.88810
   5   5  -5 2416.82  267.44   1-0.21749 0.54578 0.97461-0.73757 0.05319-0.39760
  -5  -5   445608.86 1197.73   1-0.44645 0.07453-0.59875 0.33174-0.66496 0.94041
   5   5  -445214.65 1220.83   1-0.24909 0.62055 0.96508-0.69839 0.08106-0.35659
  -5  -5   364393.42 1604.48   1-0.35894-0.05616-0.53906 0.24242-0.76195 0.96854
   5   5  -364759.14 1582.80   1-0.27005 0.68468 0.95766-0.66132 0.09970-0.30634
  -5  -5   2  592.82  272.23   1-0.27633-0.18193-0.47788 0.15165-0.83382 0.97154
   5   5  -2  345.82   87.38   1-0.28054 0.73834 0.95362-0.62762 0.10907-0.24683
  -5  -5   1  114.90  200.74   1-0.20425-0.29723-0.42110 0.06522-0.88371 0.95257
   5   5  -1 1004.86  136.13   1-0.28054 0.78150 0.95362-0.59797 0.10906-0.17795
   5   5   0 2400.54  295.32   1 0.14513 0.39914 0.37205 0.01327 0.91679-0.91679
   5   5   0 2253.03  337.23   1-0.26973 0.81386 0.95778-0.57249 0.09941-0.09941
   5   5   1 5639.51  729.18   1 0.09916 0.48830 0.33312 0.08179 0.93765-0.86883
   5   5   1 3376.98  555.70   1-0.24733 0.83462 0.96566-0.55071 0.07950-0.01062
   5   5   223202.58 1353.85   1 0.06539 0.56528 0.30387 0.14063 0.95046-0.81282
   5   5   220483.88 1209.61   1-0.21184 0.84231 0.97611-0.53150 0.04824 0.08951
   5   5   3 6995.66 1382.22   1 0.04230 0.63156 0.28358 0.19051 0.95801-0.75155
   5   5   4 2640.60  708.28   1 0.02840 0.68866 0.27123 0.23244 0.96209-0.68680
  -5  -6  1315609.28 1692.55   1-0.71016 0.70077-0.58397 0.50673 0.39324 0.50213
  -5  -6  1316417.76 1769.05   1 0.16003-0.16933-0.91321 0.83657 0.37472 0.52102
  -5  -6  12  188.06  221.69   1-0.72460 0.67200-0.62275 0.51587 0.29518 0.53130
   5   6 -12  217.21   84.20   1 0.19476-0.14193 0.93747-0.83084-0.28844-0.53810
  -5  -6  12  137.27   70.32   1 0.09830-0.15084-0.94680 0.84047 0.30642 0.52042
  -5  -6  1137660.97 2136.19   1-0.73095 0.63515-0.65645 0.51994 0.18644 0.57117
   5   6 -1136624.71 2037.70   1 0.09510 0.00064 0.97302-0.83650-0.21019-0.54795
  -5  -6  1136518.98 2053.97   1 0.02731-0.12337-0.97378 0.83786 0.22581 0.53175
  -5  -6  1076252.81 8399.02   1-0.72706 0.58802-0.68330 0.51709 0.06685 0.62196
   5   6 -1078235.99 8602.58   1 0.00708 0.13186 0.99035-0.82413-0.13839-0.55083
  -5  -6  1073121.56 3031.85   1-0.05489-0.08436-0.99010 0.82451 0.12918 0.55951
  -5  -6   9 5675.18  524.38   1-0.71085 0.52860-0.70054 0.50469-0.06259 0.68253
   5   6  -9 5774.78  786.53   1-0.06990 0.25206 0.99479-0.79886-0.07415-0.54614
  -5  -6   9 5193.10  511.96   1-0.15128-0.03094-0.98842 0.79321 0.01173 0.60816
  -5  -6   818321.15 1347.88   1-0.68003 0.45450-0.70559 0.48006-0.19921 0.75030
   5   6  -817287.85 1250.51   1-0.13527 0.36056 0.99064-0.76550-0.01815-0.53290
  -5  -6   817576.92 1266.67   1-0.26285 0.03743-0.95601 0.73115-0.13016 0.68118
  -5  -6   7 3486.98  282.31   1-0.63355 0.36482-0.69601 0.44084-0.33789 0.82009
   5   6  -7 3729.39  359.99   1-0.19030 0.45876 0.98128-0.72649 0.02942-0.51159
  -5  -6   7 3096.22  203.36   1-0.38364 0.11501-0.87567 0.62098-0.29326 0.77533
  -5  -6   621701.46 1323.22   1-0.57219 0.26023-0.67098 0.38631-0.47157 0.88489
   5   6  -620431.85 1358.95   1-0.23471 0.54634 0.96965-0.68521 0.06835-0.48164
  -5  -6   5116655.0 4300.66   1-0.49941 0.14411-0.63154 0.31706-0.59307 0.93739
   5   6  -587496.46 3235.23   1-0.26886 0.62365 0.95811-0.64402 0.09863-0.44304
  -5  -6   4 2346.79  368.94   1-0.42113 0.02262-0.58212 0.23801-0.69554 0.97099
   5   6  -4 2814.63  420.79   1-0.29283 0.69098 0.94853-0.60469 0.12052-0.39607
  -5  -6   384776.50 2171.91   1-0.34358-0.09805-0.52813 0.15444-0.77654 0.98312
   5   6  -380828.40 2034.88   1-0.30753 0.74886 0.94208-0.56860 0.13376-0.34042
  -5  -6   226506.38 1547.40   1-0.27241-0.21244-0.47486 0.07153-0.83683 0.97455
   5   6  -224096.37 1374.87   1-0.31285 0.79736 0.93963-0.53651 0.13856-0.27634
  -5  -6   1 1172.17  296.77   1-0.21099-0.31708-0.42653-0.00644-0.87951 0.94837
   5   6  -1  681.56  223.78   1-0.30876 0.83644 0.94152-0.50875 0.13487-0.20376
   5   6   0  540.17  144.88   1 0.16077 0.41006 0.38507 0.07731 0.90877-0.90877
   5   6   0  393.46  178.57   1-0.29491 0.86577 0.94765-0.48524 0.12239-0.12239
   5   6   1   29.95  170.55   1 0.12168 0.49236 0.35232 0.13966 0.92793-0.85911
   5   6   1  121.81   95.02   1-0.27074 0.88454 0.95740-0.46539 0.10031-0.03143
   5   6   2 1036.07  354.38   1 0.09296 0.56427 0.32779 0.19377 0.94016-0.80252
   5   6   2  456.76  126.08   1-0.23428 0.89124 0.96978-0.44812 0.06797 0.06979
   5   6   316080.10 1598.04   1 0.07350 0.62693 0.31095 0.24021 0.94757-0.74111
  -5  -7  1344878.38 4330.72   1-0.72080 0.68484-0.61090 0.45657 0.32746 0.56791
  -5  -7  1339166.31 3762.28   1 0.09512-0.13106-0.94827 0.79454 0.30285 0.59289
  -5  -7  12  774.16  333.57   1-0.72985 0.65069-0.64591 0.46194 0.22383 0.60266
   5   7 -12  671.68  204.75   1 0.09749-0.01840 0.97236-0.78834-0.21211-0.61495
  -5  -7  12  756.59  281.90   1 0.02551-0.10499-0.97431 0.79101 0.22372 0.60271
  -5  -7  1114439.63  905.61   1-0.72971 0.60730-0.67473 0.46105 0.11070 0.64699
   5   7 -1116447.48 1014.16   1 0.00744 0.11484 0.99030-0.77657-0.13868-0.61946
  -5  -7  1114781.33  869.53   1-0.05264-0.07004-0.98986 0.77690 0.13186 0.62570
  -5  -7  1012681.39  707.65   1-0.71880 0.55318-0.69512 0.45181-0.01106 0.69989
   5   7 -1012794.10  636.50   1-0.07106 0.23655 0.99478-0.75134-0.07318-0.61604
  -5  -7  1011421.67  942.01   1-0.14092-0.02469-0.98971 0.74714 0.02457 0.66420
  -5  -7   913131.68  691.41   1-0.69526 0.48636-0.70509 0.43209-0.13945 0.75943
   5   7  -912120.01 1033.19   1-0.13780 0.34642 0.99033-0.71779-0.01598-0.60395
  -5  -7   910142.72  541.78   1-0.23950 0.03069-0.96574 0.69351-0.09988 0.71978
  -5  -7   818019.14  804.46   1-0.65812 0.40601-0.70260 0.39996-0.27060 0.82169
   5   7  -817837.24  774.08   1-0.19432 0.44611 0.98038-0.67819 0.03292-0.58398
  -5  -7   815300.09 1056.01   1-0.34451 0.09248-0.90774 0.60566-0.23938 0.79032
  -5  -7   7 4794.70  348.94   1-0.60757 0.31224-0.68668 0.35457-0.39914 0.88135
   5   7  -7 4404.77  564.76   1-0.24051 0.53547 0.96785-0.63601 0.07347-0.55565
  -5  -7   611069.34  844.25   1-0.54586 0.20731-0.65768 0.29593-0.51911 0.93243
   5   7  -610993.31 1073.39   1-0.27688 0.61500 0.95506-0.59356 0.10579-0.51908
  -5  -7   542920.45 2424.73   1-0.47687 0.09498-0.61794 0.22636-0.62508 0.96940
   5   7  -540487.07 2282.23   1-0.30357 0.68509 0.94387-0.55260 0.13019-0.47462
  -5  -7   452128.40 2926.76   1-0.40585-0.01924-0.57182 0.15061-0.71295 0.98840
   5   7  -446207.25 2592.77   1-0.32168 0.74638 0.93543-0.51452 0.14655-0.42210
  -5  -7   3  590.91  224.82   1-0.33753-0.13069-0.52373 0.07294-0.78215 0.98873
   5   7  -3  209.58  144.15   1-0.33119 0.79906 0.93071-0.48016 0.15518-0.36184
  -5  -7   220758.75  967.26   1-0.27592-0.23553-0.47756-0.00287-0.83414 0.97186
   5   7  -216950.04  762.57   1-0.33223 0.84328 0.93018-0.44999 0.15613-0.29390
  -5  -7   1 2617.57  404.67   1-0.22316-0.33150-0.43627-0.07381-0.87170 0.94056
   5   7  -1 2367.22  316.84   1-0.32470 0.87892 0.93395-0.42412 0.14929-0.21818
  -5  -7   0 2873.52  450.49   1-0.18013-0.41776-0.40148-0.13824-0.89797 0.89797
   5   7   0 2648.50  575.88   1-0.30819 0.90559 0.94178-0.40230 0.13435-0.13435
   5   7   1  136.91  215.57   1 0.14668 0.49392 0.37335 0.19569 0.91601-0.84719
   5   7   2  417.42  189.27   1 0.12222 0.56158 0.35278 0.24585 0.92768-0.79004
  -5  -8  1213159.79  985.38   1-0.73105 0.62532-0.66375 0.40269 0.15806 0.66843
   5   8 -1213149.69  948.18   1 0.01744 0.08817 0.98899-0.72775-0.14693-0.68014
  -5  -8  1212299.14  893.64   1-0.04231-0.06380-0.98864 0.72831 0.14417 0.68226
  -5  -8  11 5392.00  667.14   1-0.72501 0.57602-0.68739 0.39662 0.04294 0.71476
   5   8 -11 4948.16 1040.58   1-0.06286 0.21168 0.99480-0.70386-0.08009-0.67806
  -5  -8  11 4552.83  615.51   1-0.12432-0.02499-0.99121 0.70122 0.04506 0.71250
  -5  -8  10 2640.60  424.21   1-0.70804 0.51585-0.70181 0.38140-0.07826 0.76708
   5   8 -10 3107.79  398.30   1-0.13118 0.32314 0.99112-0.67117-0.02166-0.66716
  -5  -8  10 2034.35  366.38   1-0.21344 0.02123-0.97469 0.65510-0.06646 0.75524
  -5  -8   927751.78 1262.53   1-0.67904 0.44356-0.70553 0.35543-0.20277 0.82274
   5   8  -926725.02 1217.24   1-0.18931 0.42444 0.98150-0.63190 0.02856-0.64849
  -5  -8   924508.89 1068.64   1-0.30742 0.07199-0.93252 0.58306-0.18942 0.80923
  -5  -8   810350.75  905.34   1-0.63804 0.35935-0.69741 0.31766-0.32637 0.87746
   5   8  -811587.35 1105.72   1-0.23731 0.51560 0.96886-0.58960 0.07064-0.62170
  -5  -8   8 9134.64  759.09   1-0.40107 0.12243-0.85918 0.48008-0.31769 0.86863
  -5  -8   7 8563.48  861.23   1-0.58623 0.26431-0.67754 0.26835-0.44413 0.92634
   5   8  -7 7727.54  495.60   1-0.27578 0.59724 0.95548-0.54658 0.10481-0.58698
  -5  -8   6  723.09  247.87   1-0.52648 0.16134-0.64718 0.20836-0.55132 0.96465
   5   8  -6  958.53  218.49   1-0.30493 0.66982 0.94326-0.50457 0.13141-0.54473
  -5  -8   5 4852.26  409.44   1-0.46255 0.05406-0.60902 0.14033-0.64430 0.98862
   5   8  -5 4126.24  265.64   1-0.32600 0.73406 0.93331-0.46498 0.15047-0.49490
  -5  -8   412762.22 1077.64   1-0.39876-0.05292-0.56697 0.06866-0.72078 0.99623
   5   8  -411423.98  957.80   1-0.33901 0.79025 0.92667-0.42869 0.16230-0.43785
  -5  -8   315979.62  799.51   1-0.33863-0.15618-0.52453-0.00336-0.78114 0.98772
   5   8  -312991.95  644.65   1-0.34420 0.83862 0.92391-0.39629 0.16704-0.37370
  -5  -8   2  230.33  309.51   1-0.28507-0.25297-0.48456-0.07297-0.82699 0.96471
   5   8  -2   17.20  134.87   1-0.34164 0.87924 0.92528-0.36801 0.16471-0.30248
  -5  -8   1 5626.29  692.80   1-0.23948-0.34178-0.44920-0.13798-0.86073 0.92959
   5   8  -1 5278.55  626.47   1-0.33114 0.91191 0.93073-0.34383 0.15514-0.22403
  -5  -8   0 2095.00  414.44   1-0.20241-0.42207-0.41961-0.19722-0.88484 0.88484
   5   8   0  955.12  261.51   1-0.31220 0.93615 0.93994-0.32339 0.13797-0.13797
  -5  -9  1232222.05 3137.24   1-0.72916 0.59681-0.67710 0.33886 0.09927 0.72731
   5   9 -1230681.83 3241.92   1-0.04651 0.17867 0.99450-0.65605-0.09381-0.73326
  -5  -9  11 4885.00  704.89   1-0.71817 0.54262-0.69568 0.32780-0.01566 0.77337
   5   9 -11 3852.28  900.73   1-0.11679 0.29208 0.99257-0.62522-0.03397-0.72373
  -5  -9  11 2925.98  731.50   1-0.18513 0.00953-0.98223 0.61528-0.03059 0.78824
  -5  -9  10 1554.62  290.28   1-0.69647 0.47762-0.70492 0.30735-0.13418 0.82304
   5   9 -10 1213.92  293.15   1-0.17678 0.39523 0.98409-0.58708 0.01766-0.70648
  -5  -9  10 1085.10  201.85   1-0.27119 0.05241-0.95212 0.55552-0.14107 0.82984
  -5  -9   9 9826.83 1179.31   1-0.66391 0.40186-0.70371 0.27650-0.25297 0.87295
   5   9  -9 9118.79  973.61   1-0.22671 0.48834 0.97202-0.54536 0.06130-0.68124
  -5  -9   9 8851.54  582.84   1-0.35735 0.09531-0.89793 0.47143-0.25692 0.87673
  -5  -9   8 9669.13  676.30   1-0.62114 0.31585-0.69187 0.23523-0.36808 0.91918
   5   9  -8 9443.64  865.43   1-0.26731 0.57210 0.95868-0.50237 0.09725-0.64831
  -5  -9   7 1550.64  335.64   1-0.57013 0.22162-0.66998 0.18371-0.47545 0.95766
   5   9  -7 1230.65  245.64   1-0.29883 0.64708 0.94596-0.45984 0.12591-0.60812
  -5  -9   6  500.85  264.02   1-0.51370 0.12197-0.63998 0.12408-0.57142 0.98474
   5   9  -6   60.16  166.13   1-0.32260 0.71403 0.93498-0.41923 0.14739-0.56071
  -5  -9   5 2455.32  483.86   1-0.45528 0.02019-0.60441 0.05862-0.65375 0.99807
   5   9  -5 1018.59  223.79   1-0.33870 0.77330 0.92683-0.38143 0.16202-0.50645
  -5  -9   4 2888.39  373.60   1-0.39828-0.07999-0.56664-0.00877-0.72130 0.99675
   5   9  -4 2622.81  441.28   1-0.34744 0.82522 0.92216-0.34711 0.17000-0.44554
  -5  -9   3 7926.51  966.35   1-0.34534-0.17607-0.52941-0.07558-0.77489 0.98147
   5   9  -3 5551.38  668.36   1-0.34898 0.86994 0.92131-0.31663 0.17141-0.37807
  -5  -9   2  461.56  296.41   1-0.29862-0.26601-0.49484-0.13980-0.81605 0.95377
   5   9  -2  317.46  244.76   1-0.34330 0.90744 0.92439-0.29006 0.16622-0.30399
  -5  -9   1 4535.46  716.11   1-0.25907-0.34879-0.46454-0.19974-0.84680 0.91566
   5   9  -1 4059.95  580.87   1-0.33012 0.93743 0.93125-0.26728 0.15421-0.22310
  -5 -10  1113993.96 1536.34   1-0.71051 0.50838-0.70071 0.25573-0.06457 0.82227
  -5 -10  1111722.31 1313.24   1-0.23471 0.03253-0.96753 0.52356-0.09370 0.85136
  -5 -10  10  809.05  271.88   1-0.68553 0.44011-0.70572 0.23104-0.17884 0.86770
   5  10 -10  596.70  216.24   1-0.20979 0.45475 0.97664-0.50257 0.04644-0.73526
  -5 -10  10  366.29  127.27   1-0.31505 0.06962-0.92784 0.45395-0.19962 0.88829
  -5 -10   911289.55  790.70   1-0.65107 0.36244-0.70099 0.19668-0.29103 0.91101
   5  10  -910165.24 1061.07   1-0.25263 0.54075 0.96389-0.46017 0.08420-0.70414
  -5 -10   910806.51  686.82   1-0.39264 0.10399-0.86734 0.36382-0.30583 0.92564
  -5 -10   817988.54 1127.65   1-0.60824 0.27636-0.68695 0.15323-0.39765 0.94875
   5  10  -815699.38  986.20   1-0.28651 0.61813 0.95116-0.41762 0.11485-0.66595
  -5 -10   7 1827.31  328.26   1-0.55929 0.18419-0.66461 0.10126-0.49544 0.97765
   5  10  -7 1270.89  353.71   1-0.31288 0.68768 0.93962-0.37644 0.13858-0.62079
  -5 -10   6  -57.35  260.68   1-0.50686 0.08838-0.63590 0.04264-0.58199 0.99517
   5  10  -6  412.39  215.22   1-0.33182 0.74979 0.93039-0.33756 0.15575-0.56907
  -5 -10   5 1825.17  423.72   1-0.45395-0.00772-0.60356-0.01932-0.65546 0.99978
   5  10  -5  435.17  206.53   1-0.34371 0.80487 0.92417-0.30170 0.16660-0.51103
  -5 -10   4 1538.97  375.02   1-0.40317-0.10170-0.56999-0.08252-0.71593 0.99138
   5  10  -4 1848.07  342.14   1-0.34881 0.85313 0.92141-0.26930 0.17125-0.44680
  -5 -10   319485.86 2113.12   1-0.35665-0.19142-0.53741-0.14473-0.76418 0.97077
   5  10  -317696.49 1908.61   1-0.34717 0.89467 0.92230-0.24055 0.16975-0.37641
  -5 -11   9 1605.49  370.48   1-0.64117 0.32596-0.69834 0.11692-0.31814 0.93812
   5  11  -9  754.53  304.85   1-0.26923 0.58385 0.95797-0.37719 0.09897-0.71891
  -5 -11   9  952.35  253.95   1-0.41662 0.10136-0.84320 0.26265-0.33974 0.95955
  -5 -11   8 9960.13 1128.77   1-0.59948 0.24101-0.68335 0.07255-0.41670 0.96780
   5  11  -8 8087.99  936.15   1-0.29773 0.65590 0.94643-0.33583 0.12493-0.67602
  -5 -11   710512.81 1191.45   1-0.55339 0.15170-0.66161 0.02118-0.50598 0.98819
   5  11  -7 9065.48 1016.85   1-0.31939 0.72074 0.93654-0.29628 0.14448-0.62669
  -5 -11   6 2459.73  508.72   1-0.50527 0.06020-0.63497-0.03538-0.58437 0.99755
   5  11  -6 2034.59  405.50   1-0.33422 0.77874 0.92916-0.25927 0.15794-0.57126
  -5 -11   5  312.57  244.23   1-0.45759-0.03067-0.60588-0.09410-0.65077 0.99508
   5  11  -5  -23.40  297.07   1-0.34250 0.83019 0.92482-0.22529 0.16548-0.50992
  -6  12  -221176.55 2107.22   1-0.73823 0.47738 0.35211 0.51335 0.57535-0.71314
  -6  12  -3 2984.69  471.14   1-0.73340 0.42933 0.37260 0.46327 0.56858-0.77527
  -6  12  -4 1110.66  284.70   1-0.72541 0.37813 0.40323 0.40304 0.55782-0.83340
   6 -12   4  496.80  241.67   1-0.42785 0.77513-0.83085 0.02507-0.35583 0.63129
  -6  11   1  106.20  255.96   1-0.75324 0.59544 0.27299 0.60419 0.59841-0.52951
  -6  11   0 1132.00  396.13   1-0.75387 0.55286 0.26884 0.57874 0.59949-0.59949
  -6  11  -1 1350.18  349.57   1-0.75310 0.50887 0.27389 0.54411 0.59817-0.66707
  -6  11  -210245.77  732.03   1-0.75069 0.46324 0.28879 0.49961 0.59418-0.73197
  -6  11  -314442.16  959.93   1-0.74610 0.41543 0.31435 0.44446 0.58695-0.79363
  -6  11  -4 2753.95  466.97   1-0.73837 0.36449 0.35146 0.37776 0.57556-0.85114
   6 -11   4 2328.35  396.74   1-0.41124 0.78513-0.84887 0.12011-0.33209 0.60756
  -6  11  -5  310.84  194.78   1-0.72598 0.30888 0.40116 0.29847 0.55857-0.90305
   6 -11   5  522.68  188.00   1-0.35706 0.77416-0.89816 0.19904-0.25653 0.60086
  -6  11  -617563.34 1735.44   1-0.70651 0.24620 0.46460 0.20543 0.53382-0.94719
   6 -11   615423.00 1545.58   1-0.29966 0.75997-0.93708 0.26760-0.17909 0.59230
  -6  10   3  474.57  318.38   1-0.75945 0.66149 0.22687 0.63244 0.60971-0.40303
  -6  10   2 2376.20  432.78   1-0.76152 0.62017 0.20669 0.62318 0.61429-0.47647
  -6  10   1 8620.54 1028.11   1-0.76258 0.57801 0.19541 0.60486 0.61666-0.54775
  -6  10   0 1195.33  273.02   1-0.76274 0.53496 0.19357 0.57711 0.61704-0.61704
  -6  10  -1 3324.61  357.23   1-0.76198 0.49099 0.20187 0.53921 0.61531-0.68422
  -6  10  -2  763.37  336.70   1-0.76000 0.44579 0.22121 0.49028 0.61110-0.74892
  -6  10  -330153.46 1730.21   1-0.75622 0.39895 0.25253 0.42923 0.60361-0.81030
  -6  10  -425835.95 1855.99   1-0.74923 0.34875 0.29727 0.35489 0.59184-0.86742
   6 -10   420824.57 1484.87   1-0.38781 0.78831-0.87186 0.22014-0.29907 0.57454
  -6  10  -5 1506.94  400.64   1-0.73715 0.29345 0.35684 0.26574 0.57382-0.91829
   6 -10   5 1275.63  336.63   1-0.32835 0.77206-0.91917 0.29708-0.21749 0.56183
  -6  10  -6 9701.83  749.34   1-0.71675 0.22984 0.43298 0.16001 0.54661-0.95998
   6 -10   6 6989.03  997.17   1-0.26671 0.75374-0.95424 0.36200-0.13520 0.54847
   6 -10   7 8551.66 1203.20   1-0.20434 0.73455-0.97736 0.41477-0.05487 0.53702
  -6   9   5 2988.36  698.63   1-0.17286 0.13366 0.08236 0.75898 0.98149-0.63723
  -6   9   5 6414.84  747.62   1-0.76159 0.72328 0.20596 0.63561 0.61444-0.26990
  -6   9   411103.46  794.16   1-0.14635 0.06405 0.10833 0.70342 0.98328-0.70787
  -6   9   414495.44 1073.12   1-0.76465 0.68312 0.16899 0.64299 0.62188-0.34625
  -6   9   3 2835.81  418.15   1-0.76624 0.64150 0.14063 0.64176 0.62696-0.42023
  -6   9   2  571.58  346.05   1-0.76696 0.59901 0.12128 0.63152 0.63011-0.49229
  -6   9   1 8079.52  544.81   1-0.76722 0.55605 0.11151 0.61169 0.63161-0.56270
  -6   9   011532.68  994.81   1-0.76720 0.51282 0.11208 0.58153 0.63152-0.63152
  -6   9  -110957.31  951.90   1-0.76688 0.46929 0.12392 0.54009 0.62970-0.69861
  -6   9  -2 4740.27  593.08   1-0.76588 0.42507 0.14821 0.48621 0.62566-0.76348
  -6   9  -3 4743.46  535.52   1-0.76335 0.37933 0.18639 0.41844 0.61850-0.82523
   6  -9   3 4541.62  489.80   1-0.41798 0.80188-0.84174 0.23740-0.34168 0.54829
  -6   9  -416595.56  815.64   1-0.75786 0.33078 0.24005 0.33506 0.60664-0.88222
   6  -9   413365.45  661.45   1-0.35604 0.78314-0.89897 0.32427-0.25512 0.53059
  -6   9  -514810.98 1100.88   1-0.74660 0.27630 0.31172 0.23380 0.58772-0.93219
   6  -9   512029.40 1399.97   1-0.29132 0.76164-0.94174 0.39669-0.16804 0.51238
  -6   9  -6 1686.16  408.90   1-0.72519 0.21168 0.40402 0.11191 0.55754-0.97090
   6  -9   6 1617.59  419.13   1-0.22591 0.73952-0.97065 0.45542-0.08240 0.49567
   6  -9   7 5238.34  839.48   1-0.16123 0.71803-0.98691 0.50134-0.00064 0.48278
  -6   8   6 2073.22  526.51   1-0.25918 0.23722-0.00489 0.79884 0.96581-0.55278
  -6   8   6 4140.99  610.06   1-0.76526 0.74357 0.15935 0.63475 0.62367-0.21021
  -6   8   5 1360.92  406.68   1-0.76718 0.70227 0.11296 0.65155 0.63139-0.28684
  -6   8   414888.66  867.95   1-0.22625 0.11790 0.02875 0.70603 0.97364-0.69828
  -6   8   418511.39 1157.55   1-0.76749 0.65937 0.07542 0.65949 0.63659-0.36095
  -6   8   319088.67  930.39   1-0.18277 0.03081 0.07258 0.63253 0.98047-0.77391
  -6   8   321849.40 1035.81   1-0.76700 0.61566 0.04707 0.65825 0.63990-0.43318
  -6   8   2 9268.26  435.82   1-0.10342-0.09162 0.14964 0.52587 0.98331-0.84561
  -6   8   210761.47  611.62   1-0.76634 0.57178 0.02839 0.64734 0.64180-0.50398
  -6   8   1 6106.18  429.64   1 0.04335-0.28132 0.28450 0.36161 0.95769-0.88887
  -6   8   1 8204.21  654.61   1-0.76596 0.52819 0.02010 0.62603 0.64257-0.57366
  -6   8   021885.62  957.84   1-0.76610 0.48512 0.02316 0.59338 0.64229-0.64229
  -6   8  -1 1181.02  246.63   1-0.76674 0.44255 0.03878 0.54816 0.64077-0.70968
  -6   8  -214730.54 1069.11   1-0.76743 0.40003 0.06855 0.48881 0.63744-0.77526
  -6   8  -312990.98  660.29   1-0.76715 0.35653 0.11447 0.41329 0.63116-0.83789
   6  -8   3 9380.65  465.38   1-0.38283 0.79334-0.87640 0.34910-0.29213 0.49873
  -6   8  -4 6295.96  574.50   1-0.76392 0.31009 0.17914 0.31903 0.61994-0.89557
   6  -8   4 4970.11  515.64   1-0.31427 0.76799-0.92833 0.43066-0.19857 0.47404
  -6   8  -520704.06  933.11   1-0.75434 0.25744 0.26570 0.20277 0.60030-0.94477
   6  -8   518036.69 1052.42   1-0.24497 0.74197-0.96361 0.49574-0.10694 0.45133
   6  -8   6 6440.55 1071.76   1-0.17687 0.71706-0.98402 0.54581-0.02020 0.43347
   6  -8   7 1159.97  289.55   1-0.11138 0.69456-0.99190 0.58326 0.06092 0.42116
   6  -8   8 1074.09  260.98   1-0.04865 0.67503-0.98942 0.61044 0.13662 0.41433
  -6   7   7 1129.51  361.22   1-0.76710 0.76202 0.11634 0.63028 0.63088-0.14851
  -6   7   6 3398.09  682.69   1-0.33463 0.28608-0.08434 0.80122 0.93856-0.52553
  -6   7   6 4944.71  629.05   1-0.76729 0.71900 0.05948 0.65755 0.63852-0.22506
  -6   7   5 8988.97  814.07   1-0.32981 0.23807-0.07916 0.76647 0.94072-0.59652
  -6   7   511456.25  774.32   1-0.76552 0.67401 0.01183 0.67561 0.64329-0.29874
  -6   7   4 9654.50  978.67   1-0.31245 0.17751-0.06063 0.71836 0.94799-0.67264
  -6   7   412661.54 1107.16   1-0.76283 0.62810-0.02644 0.68430 0.64605-0.37041
  -6   7   355153.92 2110.38   1-0.27435 0.09622-0.02060 0.64875 0.96140-0.75489
  -6   7   364326.18 2528.72   1-0.75967 0.58135-0.05547 0.68353 0.64792-0.44135
  -6   7   216407.53 1163.75   1-0.19708-0.02424 0.05806 0.54051 0.97866-0.84098
  -6   7   222195.12 1324.76   1-0.75758 0.53607-0.07360 0.67205 0.64856-0.51085
  -6   7   1  553.22   93.43   1-0.03025-0.23445 0.21805 0.35082 0.97546-0.90661
  -6   7   1  893.52  311.30   1-0.75672 0.49201-0.08051 0.64933 0.64875-0.57989
  -6   7   0 8194.85  469.79   1-0.75741 0.44950-0.07500 0.61420 0.64860-0.64860
  -6   7  -1  754.32  190.89   1-0.75967 0.40857-0.05547 0.56505 0.64792-0.71678
  -6   7  -217165.01 1263.27   1-0.76340 0.36940-0.01946 0.49975 0.64562-0.78344
   6  -7   215778.97 1147.75   1-0.40888 0.80278-0.85132 0.37139-0.32873 0.46647
  -6   7  -335770.99 2025.11   1-0.76661 0.32939 0.03522 0.41547 0.64113-0.84786
   6  -7   332421.10 1828.69   1-0.33533 0.77245-0.91435 0.46407-0.22692 0.43352
  -6   7  -4 3202.48  233.78   1-0.76719 0.28675 0.11284 0.30826 0.63141-0.90705
   6  -7   4 2543.51  338.89   1-0.26102 0.74141-0.95683 0.53633-0.12777 0.40328
  -6   7  -527891.25 1213.21   1-0.76025 0.23660 0.21895 0.17255 0.61161-0.95615
   6  -7   524919.33 1131.54   1-0.18864 0.71223-0.98142 0.59057-0.03501 0.37940
   6  -7   615257.15  925.32   1-0.11987 0.68648-0.99150 0.63023 0.05052 0.36269
   6  -7   7 1952.42  376.76   1-0.05489 0.66470-0.99010 0.65849 0.12917 0.35291
   6  -7   8 3280.24  658.00   1 0.00609 0.64692-0.97953 0.67759 0.20116 0.34979
  -6   6   8 4653.68  644.16   1-0.38925 0.40053-0.14378 0.84295 0.90984-0.35916
  -6   6   8 3961.21  588.17   1-0.76751 0.77904 0.07798 0.62117 0.63627-0.08499
  -6   6   7 3385.13  454.07   1-0.40277 0.37086-0.15893 0.82851 0.90139-0.41955
  -6   6   7 2708.18  417.91   1-0.76539 0.73371 0.00948 0.66007 0.64349-0.16112
  -6   6   6 1742.90  266.82   1-0.41139 0.33626-0.16865 0.80864 0.89571-0.48271
  -6   6   6 2345.08  371.60   1-0.76027 0.68501-0.04984 0.68974 0.64768-0.23454
  -6   6   5 9281.94  472.81   1-0.41323 0.29490-0.17074 0.78114 0.89447-0.55030
  -6   6   5 9370.58  519.71   1-0.75425 0.63579-0.09884 0.70911 0.64910-0.30481
  -6   6   4 1022.96  155.89   1-0.40472 0.24319-0.16112 0.74194 0.90013-0.62479
  -6   6   4 1213.41  237.98   1-0.74808 0.58643-0.13800 0.71865 0.64909-0.37366
  -6   6   313471.68  595.51   1-0.37810 0.17336-0.13140 0.68264 0.91639-0.70988
  -6   6   314791.63  587.04   1-0.74275 0.53790-0.16689 0.71792 0.64843-0.44185
  -6   6   240848.34 1514.35   1-0.31290 0.06499-0.06111 0.58262 0.94781-0.81013
   6  -6  -240149.44 1482.14   1-0.72355 0.97170-0.68967 0.16778 0.02845-0.16622
  -6   6   238163.44 1505.01   1-0.73911 0.49106-0.18479 0.70620 0.64773-0.51002
  -6   6   115284.65  881.65   1-0.13500-0.15626 0.11933 0.37250 0.98363-0.91478
   6  -6  -115755.41  905.50   1-0.67379 0.96517-0.70510 0.21284-0.22098 0.15210
  -6   6   116618.09 1045.37   1-0.73786 0.44662-0.19066 0.68245 0.64746-0.57860
  -6   6   0 9133.80  796.32   1-0.73948 0.40504-0.18301 0.64519 0.64781-0.64781
  -6   6  -117345.90 1066.69   1-0.74412 0.36649-0.15979 0.59234 0.64864-0.71750
  -6   6  -2 9440.58  639.99   1-0.75137 0.33053-0.11809 0.52102 0.64922-0.78694
   6  -6   2 8227.41  528.50   1-0.35416 0.77467-0.90043 0.49754-0.25255 0.39028
  -6   6  -321093.02  653.45   1-0.75985 0.29582-0.05381 0.42712 0.64785-0.85442
   6  -6   319633.28  592.18   1-0.27320 0.73699-0.95116 0.57802-0.14369 0.35032
  -6   6  -4 1809.86  227.98   1-0.76676 0.25973 0.03936 0.30467 0.64071-0.91635
   6  -6   4 1301.13  274.59   1-0.19541 0.70239-0.97975 0.63626-0.04356 0.31907
  -6   6  -517478.61  785.12   1-0.76454 0.21429 0.17064 0.14380 0.62157-0.96612
   6  -6   517139.85 1485.72   1-0.12276 0.67280-0.99132 0.67742 0.04697 0.29737
   6  -6   626594.08 1891.33   1-0.05536 0.64860-0.99014 0.70591 0.12861 0.28460
   6  -6   715787.10 1317.76   1 0.00690 0.62954-0.97933 0.72476 0.20211 0.27997
   6  -6   8  491.05  143.22   1 0.06487 0.61522-0.96104 0.73597 0.26866 0.28256
  -6   5   9 8520.41  974.61   1-0.43521 0.46312-0.19585 0.84752 0.87876-0.25925
  -6   5   9 9964.25 1095.80   1-0.76696 0.79510 0.04554 0.60613 0.64007-0.01988
  -6   5   8 3662.86  507.41   1-0.45579 0.44050-0.21975 0.84184 0.86252-0.31185
  -6   5   8 4102.07  519.78   1-0.76157 0.74618-0.03664 0.65875 0.64703-0.09617
  -6   5   7 9674.15  507.31   1-0.47354 0.41504-0.24069 0.83319 0.84724-0.36540
  -6   5   712838.61  682.15   1-0.75300 0.69441-0.10739 0.69988 0.64918-0.16718
  -6   5   6 2673.75  199.14   1-0.48789 0.38618-0.25785 0.82077 0.83394-0.42094
  -6   5   6 3350.94  305.24   1-0.74254 0.64075-0.16794 0.73081 0.64839-0.23525
  -6   5   5 4924.86  304.00   1-0.49774 0.35284-0.26977 0.80310 0.82429-0.48012
  -6   5   5 5551.59  491.27   1-0.73157 0.58658-0.21840 0.75165 0.64583-0.30154
  -6   5   430484.93 1171.83   1-0.50090 0.31278-0.27361 0.77735 0.82111-0.54577
  -6   5   433444.71  978.92   1-0.72131 0.53312-0.25862 0.76224 0.64251-0.36708
  -6   5   3 2686.49  259.18   1-0.49217 0.26086-0.26302 0.73718 0.82980-0.62330
  -6   5   3 3446.67  375.12   1-0.71290 0.48152-0.28812 0.76213 0.63933-0.43276
  -6   5   260414.92 1427.74   1-0.45632 0.18180-0.22037 0.66495 0.86208-0.72442
   6  -5  -257269.28 1345.98   1-0.69039 0.96514-0.70556 0.26077-0.15978 0.02201
  -6   5   264987.30 1636.95   1-0.70748 0.43298-0.30607 0.75048 0.63701-0.49929
  -6   5   146068.44 1097.49   1-0.31559-0.00209-0.06397 0.47884 0.94673-0.87789
   6  -5  -145592.85 1081.59   1-0.52735 0.84526-0.64767 0.23264-0.54992 0.48104
  -6   5   149727.16 1308.97   1-0.70580 0.38811-0.31139 0.72620 0.63630-0.56744
  -6   5   0 4249.73  345.14   1-0.70867 0.34778-0.30224 0.68747 0.63751-0.63751
  -6   5  -148773.27 1256.80   1-0.71640 0.31223-0.27616 0.63169 0.64070-0.70955
   6  -5   143753.47 1086.11   1-0.37009 0.77400-0.88752 0.53202-0.27445 0.34331
  -6   5  -216396.05  547.69   1-0.72899 0.28163-0.22901 0.55491 0.64506-0.78278
   6  -5   214763.76 1218.88   1-0.27999 0.72717-0.94779 0.62201-0.15260 0.29035
  -6   5  -315228.69  489.21   1-0.74503 0.25447-0.15496 0.45124 0.64877-0.85534
   6  -5   314352.10  458.53   1-0.19526 0.68563-0.97979 0.68366-0.04337 0.25000
  -6   5  -415743.35 1138.35   1-0.76082 0.22707-0.04441 0.31107 0.64743-0.92285
   6  -5   415759.64 1155.63   1-0.11815 0.65161-0.99159 0.72507 0.05263 0.22284
  -6   5  -5 1750.42  140.16   1-0.76699 0.19014 0.12055 0.11682 0.63023-0.97478
   6  -5   5 2316.01  309.77   1-0.04837 0.62504-0.98939 0.75253 0.13695 0.20739
   6  -5   626966.86 1547.33   1 0.01477 0.60509-0.97731 0.77011 0.21127 0.20194
   6  -5   727886.77 1653.99   1 0.07262 0.59087-0.95798 0.78032 0.27746 0.20486
   6  -5   8 7657.21  899.05   1 0.12566 0.58108-0.93310 0.78512 0.33693 0.21429
  -6   4  10 5040.19  614.48   1-0.47083 0.51536-0.23747 0.84165 0.84966-0.16131
  -6   4   916130.63 1023.29   1-0.49623 0.49756-0.26794 0.84253 0.82580-0.20629
  -6   4   916960.11 1018.57   1-0.75725 0.75852-0.07629 0.65100 0.64864-0.02893
  -6   4   8 7849.09  557.15   1-0.51985 0.47798-0.29694 0.84195 0.80098-0.25030
  -6   4   8 7500.70  527.75   1-0.74404 0.70211-0.16023 0.70531 0.64863-0.09777
  -6   4   7 8564.96  844.65   1-0.54162 0.45631-0.32424 0.84001 0.77557-0.29351
  -6   4   710404.54  553.91   1-0.72800 0.64287-0.23301 0.74847 0.64476-0.16276
  -6   4   6 6941.45  555.40   1-0.56161 0.43310-0.35001 0.83616 0.74971-0.33653
  -6   4   6 8392.75  660.86   1-0.71082 0.58254-0.29523 0.78096 0.63840-0.22525
  -6   4   5 1351.60  222.98   1-0.57956 0.40786-0.37377 0.83028 0.72414-0.37982
  -6   4   5 1920.35  398.52   1-0.69391 0.52243-0.34690 0.80303 0.63098-0.28669
  -6   4   419717.48  545.93   1-0.59510 0.38020-0.39485 0.82172 0.69996-0.42450
  -6   4   421500.69  698.33   1-0.67867 0.46399-0.38801 0.81455 0.62357-0.34814
  -6   4   3 1959.42  169.90   1-0.60725 0.34917-0.41173 0.80897 0.67949-0.47290
   6  -4  -3 2179.78  166.00   1-0.69176 0.94989-0.70546 0.30814-0.15419-0.05246
  -6   4   3 2350.08  252.36   1-0.66643 0.40856-0.41817 0.81512 0.61724-0.41067
  -6   4   230270.19  491.95   1-0.61319 0.31191-0.42011 0.78772 0.66895-0.53122
   6  -4  -231158.68  493.62   1-0.61170 0.91299-0.68831 0.32073-0.38991 0.25214
  -6   4   234866.14  702.21   1-0.65849 0.35742-0.43660 0.80396 0.61299-0.47527
  -6   4   1109702.6 1552.41   1-0.59906 0.25459-0.40032 0.73829 0.69343-0.62457
   6  -4  -1114717.0 1615.78   1-0.31047 0.65496-0.50374 0.16567-0.80613 0.73727
  -6   4   1118935.0 1847.97   1-0.65607 0.31180-0.44204 0.77981 0.61167-0.54282
  -6   4   040586.53 1071.78   1-0.66029 0.27282-0.43250 0.74068 0.61396-0.61396
   6  -4   037771.65  953.28   1-0.38176 0.76907-0.87737 0.56925-0.29064 0.29064
  -6   4  -1 8224.60  541.60   1-0.67196 0.24130-0.40481 0.68340 0.62014-0.68900
   6  -4   1 7816.90  500.10   1-0.27845 0.70903-0.94857 0.67015-0.15058 0.21946
  -6   4  -246461.68 1078.83   1-0.72902 0.25490-0.64099 0.89008 0.24010-0.37785
  -6   4  -249599.03 1150.57   1-0.43832-0.03580-0.59347 0.84263-0.67502 0.53729
  -6   4  -254096.71 1357.12   1-0.69140 0.21754-0.35398 0.60298 0.62980-0.76752
   6  -4   250921.00 1270.17   1-0.18479 0.65855-0.98231 0.73355-0.03016 0.16791
   6  -4   335066.19 1292.20   1 0.12974 0.38729 0.35913-0.57863 0.92422-0.71775
  -6   4  -331286.18 1210.36   1-0.71766 0.20057-0.27175 0.49100 0.64117-0.84775
   6  -4   329751.93 1156.58   1-0.10292 0.61981-0.99213 0.77298 0.07124 0.13536
   6  -4   412433.88  911.52   1-0.02332 0.58321 0.22440-0.41415 0.97421-0.69881
  -6   4  -411554.63  838.15   1-0.74727 0.18698-0.14266 0.33229 0.64902-0.92445
   6  -4   411364.94  858.67   1-0.03138 0.59148-0.98707 0.79758 0.15714 0.11833
   6  -4   5 1531.98  295.54   1-0.09954 0.70252 0.15332-0.31348 0.98314-0.63889
   6  -4   5 1926.19  343.60   1 0.03169 0.57160-0.97246 0.81264 0.23086 0.11348
   6  -4   6 2801.08  570.67   1 0.08839 0.55849-0.95130 0.82105 0.29529 0.11813
   6  -4   723829.01 1396.21   1 0.13975 0.55039-0.92531 0.82474 0.35249 0.12983
   6  -4   815902.48 1594.25   1 0.18706 0.54632-0.89541 0.82453 0.40401 0.14721
  -6   3  10  593.03  261.62   1-0.52629 0.54399-0.30488 0.83247 0.79375-0.10511
  -6   3   917070.28 1043.00   1-0.55353 0.52804-0.33952 0.83748 0.76047-0.14069
  -6   3   916862.23  990.89   1-0.73422 0.70896-0.20706 0.70473 0.64656-0.02684
  -6   3   825740.60 1164.37   1-0.57951 0.51083-0.37370 0.84203 0.72422-0.17330
  -6   3   830507.84 1342.14   1-0.71153 0.64307-0.29289 0.76075 0.63869-0.08782
  -6   3   7  147.96  133.50   1-0.60441 0.49253-0.40774 0.84643 0.68441-0.20236
  -6   3   7  334.19  194.54   1-0.68675 0.57509-0.36676 0.80503 0.62757-0.14556
  -6   3   610257.75  661.83   1-0.62842 0.47335-0.44210 0.85116 0.64001-0.22682
  -6   3   612149.09  792.79   1-0.66157 0.50671-0.42955 0.83823 0.61465-0.20150
  -6   3   516145.63  477.81   1-0.65152 0.45322-0.47749 0.85702 0.58950-0.24514
  -6   3   516932.78  565.81   1-0.63756 0.43951-0.48159 0.86068 0.60130-0.25701
  -6   3   455146.29 1368.29   1-0.67462 0.43313-0.51515 0.86504 0.52867-0.25318
  -6   3   456523.79 1447.05   1-0.61628 0.37503-0.52292 0.87242 0.58884-0.31340
  -6   3   313612.44  723.62   1-0.69772 0.41304-0.55733 0.87757 0.45005-0.24343
   6  -3  -314153.80  744.42   1-0.63238 0.91709-0.69563 0.37541-0.34084 0.13418
  -6   3   317216.69  945.58   1-0.59891 0.31437-0.55322 0.87320 0.57899-0.37241
  -6   3   2  213.92   97.37   1-0.71980 0.39193-0.60806 0.89862 0.33486-0.19711
   6  -3  -2  169.10   48.35   1-0.48798 0.81589-0.62471 0.33414-0.60959 0.47186
  -6   3   2  142.90  166.87   1-0.58777 0.26001-0.57204 0.86238 0.57209-0.43437
  -6   3   141856.52  633.36   1-0.73046 0.35939-0.67012 0.93106 0.13172-0.06283
  -6   3   145077.56  799.30   1-0.58405 0.21308-0.57814 0.83886 0.56976-0.50090
   6  -3  -144517.18  702.45   1-0.38602 0.75672-0.87351 0.61278-0.29657 0.22770
  -6   3   0221151.2 3097.97   1-0.29529-0.11877-0.04248 0.27366 0.95446-0.95446
  -6   3   0232932.713421.39   1-0.66468 0.25035-0.70384 0.93515-0.25059 0.25059
  -6   3   0229634.6 3332.67   1-0.58930 0.17512-0.56949 0.80058 0.57305-0.57305
   6  -3   0232055.613394.65   1-0.26226 0.67623-0.95627 0.72522-0.12940 0.12940
  -6   3  -122264.06  555.54   1-0.53583 0.07840-0.31688 0.51850 0.78260-0.85146
  -6   3  -123802.28  594.14   1-0.43848-0.01904-0.59357 0.79526-0.67483 0.60596
  -6   3  -124167.74  684.21   1-0.60498 0.14758-0.54262 0.74409 0.58271-0.65157
   6  -3   124100.19  661.04   1-0.15751 0.61466-0.98750 0.78611 0.00399 0.06487
  -6   3  -235710.20  862.63   1-0.62683 0.12622-0.43978 0.61177 0.64316-0.78089
  -6   3  -239553.87  949.26   1-0.19744-0.30330-0.41559 0.58761-0.88786 0.75014
  -6   3  -242570.75 1069.78   1-0.63241 0.13197-0.49197 0.66393 0.59833-0.73605
   6  -3   242410.83 1065.21   1-0.07178 0.57210-0.99145 0.81967 0.10893 0.02880
   6  -3   323771.37 1385.39   1 0.03895 0.50465 0.28061-0.42305 0.95902-0.75256
  -6   3  -320226.14 1191.14   1-0.67154 0.12791-0.40584 0.54820 0.61992-0.82650
   6  -3   320977.49 1272.57   1-0.00047 0.54400-0.98109 0.83898 0.19350 0.01310
   6  -3   4 5412.26  672.12   1-0.05318 0.63962 0.19688-0.30960 0.97898-0.70357
  -6   3  -4 5578.95  425.46   1-0.72048 0.13367-0.26163 0.37423 0.64221-0.91764
   6  -3   4 5758.47  753.29   1 0.06061 0.52643-0.96267 0.85013 0.26380 0.01181
   6  -3   5 5509.76  861.49   1-0.10359 0.73314 0.14948-0.23259 0.98332-0.63906
   6  -3   5 7899.32  688.48   1 0.11414 0.51615-0.93910 0.85625 0.32412 0.02039
   6  -3   6  192.21   81.04   1-0.12889 0.80153 0.12524-0.17875 0.98371-0.57060
   6  -3   6  473.19  164.52   1 0.16227 0.51127-0.91181 0.85865 0.37716 0.03625
  -6   2  11 2177.20  413.20   1-0.54818 0.58251-0.33262 0.81276 0.76736-0.00985
  -6   2  10  906.19  336.78   1-0.57758 0.56872-0.37112 0.82162 0.72708-0.03844
  -6   2  10  196.12  138.41   1-0.72457 0.71597-0.24641 0.69667 0.64364 0.04492
  -6   2   9  696.03  182.59   1-0.60569 0.55363-0.40954 0.83041 0.68220-0.06242
  -6   2   9  656.89  233.70   1-0.69428 0.64243-0.34585 0.76625 0.63115-0.01143
  -6   2   837408.30 1502.64   1-0.63259 0.53734-0.44825 0.83949 0.63157-0.08065
  -6   2   843457.07 1714.54   1-0.66080 0.56576-0.43131 0.82212 0.61424-0.06338
  -6   2   786360.13 2186.32   1-0.65802 0.51958-0.48778 0.84950 0.57364-0.09153
  -6   2   792637.75 2339.86   1-0.62607 0.48782-0.50442 0.86564 0.59463-0.11263
  -6   2   613574.85 1132.16   1-0.68237 0.50073-0.52866 0.86074 0.50485-0.09161
  -6   2   615135.49 1886.12   1-0.59146 0.41000-0.56589 0.89772 0.57439-0.16122
  -6   2   595961.31 2334.62   1-0.70471 0.47987-0.57161 0.87404 0.42027-0.07590
  -6   2   599305.71 2429.99   1-0.55942 0.33475-0.61646 0.91865 0.55408-0.20977
  -6   2   451015.73  838.93   1-0.72287 0.45484-0.61712 0.88986 0.31082-0.03532
  -6   2   461619.41 1057.92   1-0.53128 0.26340-0.65636 0.92893 0.53564-0.26020
  -6   2   318231.28 1132.40   1-0.73106 0.41983-0.66329 0.90639 0.15994 0.04667
   6  -2  -317141.30 1057.83   1-0.54195 0.85320-0.65561 0.41255-0.52578 0.31912
  -6   2   318285.95 1162.07   1-0.50878 0.19768-0.68568 0.92862 0.52055-0.31397
  -6   2   2  747.03  106.29   1-0.71188 0.35744-0.70001 0.91349-0.05656 0.19433
   6  -2  -2  869.84   89.72   1-0.35212 0.70657-0.53430 0.32080-0.76845 0.63073
  -6   2   2  991.48  160.36   1-0.49371 0.13940-0.70415 0.91746 0.51030-0.37257
   6  -2  -2  996.72   89.90   1-0.37344 0.72754-0.88467 0.67133-0.27908 0.14135
  -6   2   1  794.38  134.40   1 0.05404-0.45142 0.29392-0.11020 0.95429-0.88547
  -6   2   1  980.61  101.65   1-0.62882 0.23113-0.69455 0.87834-0.34953 0.41842
  -6   2   1  994.95  165.07   1-0.48797 0.09044-0.71096 0.89465 0.50636-0.43750
   6  -2  -1 1591.62  236.74   1-0.21511 0.61247-0.97417 0.79048-0.06858-0.00028
  -6   2   056378.88  846.74   1-0.24328-0.19736 0.01142 0.14269 0.96988-0.96988
  -6   2   061985.85  936.13   1-0.45982 0.01891-0.60730 0.76150-0.64787 0.64787
  -6   2   062828.06 1017.45   1-0.49352 0.05277-0.70439 0.85845 0.51016-0.51016
   6  -2   068588.07 1043.93   1-0.09977 0.54031-0.99217 0.83810 0.07508-0.07508
  -6   2  -1135051.4 3196.44   1-0.43902-0.04485-0.20024 0.32482 0.87587-0.94471
  -6   2  -1134985.1 3192.22   1-0.26337-0.22075-0.46788 0.59244-0.84363 0.77477
  -6   2  -1141705.0 3384.14   1-0.51241 0.02846-0.68108 0.80552 0.52301-0.59187
   6  -2   1142090.6 3378.29   1-0.01540 0.49915-0.98427 0.85986 0.17599-0.10712
   6  -2   2 1009.11  128.22   1 0.10727 0.41970 0.34006-0.43502 0.93426-0.79662
  -6   2  -2  443.25   97.99   1-0.54688 0.01971-0.63472 0.72953 0.54592-0.68365
   6  -2   2  880.78  175.32   1 0.05041 0.47677-0.96637 0.87155 0.25215-0.11435
   6  -2   354679.00 1378.39   1 0.00417 0.56600 0.24951-0.31488 0.96836-0.76189
  -6   2  -349242.81 1245.01   1-0.59926 0.02888-0.55262 0.61780 0.57921-0.78580
   6  -2   352933.56 1373.72   1 0.10492 0.46551-0.94365 0.87853 0.31384-0.10713
   6  -2   4 6513.56  725.75   1-0.05967 0.67268 0.19084-0.22652 0.97980-0.70439
  -6   2  -4 6928.48  496.46   1-0.67158 0.05816-0.40576 0.44148 0.61994-0.89537
   6  -2   4 8174.04  638.17   1 0.15226 0.46142-0.91798 0.88253 0.36623-0.09061
   6  -2   5 1169.92  310.24   1-0.09590 0.75201 0.15678-0.16286 0.98296-0.63870
   6  -2   6 1174.27  217.69   1-0.11381 0.81302 0.13972-0.11619 0.98362-0.57051
  -6   1  11 4336.98  615.45   1-0.59415 0.60191-0.39354 0.79659 0.70150 0.05600
  -6   1  10 8225.98  603.03   1-0.62329 0.58786-0.43462 0.80803 0.65008 0.03856
  -6   1  10 9961.05 1169.21   1-0.67766 0.64243-0.39058 0.76353 0.62306 0.06551
  -6   1   9 6028.44  298.04   1-0.65051 0.57191-0.47592 0.81983 0.59188 0.02796
  -6   1   9 7580.62  328.69   1-0.63470 0.55627-0.48739 0.83075 0.59966 0.02005
  -6   1   870759.53 3925.33   1-0.67607 0.55427-0.51764 0.83191 0.52438 0.02660
  -6   1   878785.15 4351.74   1-0.58925 0.46766-0.56958 0.88362 0.57302-0.02212
  -6   1   7104869.8 3872.42   1-0.69906 0.53406-0.55999 0.84461 0.44466 0.03744
  -6   1   7125873.0 5053.81   1-0.54399 0.37919-0.63881 0.92323 0.54403-0.06200
  -6   1   6  963.41  186.98   1-0.71791 0.50972-0.60292 0.85785 0.34797 0.06527
  -6   1   6  697.55  198.90   1-0.50037 0.29236-0.69609 0.95088 0.51485-0.10167
   6  -1  -6  538.93   93.06   1 0.08692 0.12091-0.95195 0.69674 0.29363-0.70705
  -6   1   559228.29  988.97   1-0.72971 0.47832-0.64499 0.87029 0.22691 0.11745
  -6   1   558855.77 1012.82   1-0.45972 0.20833-0.74279 0.96763 0.48673-0.14237
   6  -1  -557218.85  845.46   1 0.16281 0.08827-0.91148 0.68595 0.37775-0.72226
  -6   1   476453.21 1858.19   1-0.72741 0.43281-0.68245 0.87810 0.07158 0.20394
  -6   1   485910.35 2118.62   1-0.42481 0.13022-0.77849 0.97377 0.46203-0.18654
  -6   1   345015.23 1121.75   1-0.69776 0.35990-0.70471 0.87073-0.12844 0.33510
  -6   1   344571.39 1150.84   1-0.39699 0.05920-0.80438 0.97009 0.44199-0.23538
   6  -1  -346790.90 1101.67   1-0.29526 0.63276-0.93957 0.77362-0.17326-0.03334
  -6   1   2 2218.48  182.08   1-0.62075 0.23970-0.69173 0.82808-0.36900 0.50677
   6  -1  -2 2458.52  189.58   1-0.23177 0.61282-0.44311 0.30671-0.86598 0.72826
  -6   1   2 2003.62  200.60   1-0.37815-0.00283-0.82071 0.95685 0.42828-0.29053
   6  -1  -2 2712.36  234.50   1-0.07937 0.46014-0.99183 0.85548 0.09978-0.23752
  -6   1   1 7574.11  493.30   1-0.01476-0.40933 0.23222-0.12558 0.97255-0.90369
  -6   1   1 8753.93  564.27   1-0.48729 0.06299-0.62430 0.73103-0.61056 0.67942
  -6   1   1 9443.38  621.43   1-0.37031-0.05387-0.82724 0.93382 0.42253-0.35366
   6  -1  -110664.53  675.73   1 0.02097 0.40299-0.97561 0.86892 0.21847-0.28734
  -6   1   031501.67  532.83   1-0.23704-0.23020 0.01779 0.05926 0.97133-0.97133
  -6   1   030043.81  521.25   1-0.32496-0.14253-0.51450 0.59160-0.79352 0.79352
  -6   1   030325.83  571.31   1-0.37561-0.09177-0.82284 0.89985 0.42642-0.42642
   6  -1   035215.19  599.60   1 0.08268 0.38465-0.95379 0.87670 0.28884-0.28884
  -6   1  -1127013.6 3024.72   1-0.17813-0.33258-0.39984 0.44730-0.89910 0.83024
  -6   1  -1141289.1 3372.11   1-0.39649-0.11408-0.80482 0.85226 0.44164-0.51051
   6  -1   1139877.0 3335.92   1 0.12964 0.38094-0.93095 0.88354 0.34133-0.27243
   6  -1   2 8681.14  737.00   1 0.06795 0.48559 0.30611-0.32400 0.94956-0.81192
  -6   1  -2 7571.13  472.87   1-0.43598-0.11779-0.76748 0.78535 0.46998-0.60773
   6  -1   2 8551.39  539.98   1 0.16951 0.38432-0.90719 0.88947 0.38504-0.24723
   6  -1   317923.26  531.67   1-0.00636 0.60311 0.23998-0.22828 0.97075-0.76429
  -6   1  -317394.41  500.69   1-0.49810-0.09883-0.69886 0.68701 0.51330-0.71988
   6  -1   413300.62  638.04   1-0.05386 0.69344 0.19625-0.15488 0.97907-0.70366
   6  -1   5 2178.96  421.16   1-0.08110 0.76378 0.17077-0.09980 0.98196-0.63770
   6  -1   6 1087.62  292.46   1-0.09399 0.81976 0.15859-0.05803 0.98285-0.56974
   6  -1   7  193.96  102.02   1-0.09616 0.86503 0.15653-0.02637 0.98297-0.50101
  -6   0  1218125.40 1956.02   1-0.60486 0.62925-0.40838 0.76397 0.68364 0.14273
  -6   0  1126255.91 1870.66   1-0.63455 0.61575-0.45117 0.77713 0.62751 0.12999
  -6   0  10 2541.09  349.79   1-0.66180 0.59985-0.49386 0.79032 0.56400 0.12471
  -6   0  10 2781.26  370.39   1-0.60999 0.54827-0.53367 0.82994 0.58574 0.10287
  -6   0   9 1391.17  208.26   1-0.68667 0.58152-0.53639 0.80321 0.49067 0.12917
  -6   0   9 2720.04  283.62   1-0.55428 0.44935-0.62404 0.89068 0.55075 0.06900
  -6   0   8  830.25  165.92   1-0.70795 0.55960-0.57862 0.81579 0.40496 0.14601
  -6   0   8  683.92  125.76   1-0.49795 0.34981-0.69904 0.93606 0.51319 0.03769
  -6   0   7123254.8 2954.12   1-0.72376 0.53221-0.61996 0.82744 0.30300 0.17911
  -6   0   7128032.2 3030.76   1-0.44233 0.25073-0.76105 0.96802 0.47448 0.00761
   6   0  -7107899.8 2503.65   1-0.11346 0.30483-0.99182 0.78419 0.05838-0.54047
  -6   0   6126740.7 3068.80   1-0.73103 0.49628-0.65828 0.83612 0.17958 0.23366
  -6   0   6131769.6 3193.64   1-0.39051 0.15571-0.81010 0.98750 0.43729-0.02406
   6   0  -6116646.4 2745.27   1-0.12490 0.35950-0.99117 0.81324 0.04432-0.45758
  -6   0   523535.99 1247.73   1-0.72361 0.44564-0.68959 0.83779 0.02897 0.31543
   6   0  -522683.73 1155.58   1-0.21999 0.49777-0.97262 0.82435-0.07482-0.26955
  -6   0   443761.98 1111.28   1-0.69209 0.37086-0.70544 0.82398-0.15282 0.42837
  -6   0   363583.80 1552.38   1-0.62468 0.26026-0.69313 0.78203-0.35962 0.56628
   6   0  -368680.75 1684.28   1 0.27274 0.09172 0.89668-0.98560-0.34867 0.14203
  -6   0   232155.41  823.67   1-0.51640 0.10875-0.64152 0.70079-0.56725 0.70502
   6   0  -235681.87  918.52   1 0.25131 0.15631 0.90908-0.96836-0.33228 0.19452
  -6   0   1  -15.83   97.77   1-0.38109-0.06980-0.55472 0.58435-0.73962 0.80848
   6   0  -1  106.24   87.41   1 0.24205 0.20873 0.91415-0.94379-0.32516 0.25628
  -6   0   1   35.10   31.82   1-0.32461-0.12591-0.92167 0.95131-0.21246 0.28132
  -6   0   0 3667.84  246.78   1-0.24704-0.24704-0.45515 0.45515-0.85545 0.85545
   6   0   0 3872.06  262.59   1 0.24697 0.24697 0.91148-0.91148-0.32894 0.32894
   6   0   144068.52 1101.91   1 0.13551 0.40140 0.36399-0.33440 0.92149-0.85266
   6   0   144856.50 1108.25   1 0.26845 0.26864 0.89923-0.86959-0.34540 0.41428
   6   0   255780.20 2106.59   1 0.05301 0.52710 0.29302-0.23384 0.95463-0.81699
   6   0   3 1730.88  316.93   1-0.00369 0.62701 0.24240-0.15363 0.97016-0.76370
  -6   0  -3 1622.45  145.58   1-0.37711-0.24647-0.82158 0.73288 0.42752-0.63413
   6   0   417561.98  835.31   1-0.04054 0.70668 0.20858-0.09018 0.97716-0.70175
   6   0   516236.89 1171.37   1-0.06154 0.77078 0.18910-0.04110 0.98002-0.63576
   6   0   6 2271.32  585.96   1-0.07074 0.82308 0.18050-0.00290 0.98102-0.56791
  -6  -1  1221728.47 1554.69   1-0.64075 0.63864-0.46092 0.73958 0.61398 0.21248
  -6  -1  11 6115.33  780.52   1-0.66821 0.62291-0.50437 0.75338 0.54689 0.21070
  -6  -1  11 6265.15  443.67   1-0.58927 0.54421-0.56955 0.81841 0.57303 0.18445
  -6  -1  10 4501.54  490.70   1-0.69245 0.60394-0.54713 0.76649 0.47027 0.21845
  -6  -1  10 5583.83  580.69   1-0.52315 0.43487-0.66721 0.88644 0.53022 0.15839
  -6  -1   9 2776.95  312.63   1-0.71230 0.58059-0.58893 0.77860 0.38180 0.23807
  -6  -1   9 3048.92  288.32   1-0.45561 0.32380-0.74720 0.93629 0.48384 0.13600
  -6  -1   811625.25  749.45   1-0.72620 0.55129-0.62852 0.78855 0.27851 0.27248
  -6  -1   812591.86  782.67   1-0.39020 0.21520-0.81037 0.96990 0.43707 0.11390
  -6  -1   7 2317.78  338.51   1-0.73104 0.51293-0.66404 0.79443 0.15689 0.32523
   6   1  -7 2153.47  194.84   1-0.31450 0.53237-0.92818 0.79773-0.19888-0.28318
  -6  -1   6187063.2 4475.49   1-0.72191 0.46058-0.69184 0.79257 0.01368 0.39960
   6   1  -6185767.3 4430.47   1 0.27215-0.01064 0.89703-0.99782-0.34822-0.06504
  -6  -1   513640.07  778.26   1-0.69221 0.38761-0.70543 0.77650-0.15234 0.49678
   6   1  -511480.35  659.06   1 0.22158 0.08308 0.92477-0.99592-0.30933-0.03505
  -6  -1   448020.93 1212.00   1-0.63442 0.28661-0.69629 0.73773-0.33568 0.61122
   6   1  -449784.85 1280.40   1 0.17930 0.16851 0.94418-0.98569-0.27632 0.00080
  -6  -1   320834.97 1306.11   1-0.54517 0.15415-0.65732 0.66914-0.52030 0.72696
   6   1  -321690.59 1158.34   1 0.14683 0.24414 0.95686-0.96873-0.25067 0.04403
  -6  -1   2 5732.68  345.80   1-0.43174-0.00254-0.58915 0.57131-0.68300 0.82072
   6   1  -2 5784.38  519.70   1 0.12563 0.30850 0.96413-0.94636-0.23379 0.09603
  -6  -1   2 4942.88  297.78   1-0.22561-0.20830-0.97075 0.95305-0.08201 0.21977
  -6  -1   1 3184.30  233.28   1-0.31195-0.16550-0.50484 0.45738-0.80486 0.87372
   6   1  -1 3883.91  475.42   1 0.11717 0.36013 0.96681-0.91939-0.22703 0.15815
  -6  -1   1 2556.58  325.97   1-0.14481-0.33228-0.98926 0.94189 0.01975 0.04911
  -6  -1   0 1041.53  157.15   1-0.20375-0.31693-0.42069 0.34359-0.88402 0.88402
   6   1   0 1512.21  197.60   1 0.12307 0.39739 0.96495-0.88790-0.23175 0.23175
   6   1   115128.68  907.00   1 0.11656 0.44692 0.34797-0.24132 0.93022-0.86140
   6   1   114939.09  891.13   1 0.14538 0.41824 0.95739-0.85069-0.24951 0.31839
   6   1   232335.77 1822.74   1 0.05199 0.55469 0.29212-0.15588 0.95496-0.81732
   6   1   234924.44 1946.14   1 0.18706 0.41972 0.94087-0.80454-0.28241 0.42017
   6   1   314587.07  690.28   1 0.00713 0.64275 0.25218-0.08635 0.96765-0.76119
   6   1   316081.74  687.81   1 0.25326 0.39669 0.90799-0.74201-0.33377 0.54041
   6   1   4  228.60   90.83   1-0.02217 0.71488 0.22545-0.03001 0.97400-0.69859
   6   1   5 7801.19 1512.61   1-0.03854 0.77434 0.21042 0.01461 0.97684-0.63259
   6   1   6 3806.56 1013.84   1-0.04487 0.82377 0.20458 0.05005 0.97781-0.56471
  -6  -2  12   47.41  184.66   1-0.67098 0.64232-0.50899 0.71054 0.53917 0.28729
  -6  -2  11 9480.99  671.98   1-0.69491 0.62306-0.55185 0.72376 0.46102 0.29657
  -6  -2  1110022.92 1182.52   1-0.49787 0.42626-0.69914 0.87097 0.51314 0.24434
  -6  -2  10 7924.46  405.57   1-0.71406 0.59899-0.59315 0.73537 0.37184 0.31690
  -6  -2  10 9381.97  491.68   1-0.42073 0.30552-0.78243 0.92408 0.45910 0.22961
  -6  -2   9  611.96  188.34   1-0.72698 0.56871-0.63157 0.74415 0.26944 0.35043
  -6  -2   8  393.66  187.61   1-0.73086 0.52937-0.66549 0.74840 0.15149 0.39956
   6   2  -8  230.32  136.78   1 0.27706-0.07535 0.89406-0.97708-0.35196-0.19906
   6   2  -8   72.23   50.26   1-0.42087 0.62214-0.83861 0.75555-0.34581-0.20512
  -6  -2   715412.37 1915.22   1-0.72218 0.47748-0.69151 0.74478 0.01601 0.46615
   6   2  -714531.93 1211.18   1 0.21166 0.03320 0.92963-0.98300-0.30163-0.18052
  -6  -2   641671.75 1097.04   1-0.69585 0.40788-0.70501 0.72862-0.13689 0.55021
   6   2  -641911.39 1105.07   1 0.15321 0.13481 0.95453-0.97826-0.25573-0.15754
  -6  -2   571821.58 1175.33   1-0.64687 0.31569-0.69992 0.69390-0.30274 0.64717
   6   2  -566492.83 1125.79   1 0.10262 0.22854 0.97092-0.96503-0.21625-0.12836
  -6  -2   4 4094.92  302.22   1-0.57273 0.19835-0.67124 0.63562-0.47053 0.74608
   6   2  -4 5241.83  566.18   1 0.06202 0.31235 0.98107-0.94547-0.18341-0.09227
  -6  -2   360166.42  994.22   1-0.47727 0.05958-0.61818 0.55286-0.62454 0.83113
   6   2  -362600.71 1014.22   1 0.03205 0.38551 0.98676-0.92145-0.15893-0.04783
  -6  -2   1 3561.37  283.51   1-0.26984-0.23420-0.47289 0.34832-0.83878 0.90764
   6   2  -1 5283.58  533.76   1 0.00804 0.49593 0.99023-0.86551-0.13918 0.07025
  -6  -2   0  627.72  153.28   1-0.18184-0.36543-0.40288 0.24867-0.89700 0.89700
   6   2   0  834.81  148.97   1 0.01621 0.53096 0.98916-0.83473-0.14591 0.14591
   6   2   1 3997.56  273.65   1 0.11181 0.47824 0.34393-0.16021 0.93231-0.86349
   6   2   1 4154.22  504.28   1 0.03988 0.55049 0.98542-0.80129-0.16535 0.23427
   6   2   211909.16  850.96   1 0.05979 0.57345 0.29897-0.08566 0.95238-0.81474
   6   2   212486.64 1119.67   1 0.08165 0.55192 0.97652-0.76268-0.19933 0.33718
   6   2   330784.07 1373.85   1 0.02346 0.65298 0.26683-0.02393 0.96345-0.75699
   6   2   4 3839.96  690.20   1 0.00017 0.71947 0.24590 0.02657 0.96929-0.69400
   6   2   5 5451.10  944.78   1-0.01291 0.77528 0.23390 0.06818 0.97217-0.62791
  -6  -3  1316739.04 1840.59   1-0.67083 0.65882-0.50874 0.66285 0.53958 0.35576
  -6  -3  12 2938.26  424.34   1-0.69489 0.63968-0.55180 0.67626 0.46113 0.36534
  -6  -3  11 3798.04  578.17   1-0.71394 0.61551-0.59287 0.68763 0.37252 0.38509
  -6  -3  11 4067.79  510.93   1-0.39432 0.29570-0.80675 0.90096 0.44006 0.31752
  -6  -3  1019912.76  915.83   1-0.72675 0.58512-0.63066 0.69578 0.27219 0.41655
  -6  -3   953164.80 2981.40   1-0.73105 0.54621-0.66364 0.69912 0.15850 0.46137
   6   3  -953138.30 2960.05   1 0.23631-0.05124 0.91721-0.95281-0.32073-0.29917
  -6  -3   8 1959.33  360.84   1-0.72377 0.49570-0.68936 0.69517 0.03047 0.52058
   6   3  -8 2740.84  523.22   1 0.16475 0.06347 0.95010-0.95607-0.26485-0.28617
  -6  -3   7 8148.49  724.87   1-0.70143 0.43009-0.70395 0.68009-0.11150 0.59370
   6   3  -7 7479.55  761.75   1 0.09999 0.17131 0.97167-0.94797-0.21413-0.26832
  -6  -3   7 5033.06  413.43   1 0.13781-0.40900-0.92642 0.90294 0.35036 0.13196
  -6  -3   615402.27  959.76   1-0.66040 0.34585-0.70306 0.64956-0.26376 0.67708
   6   3  -616500.25  508.92   1 0.04430 0.27020 0.98462-0.93122-0.16896-0.24457
  -6  -3   613552.61  792.99   1 0.02580-0.34028-0.97423 0.92109 0.22406 0.18915
  -6  -3   568969.92 1719.70   1-0.59865 0.24089-0.68299 0.59993-0.41848 0.76292
   6   3  -574210.71 1839.90   1-0.00195 0.35966 0.99139-0.90828-0.13091-0.21369
  -6  -3   568249.39 1605.32   1-0.27490-0.08261-0.95025 0.86737-0.14641 0.49075
  -6  -3   4 7322.39  490.31   1-0.51824 0.11726-0.64256 0.52986-0.56438 0.83993
   6   3  -4 9917.96  677.01   1-0.03803 0.43894 0.99416-0.88135-0.10091-0.17478
  -6  -3   3  240.35  166.35   1-0.42607-0.01820-0.58540 0.44298-0.68975 0.89634
   6   3  -3  119.28   90.36   1-0.06330 0.50741 0.99480-0.85228-0.07971-0.12705
  -6  -3   3   69.45   41.05   1 0.17967-0.62385-0.90048 0.75825 0.39604-0.18933
  -6  -3   237112.19 1007.03   1-0.33235-0.15506-0.51994 0.34792-0.78689 0.92460
   6   3  -238499.82 1014.98   1-0.07720 0.56451 0.99469-0.82246-0.06800-0.06984
  -6  -3   170821.14 2640.42   1-0.24639-0.28425-0.45464 0.25297-0.85591 0.92477
   6   3  -176925.20 2841.86   1-0.07907 0.60958 0.99465-0.79271-0.06642-0.00249
  -6  -3   0 3492.12  283.97   1-0.17381-0.40005-0.39629 0.16498-0.90151 0.90151
   6   3   0 3872.64  647.47   1-0.06804 0.64175 0.99480-0.76316-0.07572 0.07573
   6   3   1  419.55  179.08   1 0.11636 0.50025 0.34781-0.08702 0.93031-0.86149
   6   3   1  564.69  130.92   1-0.04275 0.65966 0.99436-0.73302-0.09696 0.16588
   6   3   2 1840.97  395.80   1 0.07361 0.58620 0.31104-0.02067 0.94753-0.80989
   6   3   2 1821.29  382.23   1-0.00094 0.66105 0.99128-0.70022-0.13175 0.26959
   6   3   3 9692.90 2057.87   1 0.04376 0.65925 0.28487 0.03509 0.95756-0.75110
   6   3   413816.33 1124.84   1 0.02488 0.72133 0.26810 0.08144 0.96306-0.68778
  -6  -4  1317672.43 1916.89   1-0.69277 0.65421-0.54774 0.62474 0.46909 0.42625
  -6  -4  1231359.29 1842.19   1-0.71229 0.63049-0.58891 0.63621 0.38186 0.44463
  -6  -4  1231666.69 1818.35   1-0.37730 0.29528-0.82142 0.86819 0.42765 0.39880
  -6  -4  11  754.58  317.57   1-0.72568 0.60068-0.62658 0.64424 0.28421 0.47341
  -6  -4  1017683.49  871.39   1-0.73107 0.56287-0.65947 0.64749 0.17501 0.51373
   6   4 -1015797.87  718.85   1 0.20748-0.03905 0.93162-0.91981-0.29838-0.39041
  -6  -4  1014822.33  648.60   1 0.17707-0.34515-0.90222 0.89071 0.39323 0.29580
  -6  -4   978519.17 4361.19   1-0.72599 0.51455-0.68559 0.64394 0.05375 0.56618
   6   4  -996786.72 5337.10   1 0.13128 0.08030 0.96227-0.92082-0.23830-0.38161
  -6  -4   987548.09 4797.03   1 0.11390-0.32523-0.93922 0.89802 0.32386 0.29627
  -6  -4   832832.76  956.59   1-0.70791 0.45327-0.70186 0.63057-0.07895 0.63000
   6   4  -834778.81 1077.55   1 0.06229 0.19234 0.98101-0.90981-0.18363-0.36775
  -6  -4   829822.80  769.02   1 0.02810-0.28280-0.97355 0.90271 0.22671 0.32424
  -6  -4   7 9296.78  623.16   1-0.67398 0.37606-0.70512 0.60416-0.22033 0.70254
   6   4  -7 8544.65  686.88   1 0.00272 0.29511 0.99087-0.88995-0.13478-0.34767
  -6  -4   7 7694.19  465.58   1-0.09978-0.19812-0.99217 0.89166 0.07505 0.40703
  -6  -4   6   52.86  180.58   1-0.62265 0.28152-0.69241 0.56190-0.36449 0.77781
   6   4  -6  599.64  137.99   1-0.04745 0.38849 0.99453-0.86391-0.09302-0.32050
  -6  -4   6  468.26   71.77   1-0.29348-0.04743-0.94056 0.81029-0.17089 0.58410
  -6  -4   5 5932.41  577.42   1-0.55491 0.17056-0.66238 0.50224-0.50329 0.84773
   6   4  -5 6649.18  752.18   1-0.08777 0.47201 0.99438-0.83406-0.05906-0.28555
  -6  -4   4141107.8 3333.48   1-0.47504 0.04737-0.61681 0.42691-0.62759 0.90304
   6   4  -4146424.2 3547.76   1-0.11745 0.54474 0.99251-0.80288-0.03340-0.24212
  -6  -4   3136013.2 3227.43   1-0.39044-0.08042-0.56124 0.34171-0.72976 0.93635
   6   4  -3137891.2 3337.60   1-0.13717 0.60762 0.99040-0.77112-0.01652-0.19012
  -6  -4   212923.08  823.83   1-0.30870-0.20531-0.50242 0.25329-0.80763 0.94535
   6   4  -214214.20 1254.63   1-0.14617 0.65980 0.98921-0.74028-0.00878-0.12898
  -6  -4   1147743.2 6522.64   1-0.23594-0.32130-0.44641 0.16764-0.86316 0.93202
   6   4  -1144005.0 3521.25   1-0.14405 0.70084 0.98951-0.71092-0.01060-0.05827
  -6  -4   0 5679.95  516.81   1-0.17527-0.42519-0.39749 0.08907-0.90070 0.90070
   6   4   0 5390.07  683.72   1-0.13010 0.73006 0.99124-0.68300-0.02258 0.02258
   6   4   1  998.96  241.79   1 0.12739 0.51579 0.35715-0.01930 0.92531-0.85649
   6   4   1 1092.02  155.92   1-0.10314 0.74626 0.99362-0.65572-0.04560 0.11448
   6   4   2 1103.17  309.21   1 0.09178 0.59460 0.32678 0.04066 0.94063-0.80299
   6   4   2 1445.09  312.57   1-0.06127 0.74791 0.99479-0.62652-0.08142 0.21927
   6   4   3  317.91  117.41   1 0.06707 0.66251 0.30534 0.09168 0.94987-0.74341
  -6  -5  13 5236.84  743.04   1-0.70927 0.64416-0.58155 0.58146 0.39840 0.49694
  -6  -5  1231137.01 1826.18   1-0.72369 0.61532-0.61972 0.58993 0.30367 0.52282
   6   5 -1232575.47 1858.75   1 0.27771-0.16908 0.89367-0.86408-0.35245-0.47409
  -6  -5  11 5750.52  551.52   1-0.73071 0.57914-0.65306 0.59364 0.19889 0.55872
   6   5 -11 3383.94  754.46   1 0.19013-0.03834 0.93953-0.88030-0.28482-0.47284
  -6  -5  11 4618.40  343.55   1 0.13963-0.29111-0.92538 0.86646 0.35236 0.40557
  -6  -5  10 1455.96  273.65   1-0.72825 0.53345-0.68016 0.59105 0.08377 0.60504
   6   5 -10 1301.44  226.05   1 0.10953 0.08523 0.96891-0.87991-0.22180-0.46742
  -6  -5  10  976.60  268.30   1 0.06963-0.26436-0.95918 0.87057 0.27406 0.41497
  -6  -5   915277.18 1124.43   1-0.71442 0.47641-0.69851 0.57976-0.04105 0.66099
   6   5  -914229.29 1305.36   1 0.03810 0.19987 0.98574-0.86702-0.16389-0.45641
  -6  -5   913266.11  937.20   1-0.01897-0.21915-0.98495 0.86673 0.17179 0.44804
  -6  -5   842674.64 1228.41   1-0.68695 0.40566-0.70570 0.55728-0.17339 0.72448
   6   5  -841598.59 1191.24   1-0.02430 0.30548 0.99336-0.84495-0.11236-0.43902
  -6  -5   835141.51  921.41   1-0.13424-0.14687-0.99040 0.84255 0.03282 0.51819
  -6  -5   718901.60  649.72   1-0.64463 0.32013-0.69931 0.52125-0.30887 0.79108
   6   5  -722629.92  707.00   1-0.07732 0.40169 0.99469-0.81656-0.06790-0.41455
  -6  -5   719109.69  512.03   1-0.28220-0.04210-0.94666 0.76916-0.15552 0.63766
  -6  -5   625410.69 1522.25   1-0.58772 0.22000-0.67821 0.47062-0.44113 0.85446
   6   5  -625901.77 1635.68   1-0.12023 0.48768 0.99226-0.78488-0.03103-0.38225
  -6  -5   514828.57  919.00   1-0.51906 0.10812-0.64303 0.40580-0.56310 0.90753
   6   5  -516423.39 1380.34   1-0.15395 0.56457 0.98807-0.75104-0.00208-0.34232
  -6  -5   487345.49 3246.91   1-0.44362-0.01064-0.59692 0.32991-0.66849 0.94394
   6   5  -488741.38 3369.14   1-0.17795 0.63174 0.98386-0.71717 0.01868-0.29421
  -6  -5   313891.38  674.91   1-0.36772-0.12973-0.54531 0.24868-0.75326 0.95985
   6   5  -314451.15 1077.49   1-0.19218 0.68914 0.98086-0.68452 0.03106-0.23770
  -6  -5   2 4048.08  373.05   1-0.29678-0.24383-0.49345 0.16722-0.81757 0.95529
   6   5  -2 4467.69  512.82   1-0.19651 0.73663 0.97988-0.65388 0.03483-0.17260
  -6  -5   1 6479.83  524.50   1-0.23478-0.34905-0.44549 0.08962-0.86394 0.93280
   6   5  -1 6674.56  820.72   1-0.19062 0.77391 0.98121-0.62556 0.02970-0.09858
  -6  -5   012474.33 1057.58   1-0.18350-0.44355-0.40424 0.01872-0.89605 0.89605
   6   5   011860.47  970.88   1-0.17388 0.80034 0.98464-0.59934 0.01515-0.01515
   6   5   1 1385.42  399.20   1 0.14316 0.52659 0.37041 0.04450 0.91776-0.84894
   6   5   1  368.54  107.23   1-0.14517 0.81479 0.98935-0.57440-0.00965 0.07853
   6   5   2   77.11  190.02   1 0.11326 0.59969 0.34517 0.09933 0.93167-0.79403
   6   5   3  263.13  120.09   1 0.09275 0.66340 0.32761 0.14648 0.94024-0.73378
  -6  -6  13  482.92  314.44   1-0.72056 0.62884-0.61022 0.53298 0.32925 0.56611
  -6  -6  12 8308.16  980.80   1-0.72963 0.59470-0.64445 0.53757 0.22872 0.59777
   6   6 -12 5178.39  984.98   1 0.18349-0.04834 0.94241-0.83577-0.27961-0.54693
  -6  -6  1122881.73 1353.82   1-0.73005 0.55188-0.67292 0.53634 0.11914 0.63855
   6   6 -1120247.39 1726.70   1 0.09969 0.07841 0.97175-0.83524-0.21389-0.54426
  -6  -6  1120182.58 1170.27   1 0.04850-0.22663-0.96703 0.83102 0.24996 0.50797
  -6  -6  10 7601.54  685.78   1-0.72039 0.49902-0.69355 0.52734 0.00115 0.68766
   6   6 -10 8348.73  810.95   1 0.02569 0.19561 0.98778-0.82156-0.15371-0.53551
  -6  -6  10 6614.17  737.07   1-0.03702-0.18453-0.98792 0.82233 0.15045 0.53824
  -6  -6   9  646.19  189.91   1-0.69885 0.43419-0.70451 0.50861-0.12351 0.74349
   6   6  -9 1067.16  173.69   1-0.03900 0.30351 0.99421-0.79828-0.10009-0.52020
  -6  -6   9  493.45   68.58   1-0.14004-0.12447-0.98981 0.79460 0.02566 0.59423
  -6  -6   896996.17 2076.33   1-0.66439 0.35652-0.70379 0.47826-0.25150 0.80259
   6   6  -896412.67 2050.65   1-0.09376 0.40138 0.99415-0.76901-0.05356-0.49749
  -6  -6   892105.50 3459.55   1-0.26225-0.04544-0.95628 0.73141-0.12939 0.68041
  -6  -6   719068.11 1388.28   1-0.61694 0.26585-0.69032 0.43529-0.37793 0.86014
   6   6  -721149.27 1496.94   1-0.13963 0.49042 0.99009-0.73531-0.01441-0.46776
  -6  -6   718428.15 1299.23   1-0.39449 0.04357-0.86558 0.61089-0.30844 0.79051
  -6  -6   612103.08  937.50   1-0.55830 0.16399-0.66411 0.37944-0.49723 0.91056
   6   6  -6 9604.79  816.39   1-0.17617 0.57013 0.98420-0.69976 0.01713-0.43043
  -6  -6   5  442.64  329.43   1-0.49188 0.05423-0.62706 0.31258-0.60402 0.94834
   6   6  -5  425.33  161.70   1-0.20352 0.64065 0.97821-0.66411 0.04096-0.38537
  -6  -6   4 5442.89  461.36   1-0.42261-0.05824-0.58310 0.23900-0.69381 0.96927
   6   6  -4 4981.42  726.45   1-0.22180 0.70209 0.97342-0.62967 0.05698-0.33251
  -6  -6   3 9808.60  742.14   1-0.35525-0.16880-0.53641 0.16267-0.76554 0.97213
   6   6  -3 9656.34  840.76   1-0.23106 0.75451 0.97075-0.59735 0.06513-0.27178
  -6  -6   2 4186.53  299.91   1-0.29364-0.27355-0.49108 0.08775-0.82012 0.95784
   6   6  -2 3465.73  403.49   1-0.23121 0.79783 0.97071-0.56765 0.06526-0.20303
  -6  -6   1 2678.80  392.49   1-0.24048-0.36994-0.44999 0.01701-0.86003 0.92889
   6   6  -1 2913.38  445.62   1-0.22195 0.83174 0.97338-0.54067 0.05711-0.12599
  -6  -6   017229.31 1252.82   1-0.19678-0.45687-0.41505-0.04757-0.88825 0.88825
   6   6   016121.93 1181.01   1-0.20264 0.85560 0.97842-0.51606 0.04019-0.04019
   6   6   1 2492.61  483.29   1-0.17217 0.86829 0.98497-0.49295 0.01366 0.05521
   6   6   2  648.08  250.57   1 0.13734 0.60217 0.36553 0.15603 0.92060-0.78296
  -6  -7  13  478.33  285.15   1-0.72745 0.60916-0.63354 0.47921 0.26349 0.63187
  -6  -7  12  730.42  359.79   1-0.73106 0.56956-0.66353 0.47956 0.15895 0.66753
   6   7 -12  317.20  162.54   1 0.09990 0.06153 0.97169-0.78767-0.21406-0.61301
  -6  -7  1144969.76 3127.70   1-0.72538 0.52064-0.68673 0.47306 0.04697 0.71073
   6   7 -1146279.37 9532.59   1 0.02350 0.18113 0.98811-0.77438-0.15191-0.60623
  -6  -7  1029937.62 1367.31   1-0.70936 0.46141-0.70125 0.45793-0.07103 0.75986
   6   7 -1030467.91 1353.87   1-0.04328 0.29113 0.99438-0.75095-0.09651-0.59271
  -6  -7  1027688.17 1183.08   1-0.13228-0.11562-0.99058 0.74801 0.03524 0.65353
  -6  -7   9 5234.64  573.33   1-0.68187 0.39063-0.70567 0.43267-0.19255 0.81252
   6   7  -9 5295.13  710.66   1-0.10007 0.39102 0.99381-0.72127-0.04821-0.57172
  -6  -7   9 4793.48  602.30   1-0.23810-0.05299-0.96627 0.69404-0.09807 0.71797
  -6  -7   851082.66 2114.30   1-0.64282 0.30837-0.69881 0.39617-0.31375 0.86484
   6   7  -849183.29 2023.48   1-0.14808 0.48220 0.98894-0.68675-0.00714-0.54391
  -6  -7   845357.84 1826.34   1-0.35107 0.01675-0.90281 0.60073-0.24833 0.79927
  -6  -7   711335.43  620.85   1-0.59317 0.21549-0.68063 0.34852-0.42998 0.91219
   6   7  -711331.87  780.99   1-0.18704 0.56433 0.98199-0.65014 0.02658-0.50876
  -6  -7   6 2264.77  258.63   1-0.53543 0.11454-0.65210 0.29036-0.53671 0.95003
   6   7  -6 2395.72  275.00   1-0.21721 0.63766 0.97468-0.61318 0.05295-0.46624
  -6  -7   5  744.29  321.20   1-0.47310 0.00886-0.61561 0.22403-0.63022 0.97453
   6   7  -5  180.43  166.08   1-0.23881 0.70243 0.96839-0.57724 0.07197-0.41638
  -6  -7   4 6273.89  336.45   1-0.41037-0.09707-0.57488 0.15367-0.70788 0.98334
   6   7  -4 5879.88  999.41   1-0.25203 0.75882 0.96409-0.54328 0.08367-0.35920
  -6  -7   318640.62  902.83   1-0.35074-0.19982-0.53331 0.08252-0.76977 0.97634
   6   7  -318030.86  828.83   1-0.25693 0.80689 0.96241-0.51195 0.08802-0.29467
  -6  -7   2 6234.71  525.20   1-0.29723-0.29656-0.49379 0.01335-0.81719 0.95491
   6   7  -2 5344.91  919.33   1-0.25342 0.84654 0.96362-0.48350 0.08490-0.22267
  -6  -7   1  506.20  284.72   1-0.25140-0.38562-0.45856-0.05151-0.85235 0.92121
   6   7  -1  124.06   96.19   1-0.24115 0.87744 0.96765-0.45789 0.07404-0.14292
  -6  -7   016202.10 1217.32   1-0.21394-0.46630-0.42889-0.11083-0.87765 0.87765
   6   7   014965.21 1061.28   1-0.21946 0.89892 0.97407-0.43465 0.05493-0.05493
  -6  -8  12  371.59  278.71   1-0.72898 0.54087-0.67777 0.41664 0.09592 0.73066
   6   8 -12  216.89  117.70   1 0.03030 0.15767 0.98705-0.72581-0.15750-0.66957
  -6  -8  1113089.29  866.67   1-0.71809 0.48677-0.69575 0.40498-0.01627 0.77397
   6   8 -1110973.10  930.71   1-0.03864 0.26981 0.99419-0.70325-0.10040-0.65774
  -6  -8  1013925.68 1078.33   1-0.69695 0.42234-0.70485 0.38438-0.13203 0.82089
   6   8 -1011845.00 1044.87   1-0.09744 0.37172 0.99396-0.67401-0.05044-0.63837
  -6  -8   9 4052.39  379.00   1-0.66540 0.34758-0.70396 0.35385-0.24833 0.86831
   6   8  -9 3328.29  574.97   1-0.14752 0.46497 0.98902-0.63942-0.00762-0.61231
  -6  -8   9 3480.03  256.91   1-0.31094-0.00677-0.93039 0.58092-0.19412 0.81392
  -6  -8   8 1049.71  259.05   1-0.62393 0.26288-0.69286 0.31331-0.36144 0.91253
   6   8  -8 1349.48  253.46   1-0.18872 0.54934 0.98162-0.60237 0.02804-0.57910
  -6  -8   8 1483.66  217.73   1-0.40943 0.04849-0.85075 0.47165-0.32951 0.88045
  -6  -8   737345.41 1653.32   1-0.57430 0.17004-0.67199 0.26280-0.46753 0.94974
   6   8  -732862.73 1442.61   1-0.22141 0.62519 0.97353-0.56462 0.05664-0.53881
  -6  -8   6 3713.10  518.86   1-0.51914 0.07166-0.64308 0.20425-0.56296 0.97629
   6   8  -6 3666.24  754.07   1-0.24591 0.69286 0.96612-0.52756 0.07824-0.49154
  -6  -8   5  364.59  229.75   1-0.46169-0.02914-0.60848 0.13979-0.64543 0.98975
   6   8  -5   78.97   91.18   1-0.26248 0.75260 0.96044-0.49223 0.09295-0.43736
  -6  -8   4  201.86  212.98   1-0.40534-0.12870-0.57146 0.07315-0.71352 0.98898
   6   8  -4  -23.74  168.59   1-0.27131 0.80459 0.95719-0.45933 0.10082-0.37634
  -6  -8   3 9572.84 2036.64   1-0.35272-0.22445-0.53473 0.00684-0.76788 0.97446
   6   8  -3 5959.70 1084.31   1-0.27242 0.84887 0.95677-0.42925 0.10181-0.30845
  -6  -8   2 5852.76  724.29   1-0.30605-0.31434-0.50043-0.05710-0.80987 0.94759
   6   8  -2 4272.13  824.24   1-0.26567 0.88529 0.95929-0.40211 0.09579-0.23356
  -6  -8   1 5187.39  779.57   1-0.26639-0.39722-0.47022-0.11696-0.84137 0.91023
   6   8  -1 2630.78  645.44   1-0.25067 0.91346 0.96455-0.37772 0.08247-0.15135
  -6  -9  12  765.53  299.53   1-0.72479 0.51011-0.68776 0.34952 0.04070 0.78588
   6   9 -12  229.89  110.59   1-0.02614 0.24065 0.99349-0.65504-0.11083-0.71624
  -6  -9  11  817.47  274.57   1-0.70957 0.45168-0.70115 0.33328-0.06988 0.82759
   6   9 -11  644.31  268.31   1-0.08763 0.34534 0.99439-0.62623-0.05917-0.69897
  -6  -9  1012621.15  854.11   1-0.68478 0.38359-0.70572 0.30815-0.18170 0.87057
   6   9 -10 9226.04 1393.45   1-0.13934 0.44012 0.99013-0.59312-0.01466-0.67415
  -6  -9   9 3232.51  474.49   1-0.65083 0.30644-0.70094 0.27373-0.29170 0.91168
   6   9  -9 3451.47  492.49   1-0.18275 0.52670 0.98289-0.55623 0.02285-0.64279
  -6  -9   8 3050.27  489.98   1-0.60876 0.22112-0.68715 0.23052-0.39651 0.94760
   6   9  -8 2537.90  462.10   1-0.21783 0.60495 0.97451-0.51820 0.05350-0.60455
  -6  -9   7 3200.85  462.83   1-0.56062 0.12976-0.66528 0.17901-0.49303 0.97524
  -6  -9   624210.93 1750.11   1-0.50896 0.03488-0.63725 0.12135-0.57867 0.99199
   6   9  -620549.48 1474.05   1-0.26454 0.73799 0.95970-0.44408 0.09479-0.50808
  -6  -9   5 2645.69  612.75   1-0.45660-0.06083-0.60525 0.05946-0.65205 0.99637
   6   9  -5 1404.76  415.68   1-0.27676 0.79337 0.95510-0.40983 0.10568-0.45009
  -6  -9   4  590.29  290.64   1-0.40622-0.15441-0.57206-0.00335-0.71254 0.98800
   6   9  -4  367.33  193.72   1-0.28176 0.84154 0.95313-0.37821 0.11015-0.38568
  -6  -9   3 1548.55  425.26   1-0.35991-0.24392-0.53975-0.06529-0.76100 0.96759
   6   9  -3  776.43  294.22   1-0.27953 0.88248 0.95402-0.34944 0.10816-0.31481
  -6  -9   2 1429.82  480.11   1-0.31904-0.32794-0.51012-0.12452-0.79873 0.93645
   6   9  -2  192.97  133.68   1-0.26986 0.91598 0.95773-0.32350 0.09953-0.23729
  -6 -10  10 4492.18  655.66   1-0.67391 0.34614-0.70511 0.23043-0.22057 0.90943
   6  10 -10 3750.42  623.54   1-0.17021 0.49749 0.98533-0.51126 0.01196-0.70078
  -6 -10   9 9511.05  780.71   1-0.63902 0.26804-0.69770 0.19339-0.32381 0.94379
   6  10  -9 6162.95 1358.78   1-0.20767 0.57812 0.97718-0.47346 0.04459-0.66453
  -6 -10   8 6119.73  881.12   1-0.59765 0.18342-0.68257 0.14885-0.42059 0.97169
   6  10  -8 4730.55  966.27   1-0.23737 0.65098 0.96884-0.43546 0.07069-0.62175
  -6 -10   7  524.88  290.11   1-0.55195 0.09451-0.66086 0.09751-0.50852 0.99073
   6  10  -7  -99.58  179.98   1-0.25969 0.71647 0.96144-0.39841 0.09047-0.57264
  -6 -10   619906.63 1455.93   1-0.50421 0.00338-0.63435 0.04109-0.58596 0.99914
   6  10  -613972.06 1877.67   1-0.27495 0.77490 0.95580-0.36312 0.10406-0.51736
  -6 -10   5 3782.70  579.21   1-0.45686-0.08716-0.60542-0.01747-0.65172 0.99604
   6  10  -5 2163.85  391.16   1-0.28335 0.82647 0.95250-0.33016 0.11158-0.45599
  -6 -10   4  780.94  283.55   1-0.41196-0.17526-0.57595-0.07656-0.70608 0.98153
   6  10  -4 1167.98  260.10   1-0.28457 0.87122 0.95195-0.29984 0.11312-0.38866
  -7  11   1  292.73  248.78   1-0.76035 0.52009 0.21799 0.65935 0.61182-0.54291
  -7  11   0 3832.67  559.06   1-0.76046 0.47699 0.21698 0.63077 0.61205-0.61205
  -7  11  -1 1265.51  269.62   1-0.75954 0.43285 0.22531 0.59285 0.61017-0.67908
  -7  11  -2 6627.57  796.48   1-0.75740 0.38768 0.24363 0.54478 0.60578-0.74357
  -7  11  -3 7053.68  828.52   1-0.75323 0.34030 0.27301 0.48581 0.59841-0.80509
   7 -11   3 5951.04  691.97   1-0.41862 0.83159-0.84105 0.08266-0.34259 0.54920
  -7  11  -4  896.26  297.23   1-0.74608 0.28992 0.31446 0.41476 0.58692-0.86250
   7 -11   4  572.80  247.09   1-0.36651 0.82269-0.89052 0.16176-0.26951 0.54498
  -7  10   3 6698.49  848.08   1-0.76503 0.58460 0.16307 0.69639 0.62299-0.41626
  -7  10   214224.77 1113.07   1-0.76599 0.54234 0.14612 0.68375 0.62602-0.48820
  -7  10   1 3329.59  511.91   1-0.76636 0.49950 0.13802 0.66225 0.62740-0.55849
  -7  10   0  821.68  286.62   1-0.76630 0.45622 0.13940 0.63127 0.62717-0.62717
  -7  10  -1 6151.65  761.65   1-0.76573 0.41244 0.15105 0.59004 0.62516-0.69407
  -7  10  -2 5351.79  698.84   1-0.76430 0.36780 0.17392 0.53757 0.62095-0.75877
  -7  10  -3 4550.04  578.71   1-0.76127 0.32155 0.20923 0.47267 0.61374-0.82047
   7 -10   3 3595.93  470.43   1-0.39634 0.83592-0.86381 0.18244-0.31103 0.51763
  -7  10  -4  998.33  303.39   1-0.75542 0.27267 0.25826 0.39391 0.60219-0.87777
   7 -10   4 1285.53  263.65   1-0.33886 0.82165-0.91185 0.26013-0.23170 0.50717
   7 -10   5  749.52  228.20   1-0.27881 0.80494-0.94838 0.32649-0.15106 0.49544
   7 -10   611211.82 1601.46   1-0.21769 0.78700-0.97336 0.38112-0.07188 0.48514
  -7   9   5 2939.39  400.86   1-0.76657 0.64596 0.13289 0.70868 0.62825-0.28370
  -7   9   4 4196.09  618.01   1-0.76742 0.60360 0.09947 0.71252 0.63337-0.35773
  -7   9   3  448.41  347.62   1-0.76749 0.56045 0.07458 0.70781 0.63670-0.42997
  -7   9   213560.79 1065.21   1-0.76728 0.51703 0.05863 0.69416 0.63862-0.50080
  -7   9   126739.74 1567.43   1-0.76714 0.47368 0.05222 0.67098 0.63934-0.57043
  -7   9   0  742.05  334.44   1-0.76723 0.43055 0.05611 0.63750 0.63891-0.63891
  -7   9  -111877.15  668.83   1-0.76746 0.38757 0.07130 0.59272 0.63711-0.70602
  -7   9  -2 2050.23  342.57   1-0.76743 0.34432 0.09906 0.53536 0.63342-0.77124
   7  -9   2 1631.17  300.60   1-0.42550 0.84847-0.83350 0.19952-0.35244 0.49018
  -7   9  -3 5957.84  467.47   1-0.76623 0.29991 0.14103 0.46380 0.62689-0.83362
   7  -9   3 5239.52  392.81   1-0.36572 0.83191-0.89117 0.28683-0.26842 0.47502
  -7   9  -4 4678.38  593.52   1-0.76223 0.25270 0.19926 0.37597 0.61586-0.89150
   7  -9   4 3890.10  498.54   1-0.30275 0.81215-0.93529 0.36059-0.18320 0.45867
  -7   9  -5 1437.53  358.03   1-0.75273 0.20016 0.27625 0.26927 0.59755-0.94203
   7  -9   5 1258.51  319.09   1-0.23863 0.79133-0.96607 0.42119-0.09875 0.44314
   7  -9   610099.46 1420.73   1-0.17488 0.77078-0.98442 0.46920-0.01771 0.43097
  -7   8   6 1690.72  396.16   1-0.27838 0.17412-0.02479 0.81874 0.96014-0.54711
  -7   8   6 3042.27  520.54   1-0.76752 0.66352 0.07983 0.71427 0.63603-0.22257
  -7   8   5  781.82  206.18   1-0.26550 0.11804-0.01142 0.77579 0.96404-0.61984
  -7   8   5 1128.16  374.42   1-0.76670 0.61949 0.03760 0.72691 0.64089-0.29635
  -7   8   4 4155.19  673.00   1-0.23653 0.04587 0.01830 0.71648 0.97145-0.69609
  -7   8   4 5308.00  679.84   1-0.76507 0.57465 0.00407 0.73084 0.64393-0.36829
  -7   8   3  728.32  201.15   1-0.76332 0.52969-0.02043 0.72576 0.64568-0.43895
  -7   8   2  548.24  256.36   1-0.76165 0.48439-0.03586 0.71133 0.64699-0.50927
  -7   8   119467.10  935.33   1-0.76120 0.44075-0.04059 0.68644 0.64724-0.57838
  -7   8   023839.50 1092.63   1-0.76181 0.39816-0.03414 0.65037 0.64689-0.64689
  -7   8  -1 8136.47  454.08   1-0.76376 0.35727-0.01489 0.60185 0.64532-0.71423
  -7   8  -228414.24 1285.83   1-0.76586 0.31615 0.01814 0.53921 0.64274-0.78056
   7  -8   223399.29 1044.85   1-0.39159 0.84117-0.86834 0.31139-0.30436 0.44210
  -7   8  -3 5118.28  636.60   1-0.76742 0.27450 0.06754 0.46022 0.63756-0.84429
   7  -8   3 4539.67  561.57   1-0.32492 0.81772-0.92146 0.39415-0.21287 0.41947
   7  -8   4 1159.89  270.45   1-0.25697 0.79307-0.95862 0.46110-0.12250 0.39801
  -7   8  -5  587.10  202.68   1-0.75917 0.17982 0.22859 0.23998 0.60942-0.95397
   7  -8   5  -25.92  130.31   1-0.18979 0.76908-0.98114 0.51328-0.03646 0.38085
   7  -8   6 1486.60  353.00   1-0.12490 0.74717-0.99117 0.55287 0.04435 0.36886
   7  -8   713462.09 1843.34   1-0.06253 0.72801-0.99079 0.58215 0.12003 0.36205
  -7   7   7  675.02  209.46   1-0.35572 0.26807-0.10719 0.85365 0.92842-0.44655
  -7   7   7  751.60  248.84   1-0.76641 0.67903 0.03001 0.71661 0.64164-0.15928
  -7   7   611017.22  695.18   1-0.35844 0.22759-0.11016 0.82704 0.92702-0.51399
  -7   7   614412.97  921.72   1-0.76322 0.63263-0.02174 0.73878 0.64577-0.23231
  -7   7   5 5672.62  602.78   1-0.35200 0.17796-0.10314 0.79045 0.93029-0.58610
  -7   7   5 7524.81  589.38   1-0.75860 0.58441-0.06505 0.75235 0.64829-0.30400
  -7   7   4  455.99  156.16   1-0.33112 0.11388-0.08057 0.73830 0.94013-0.66478
  -7   7   4   27.20  242.23   1-0.75427 0.53687-0.09870 0.75639 0.64910-0.37367
  -7   7   3 2901.80  344.95   1-0.28420 0.02376-0.03086 0.65901 0.95826-0.75175
  -7   7   3 3813.89  346.32   1-0.75060 0.49001-0.12289 0.75096 0.64921-0.44264
  -7   7   2 2433.73  227.19   1-0.18030-0.12360 0.07502 0.52344 0.98074-0.84304
  -7   7   2 2611.50  336.68   1-0.74825 0.44446-0.13703 0.73547 0.64910-0.51139
  -7   7   122222.10  986.43   1-0.74769 0.40071-0.14025 0.70907 0.64906-0.58020
  -7   7   094741.82 3638.54   1-0.74921 0.35903-0.13137 0.67057 0.64916-0.64916
  -7   7  -1  270.12  216.09   1-0.75280 0.31942-0.10877 0.61835 0.64919-0.71805
   7  -7   1  100.69  107.76   1-0.41657 0.84955-0.84326 0.33370-0.33966 0.40853
  -7   7  -238107.75 1545.30   1-0.75799 0.28142-0.07023 0.55019 0.64846-0.78618
   7  -7   229987.30 1195.28   1-0.34509 0.82129-0.90731 0.42739-0.24017 0.37790
  -7   7  -313128.27  675.64   1-0.76394 0.24442-0.01248 0.46318 0.64516-0.85188
   7  -7   310981.59 1013.35   1-0.27215 0.79165-0.95166 0.50151-0.14232 0.34895
  -7   7  -4 6491.85  388.84   1-0.76743 0.20470 0.06847 0.35263 0.63745-0.91309
   7  -7   4 4420.17  885.56   1-0.20065 0.76333-0.97837 0.55787-0.05020 0.32571
   7  -7   5 2204.82  462.15   1-0.13222 0.73809-0.99059 0.59974 0.03531 0.30907
   7  -7   6   88.50  130.10   1-0.06772 0.71662-0.99119 0.62992 0.11381 0.29940
   7  -7   7 3810.58  776.42   1-0.00689 0.69901-0.98252 0.65092 0.18598 0.29611
  -7   6   818437.01 1998.63   1-0.76370 0.69294-0.01566 0.71482 0.64537-0.09409
  -7   6   712712.70  789.19   1-0.43050 0.31627-0.19043 0.86001 0.88227-0.40043
  -7   6   713413.51  872.23   1-0.75700 0.64267-0.07826 0.74778 0.64869-0.16669
  -7   6   6 6869.04  481.73   1-0.43927 0.28184-0.20053 0.84053 0.87568-0.46268
  -7   6   6 6332.81  514.46   1-0.74929 0.59176-0.13088 0.77078 0.64917-0.23602
  -7   6   516707.63  759.17   1-0.44116 0.24053-0.20272 0.81313 0.87423-0.53005
  -7   6   520843.15 1034.00   1-0.74129 0.54056-0.17422 0.78449 0.64817-0.30388
  -7   6   410437.90  746.17   1-0.43205 0.18822-0.19221 0.77304 0.88112-0.60578
  -7   6   412072.65  934.16   1-0.73398 0.49005-0.20810 0.78876 0.64649-0.37107
  -7   6   3 5036.12  281.30   1-0.40212 0.11508-0.15819 0.70943 0.90181-0.69531
  -7   6   3 5847.93  583.33   1-0.72822 0.44110-0.23213 0.78317 0.64482-0.43825
  -7   6   2  511.67   74.96   1-0.31988-0.01032-0.06854 0.59005 0.94497-0.80729
  -7   6   2  660.85  295.71   1-0.72477 0.39445-0.24563 0.76705 0.64371-0.50599
  -7   6   1  277.92  201.99   1-0.72425 0.35074-0.24761 0.73940 0.64353-0.57468
  -7   6   094411.56 2399.44   1-0.72709 0.31038-0.23662 0.69879 0.64447-0.64447
  -7   6  -183154.54 2148.44   1-0.73339 0.27349-0.21063 0.64318 0.64634-0.71520
   7  -6   170703.67 1776.90   1-0.36282 0.82241-0.89354 0.46101-0.26443 0.33330
  -7   6  -2 7142.09  590.52   1-0.74278 0.23968-0.16673 0.56966 0.64843-0.78615
   7  -6   2 5794.25  715.82   1-0.28322 0.78611-0.94613 0.54334-0.15686 0.29461
  -7   6  -321278.99  922.44   1-0.75399 0.20769-0.10065 0.47396 0.64912-0.85569
   7  -6   316264.85  467.28   1-0.20620 0.75227-0.97683 0.60369-0.05724 0.26387
  -7   6  -410645.08  889.98   1-0.76442 0.17510-0.00574 0.34978 0.64468-0.92032
   7  -6   4 9128.29 1342.12   1-0.13379 0.72305-0.99044 0.64696 0.03338 0.24212
   7  -6   5 5101.30  618.79   1-0.06676 0.69910-0.99112 0.67722 0.11496 0.22938
   7  -6   6  103.46  118.14   1-0.00463 0.68017-0.98203 0.69780 0.18863 0.22458
   7  -6   7  344.86  169.18   1 0.05321 0.66596-0.96537 0.71061 0.25536 0.22696
  -7   5   9   12.69  150.51   1-0.46407 0.40968-0.22948 0.88116 0.85554-0.23604
  -7   5   9  340.40  234.26   1-0.75952 0.70505-0.05685 0.70858 0.64798-0.02826
  -7   5   8 4589.95  571.26   1-0.48496 0.38736-0.25433 0.87642 0.83673-0.28605
  -7   5   727202.81 1551.18   1-0.50325 0.36245-0.27649 0.86899 0.81870-0.33686
  -7   5   731336.37 1806.38   1-0.73738 0.59651-0.19289 0.78538 0.64734-0.16534
  -7   5   6  206.73  119.09   1-0.51848 0.33447-0.29523 0.85814 0.80250-0.38949
  -7   5   6  309.73  234.34   1-0.72461 0.54055-0.24624 0.80911 0.64365-0.23051
  -7   5   530370.13 1205.84   1-0.52966 0.30220-0.30910 0.84270 0.78987-0.44555
  -7   5   534466.74 1407.52   1-0.71239 0.48519-0.29005 0.82323 0.63903-0.29474
  -7   5   416899.60  505.46   1-0.53489 0.26424-0.31569 0.81965 0.78372-0.50826
  -7   5   418817.40  653.48   1-0.70168 0.43128-0.32409 0.82767 0.63451-0.35907
  -7   5   325537.94  673.64   1-0.52911 0.21527-0.30841 0.78274 0.79051-0.58392
  -7   5   331345.96  922.74   1-0.69352 0.37993-0.34800 0.82199 0.63080-0.42422
  -7   5   2 3476.97  436.65   1-0.49522 0.13839-0.26671 0.71128 0.82681-0.68914
   7  -5  -2 3202.17  399.50   1-0.53730 0.89434-0.65311 0.20845-0.53360 0.39583
  -7   5   2 4146.57  563.49   1-0.68884 0.33205-0.36106 0.80547 0.62858-0.49086
  -7   5   1 2357.74  293.01   1 0.00412-0.40426 0.24934 0.16545 0.96840-0.89955
  -7   5   1 2589.43  318.91   1-0.25246-0.14754 0.00201 0.41285 0.96760-0.89876
  -7   5   1 3377.07  475.74   1-0.68844 0.28845-0.36217 0.77699 0.62839-0.55953
  -7   5   013772.42  882.01   1-0.69294 0.24975-0.34965 0.73488 0.63052-0.63052
   7  -5   011740.37  708.60   1-0.37731 0.82030-0.88131 0.49617-0.28445 0.28445
  -7   5  -165296.21 1692.05   1-0.70269 0.21631-0.32101 0.67664 0.63495-0.70381
   7  -5   159946.71 1571.73   1-0.28843 0.77471-0.94339 0.58796-0.16373 0.23260
  -7   5  -219034.40 1373.20   1-0.71742 0.18779-0.27259 0.59849 0.64108-0.77880
   7  -5   216239.27 1186.16   1-0.20424 0.73371-0.97738 0.65160-0.05476 0.19251
  -7   5  -3 2951.96  287.68   1-0.73619 0.16336-0.19830 0.49458 0.64706-0.85363
   7  -5   3 2241.94  271.99   1-0.12738 0.69994-0.99099 0.69480 0.04131 0.16529
  -7   5  -417883.36  813.08   1-0.75569 0.13967-0.08837 0.35503 0.64893-0.92436
   7  -5   416276.07  763.65   1-0.05774 0.67351-0.99037 0.72385 0.12576 0.14971
   7  -5   5 6384.61  831.96   1 0.00525 0.65371-0.97974 0.74288 0.20019 0.14415
   7  -5   6  799.78  284.55   1 0.06290 0.63967-0.96180 0.75445 0.26641 0.14701
  -7   4  10  257.96  196.30   1-0.49995 0.46218-0.27246 0.87664 0.82207-0.13373
  -7   4  10  244.48  148.70   1-0.75533 0.71752-0.09108 0.69540 0.64898 0.03958
  -7   4   9  284.19  162.20   1-0.52532 0.44407-0.30367 0.87871 0.79486-0.17508
  -7   4   9  359.00  185.14   1-0.74091 0.65991-0.17610 0.75080 0.64810-0.02838
  -7   4   8 2932.92  308.82   1-0.54921 0.42477-0.33395 0.87936 0.76605-0.21513
  -7   4   8 3047.25  360.31   1-0.72363 0.59943-0.24998 0.79506 0.64332-0.09246
  -7   4   728050.89 1242.13   1-0.57155 0.40392-0.36310 0.87888 0.73584-0.25379
  -7   4   733525.83 1513.45   1-0.70508 0.53770-0.31364 0.82895 0.63599-0.15398
  -7   4   637922.27 1495.14   1-0.59240 0.38157-0.39115 0.87729 0.70431-0.29112
  -7   4   643320.00 1743.83   1-0.68659 0.47601-0.36719 0.85291 0.62749-0.21435
  -7   4   5 6857.19  371.25   1-0.61178 0.35776-0.41811 0.87462 0.67149-0.32717
  -7   4   5 7605.32  461.91   1-0.66944 0.41567-0.41095 0.86708 0.61883-0.27454
  -7   4   476284.15 2805.22   1-0.62970 0.33249-0.44399 0.87086 0.63744-0.36198
  -7   4   485476.68 3192.89   1-0.65481 0.35784-0.44486 0.87140 0.61098-0.33555
  -7   4   349933.00 1202.05   1-0.64576 0.30530-0.46856 0.86590 0.60285-0.39623
   7  -4  -344750.62 1065.53   1-0.59166 0.93208-0.67997 0.28275-0.43308 0.22642
  -7   4   356640.17 1461.51   1-0.64385 0.30368-0.46856 0.86551 0.60488-0.39831
  -7   4   2  436.25   61.79   1-0.66062 0.27696-0.49194 0.85963 0.56706-0.42931
   7  -4  -2  444.22   61.39   1-0.41290 0.79657-0.57659 0.20892-0.70501 0.56728
  -7   4   2 1055.72  293.83   1-0.63767 0.25430-0.48137 0.84873 0.60137-0.46365
  -7   4   1 4290.56  369.35   1-0.00546-0.42123 0.24067 0.09708 0.97059-0.90173
  -7   4   1 4763.38  389.67   1-0.67354 0.24668-0.51331 0.85136 0.53182-0.46295
  -7   4   1 6091.75  600.76   1-0.63730 0.21073-0.48213 0.81990 0.60115-0.53229
   7  -4  -1 5097.49  433.49   1-0.38688 0.81326-0.87272 0.53497-0.29777 0.22890
  -7   4   0 3609.68  358.14   1-0.64365 0.17388-0.46900 0.77718 0.60477-0.60477
   7  -4   0 3584.13  521.95   1-0.28433 0.75401-0.94556 0.63749-0.15832 0.15832
  -7   4  -126653.79  969.14   1-0.70295 0.18971-0.56830 0.84704 0.42764-0.49651
  -7   4  -127908.27 1014.48   1-0.70730 0.19401-0.70212 0.98091-0.08203 0.01314
  -7   4  -131540.87 1240.39   1-0.65741 0.14444-0.43905 0.71764 0.61240-0.68126
   7  -4   128730.59 1143.08   1-0.19080 0.70366-0.98090 0.70248-0.03773 0.10661
  -7   4  -257103.21 1385.28   1-0.46696-0.08951-0.61179 0.86095-0.63847 0.50074
  -7   4  -263773.36 1640.17   1-0.67883 0.12267-0.38760 0.63660 0.62365-0.76137
   7  -4   257455.24 1521.15   1-0.10901 0.66499-0.99198 0.74317 0.06382 0.07391
  -7   4  -3 3362.02  137.88   1-0.24803-0.35169-0.45592 0.67540-0.85475 0.64817
  -7   4  -3 4082.34  359.72   1-0.70726 0.10790-0.30677 0.52618 0.63692-0.84349
   7  -4   3 3408.46  401.88   1-0.03767 0.63687-0.98801 0.76886 0.14968 0.05692
  -7   4  -410677.26  872.62   1-0.73970 0.09714-0.18198 0.37161 0.64785-0.92328
   7  -4   4 8845.00 1307.90   1 0.02506 0.61733-0.97444 0.78495 0.22320 0.05227
   7  -4   538234.76 2161.84   1 0.08132 0.60465-0.95437 0.79443 0.28731 0.05720
   7  -4   6 1841.12  306.22   1 0.13225 0.59697-0.92952 0.79926 0.34422 0.06920
   7  -4   7 1730.52  306.12   1 0.17915 0.59332-0.90083 0.80026 0.39547 0.08684
  -7   3  10 1190.94  241.25   1-0.55482 0.49020-0.34119 0.86878 0.75878-0.07014
  -7   3  10 2490.10  389.29   1-0.73219 0.66786-0.21577 0.74306 0.64601 0.04256
  -7   3   9 2823.86  411.43   1-0.58179 0.47398-0.37676 0.87472 0.72080-0.10102
  -7   3   9 3530.60  488.18   1-0.70897 0.60140-0.30129 0.79874 0.63763-0.01791
  -7   3   8  201.52  129.54   1-0.60753 0.45652-0.41211 0.88044 0.67901-0.12810
  -7   3   8  257.74  195.69   1-0.68369 0.53293-0.37495 0.84280 0.62607-0.07521
  -7   3   736796.53 1476.13   1-0.63217 0.43797-0.44762 0.88631 0.63244-0.15039
  -7   3   739579.45 1591.75   1-0.65792 0.46396-0.43789 0.87616 0.61268-0.13067
  -7   3   689873.15 2248.73   1-0.65553 0.41811-0.48381 0.89298 0.57982-0.16659
  -7   3   6100912.6 2548.13   1-0.63307 0.39591-0.49066 0.89934 0.59872-0.18557
  -7   3   5 1208.55  199.23   1-0.67829 0.39767-0.52148 0.90101 0.51766-0.17330
  -7   3   5  974.56  229.07   1-0.61012 0.32969-0.53344 0.91267 0.58582-0.24151
  -7   3   414276.69 1171.88   1-0.69995 0.37614-0.56178 0.91166 0.44098-0.16549
  -7   3   415294.17 1904.75   1-0.59111 0.26747-0.56648 0.91609 0.57417-0.29872
  -7   3   3 1813.48  162.73   1-0.71915 0.35215-0.60625 0.92645 0.33951-0.13289
   7  -3  -3 1822.67  142.23   1-0.50242 0.86948-0.63330 0.31310-0.58863 0.38204
  -7   3   3 1671.14  208.80   1-0.57697 0.21012-0.58951 0.90948 0.56530-0.35872
  -7   3   267333.46 1620.82   1-0.73087 0.32067-0.65510 0.94566 0.19147-0.05372
   7  -3  -265602.50 1566.65   1-0.29150 0.70172-0.48946 0.19885-0.82185 0.68413
  -7   3   265451.89 1653.70   1-0.56900 0.15894-0.60196 0.89230 0.56024-0.42251
   7  -3  -270312.92 1686.39   1-0.38746 0.79725-0.87219 0.58182-0.29858 0.16085
  -7   3   1 4148.52  375.88   1-0.03627-0.41699 0.21252 0.04819 0.97648-0.90763
  -7   3   1 5813.20  360.42   1-0.71477 0.26137-0.69827 0.95921-0.03875 0.10763
  -7   3   1 6029.92  425.60   1-0.56848 0.11520-0.60275 0.86347 0.55991-0.49104
   7  -3  -1 5897.88  374.31   1-0.26310 0.71617-0.95590 0.69519-0.13049 0.06161
  -7   3   0  176.34   35.35   1-0.34805-0.14831-0.09884 0.33002 0.93224-0.93224
  -7   3   0   80.58   53.84   1-0.62490 0.12824-0.69321 0.92445-0.35908 0.35908
  -7   3   0  321.33  156.10   1-0.57665 0.08016-0.59001 0.82111 0.56510-0.56510
   7  -3   0  141.64   52.89   1-0.15783 0.65409-0.98745 0.75640 0.00359-0.00359
  -7   3  -1 2585.74  336.63   1-0.45381-0.08605-0.60347 0.80516-0.65564 0.58677
  -7   3  -1 2806.29  386.01   1-0.59463 0.05492-0.56054 0.76201 0.57636-0.64522
   7  -3   1 2978.73  470.06   1-0.07236 0.61177-0.99148 0.79004 0.10823-0.03936
  -7   3  -268518.37 1681.84   1-0.27785-0.30524-0.47904 0.65106-0.83265 0.69493
  -7   3  -271926.85 1814.43   1-0.62349 0.04075-0.50938 0.68133 0.59311-0.73083
   7  -3   270600.14 1771.96   1-0.00181 0.58443-0.98140 0.80962 0.19193-0.05419
   7  -3   323948.08  940.71   1 0.14563 0.48026 0.37247-0.51491 0.91654-0.71007
  -7   3  -321636.60  878.08   1-0.66321 0.03728-0.42573 0.56810 0.61553-0.82211
   7  -3   321562.28  909.42   1 0.05826 0.56786-0.96354 0.82132 0.26112-0.05441
   7  -3   4 2519.77  474.90   1 0.05907 0.61002 0.29834-0.41119 0.95262-0.67734
   7  -3   4 3157.23  356.73   1 0.11079 0.55857-0.94077 0.82824 0.32040-0.04478
   7  -3   524459.00 1416.72   1 0.15800 0.55462-0.91448 0.83162 0.37250-0.02798
  -7   2  11 8819.86 1027.35   1-0.57581 0.52782-0.36876 0.84889 0.72969 0.02781
  -7   2  1022772.89 1359.10   1-0.60440 0.51322-0.40774 0.85824 0.68442 0.00422
  -7   2  1021461.93 1278.58   1-0.69448 0.60353-0.34527 0.79526 0.63124 0.05733
  -7   2   9 6959.34  444.97   1-0.63152 0.49715-0.44668 0.86755 0.63375-0.01397
  -7   2   9 7598.77  469.95   1-0.66179 0.52764-0.42904 0.84944 0.61477 0.00494
  -7   2   8 3568.15  252.66   1-0.65685 0.47928-0.48591 0.87728 0.57656-0.02557
  -7   2   8 4692.52  325.74   1-0.62794 0.45060-0.50078 0.89159 0.59573-0.04487
  -7   2   7 6649.65  530.82   1-0.68074 0.45997-0.52577 0.88749 0.51005-0.02794
  -7   2   7 7713.92  640.56   1-0.59415 0.37360-0.56136 0.92281 0.57606-0.09402
  -7   2   6  625.84  217.57   1-0.70229 0.43833-0.56656 0.89863 0.43103-0.01779
  -7   2   6 1041.79  335.46   1-0.56260 0.29883-0.61171 0.94353 0.55613-0.14296
  -7   2   5127701.4 3015.52   1-0.71992 0.41276-0.60839 0.91077 0.33402 0.01034
  -7   2   5133288.5 3193.08   1-0.53433 0.22735-0.65222 0.95442 0.53766-0.19335
  -7   2   433030.55  862.59   1-0.73039 0.38003-0.64991 0.92265 0.21010 0.06539
  -7   2   433189.44  965.89   1-0.51075 0.16056-0.68319 0.95576 0.52189-0.24644
  -7   2   313944.81  839.87   1-0.72542 0.33185-0.68666 0.92978 0.04738 0.15925
  -7   2   314005.04  882.51   1-0.49329 0.09988-0.70466 0.94760 0.51001-0.30342
   7  -2  -315504.51  908.12   1-0.36584 0.75903-0.89107 0.64809-0.26859 0.06199
  -7   2   272714.90 1755.11   1-0.68913 0.25230-0.70563 0.91911-0.16482 0.30259
   7  -2  -271179.22 1704.06   1-0.18899 0.62580-0.40872 0.19522-0.89287 0.75515
  -7   2   270986.43 1787.51   1-0.48338 0.04676-0.71632 0.92964 0.50320-0.36547
   7  -2  -272184.79 1718.47   1-0.20243 0.63890-0.97788 0.76454-0.05246-0.08528
  -7   2   1 3334.72  314.21   1-0.06982-0.41000 0.18136 0.00231 0.98093-0.91208
  -7   2   1 4540.69  298.73   1-0.60131 0.12128-0.68411 0.86791-0.41279 0.48168
  -7   2   1 4186.42  323.12   1-0.48250 0.00266-0.71734 0.90103 0.50259-0.43373
   7  -2  -1 5152.74  507.82   1-0.08707 0.56671-0.99208 0.80835 0.09048-0.15935
  -7   2   0 1371.55  226.39   1-0.29734-0.22560-0.04465 0.19877 0.95372-0.95372
  -7   2   0 1734.30  182.33   1-0.46412-0.05913-0.61001 0.76422-0.64223 0.64223
  -7   2   0 2178.28  254.00   1-0.49216-0.03088-0.70600 0.86006 0.50924-0.50924
   7  -2   0 1858.02  271.68   1-0.00529 0.52814-0.98218 0.82811 0.18785-0.18785
  -7   2  -1 2203.48  302.50   1-0.31514-0.25132-0.50722 0.63179-0.80212 0.73326
  -7   2  -1 2012.55  309.85   1-0.51395-0.05230-0.67912 0.80356 0.52405-0.59291
   7  -2   1 2160.03  408.78   1 0.05744 0.50883-0.96384 0.83934 0.26018-0.19128
  -7   2  -213864.06  612.74   1-0.18999-0.41970-0.40954 0.50445-0.89228 0.75456
  -7   2  -214591.62  472.82   1-0.54957-0.05990-0.63087 0.72568 0.54769-0.68541
   7  -2   213892.58  624.81   1 0.10921 0.50031-0.94156 0.84675 0.31862-0.18082
   7  -2   327387.72 1194.36   1 0.09875 0.55371 0.33276-0.39813 0.93782-0.73136
  -7   2  -327766.38 1100.18   1-0.60084-0.05184-0.54988 0.61506 0.58018-0.78676
   7  -2   326438.84 1069.76   1 0.15423 0.49853-0.91678 0.85165 0.36839-0.16168
   7  -2   4 4621.53  805.32   1 0.03799 0.65767 0.27976-0.31553 0.95931-0.68403
   7  -2   5 1345.05  313.49   1 0.00023 0.73863 0.24595-0.25214 0.96928-0.62517
  -7   1  11 5816.48  788.01   1-0.61962 0.54506-0.42930 0.83235 0.65708 0.10042
  -7   1  11 6249.84  827.94   1-0.68139 0.60706-0.38099 0.78352 0.62493 0.13249
  -7   1  1012357.48  802.08   1-0.64690 0.52917-0.47032 0.84388 0.60025 0.08846
  -7   1  1013172.13  800.23   1-0.64081 0.52329-0.47491 0.84786 0.60316 0.08541
  -7   1   9 1044.74  261.46   1-0.67232 0.51140-0.51125 0.85517 0.53534 0.08451
  -7   1   9 1250.03  233.23   1-0.59809 0.43741-0.55464 0.89831 0.57849 0.04126
  -7   1   8  531.14  170.44   1-0.69508 0.49096-0.55218 0.86645 0.46037 0.09060
  -7   1   8  939.91  286.77   1-0.55564 0.35175-0.62204 0.93609 0.55164-0.00074
  -7   1   716761.22  544.42   1-0.71399 0.46668-0.59299 0.87756 0.37223 0.10988
  -7   1   718727.93  636.79   1-0.51470 0.26759-0.67817 0.96259 0.52455-0.04251
  -7   1   6 2535.77  297.52   1-0.72723 0.43671-0.63259 0.88752 0.26637 0.14687
  -7   1   6 2808.97  309.53   1-0.47673 0.18641-0.72395 0.97875 0.49860-0.08543
   7  -1  -6 2521.95  271.26   1 0.03834 0.25190-0.97037 0.71537 0.23853-0.65175
  -7   1   5104968.6 2558.38   1-0.73060 0.39687-0.66887 0.89417 0.13718 0.20722
  -7   1   5103831.5 2560.14   1-0.44278 0.10906-0.76059 0.98543 0.47480-0.13044
   7  -1  -595821.25 2250.08   1 0.10065 0.23276-0.94569 0.72017 0.30906-0.65358
  -7   1   442861.41 1100.42   1-0.71732 0.34038-0.69640 0.89206-0.02172 0.29725
  -7   1   438830.92 1043.77   1-0.41518 0.03825-0.78770 0.98298 0.45512-0.17963
   7  -1  -439417.72  930.35   1-0.22000 0.59667-0.97262 0.77698-0.07483-0.20067
  -7   1   3 5410.54  366.52   1-0.67650 0.25630-0.70535 0.87137-0.21169 0.41835
  -7   1   3 4902.44  362.54   1-0.39492-0.02520-0.80622 0.97193 0.44049-0.23387
   7  -1  -3 6717.67  398.06   1 0.00358 0.41627-0.98014 0.81412 0.19824-0.40485
  -7   1   276246.03 1848.73   1-0.59796 0.13456-0.68270 0.81905-0.41993 0.55771
  -7   1   274586.53 1862.34   1-0.38348-0.07983-0.81618 0.95233 0.43217-0.29443
   7  -1  -283003.19 1965.95   1 0.07237 0.39080-0.95809 0.82162 0.27717-0.41498
  -7   1   124213.96  648.50   1-0.48396-0.02269-0.62228 0.72901-0.61525 0.68412
  -7   1   124961.19  699.07   1-0.38242-0.12409-0.81709 0.92367 0.43139-0.36252
   7  -1  -128078.67  712.00   1 0.11563 0.39079-0.93834 0.83156 0.32578-0.39468
  -7   1   019181.73  529.80   1-0.35560-0.19423-0.53680 0.61391-0.76510 0.76510
  -7   1   017596.05  535.24   1-0.39338-0.15633-0.80758 0.88459 0.43938-0.43938
   7  -1   019982.70  535.99   1 0.15142 0.39825-0.91848 0.84139 0.36530-0.36530
  -7   1  -1 4657.62  607.86   1-0.23826-0.35480-0.44824 0.49570-0.86157 0.79271
  -7   1  -1 4006.74  535.12   1-0.41827-0.17464-0.78477 0.83222 0.45734-0.52622
   7  -1   1 4224.81  555.87   1 0.18402 0.40889-0.89751 0.85010 0.40074-0.33184
   7  -1   2  746.23  120.07   1 0.14506 0.49077 0.37200-0.38989 0.91682-0.77918
  -7   1  -2  681.89  210.56   1-0.45946-0.17665-0.74307 0.76095 0.48654-0.62429
   7  -1   340056.28 1666.61   1 0.07796 0.60106 0.31482-0.30312 0.94594-0.73947
  -7   1  -342773.87 1730.59   1-0.52006-0.15917-0.67124 0.65939 0.52816-0.73475
   7  -1   4 9427.22  949.08   1 0.03279 0.68943 0.27515-0.23386 0.96084-0.68555
   7  -1   5  199.52  137.02   1 0.00492 0.76050 0.25019-0.17931 0.96818-0.62407
   7  -1   6 6002.01 1024.03   1-0.00953 0.81816 0.23710-0.13664 0.97143-0.55851
  -7   0  12 3031.20  458.45   1-0.62924 0.57131-0.44331 0.79890 0.63837 0.18799
  -7   0  11 1771.00  462.47   1-0.65662 0.55555-0.48555 0.81166 0.57713 0.18047
  -7   0  11 1778.28  283.46   1-0.62225 0.52134-0.51174 0.83723 0.59238 0.16505
  -7   0  10 3177.95  424.01   1-0.68156 0.53728-0.52722 0.82368 0.50745 0.18127
  -7   0  10 3630.08  513.72   1-0.57088 0.42685-0.59906 0.89532 0.56143 0.12718
  -7   0   957051.28 2347.28   1-0.70307 0.51560-0.56817 0.83498 0.42763 0.19222
  -7   0   964137.81 5874.07   1-0.51943 0.33219-0.67207 0.93870 0.52773 0.09202
  -7   0   818997.82 1385.34   1-0.71977 0.48909-0.60797 0.84509 0.33511 0.21588
  -7   0   819476.95 1202.39   1-0.46868 0.23795-0.73300 0.96954 0.49298 0.05798
  -7   0   724510.80 1476.40   1-0.72973 0.45585-0.64509 0.85258 0.22657 0.25554
  -7   0   723049.96 1388.56   1-0.42134 0.14741-0.78184 0.98881 0.45954 0.02255
  -7   0   6  884.32  163.58   1-0.72912 0.41202-0.67724 0.85508 0.09855 0.31474
  -7   0   6  681.87  184.41   1-0.37828 0.06115-0.82060 0.99801 0.42837-0.01513
   7   0  -6  601.37   57.25   1-0.34569 0.66246-0.90687 0.72902-0.24098-0.17221
  -7   0   531629.44  857.59   1-0.71265 0.35235-0.69958 0.84778-0.05196 0.39637
  -7   0   4117146.3 2825.29   1-0.67301 0.26944-0.70502 0.82356-0.22359 0.49913
  -7   0   3 3670.49  297.68   1-0.60433 0.15756-0.68536 0.77427-0.40626 0.61292
  -7   0   228146.57  748.23   1-0.50801 0.01796-0.63657 0.69583-0.58025 0.71798
   7   0  -230698.10  830.36   1 0.27712 0.21282 0.89402-0.95331-0.35201 0.21425
  -7   0   1148418.3 3538.96   1-0.39669-0.13655-0.56554 0.59517-0.72304 0.79190
   7   0  -1160425.9 3826.25   1 0.27618 0.25693 0.89460-0.92424-0.35129 0.28241
  -7   0   1128345.0 3035.43   1-0.35446-0.17836-0.90020 0.92984-0.25295 0.32182
  -7   0   019020.21 1124.93   1-0.28821-0.28821-0.48696 0.48696-0.82449 0.82449
  -7   0  -1 2132.25  200.13   1-0.19577-0.42388-0.41423 0.38459-0.88886 0.82000
   7   0   2  933.33  154.82   1 0.12389 0.53850 0.35419-0.29501 0.92692-0.78928
   7   0   311965.71  978.90   1 0.07221 0.63339 0.30982-0.22105 0.94804-0.74158
   7   0   427207.44 1900.02   1 0.03747 0.71132 0.27930-0.16094 0.95947-0.68418
   7   0   5 3315.15  880.69   1 0.01649 0.77551 0.26059-0.11264 0.96530-0.62120
  -7  -1  1216465.96 1197.21   1-0.66199 0.57757-0.49417 0.77282 0.56351 0.26295
  -7  -1  1117414.21 1268.54   1-0.68656 0.55893-0.53619 0.78520 0.49105 0.26654
  -7  -1  1131539.79 2200.98   1-0.54763 0.42027-0.63364 0.88251 0.54642 0.21105
  -7  -1  10 8134.33  715.02   1-0.70715 0.53633-0.57687 0.79624 0.40882 0.27990
  -7  -1  10 9870.35  848.17   1-0.48755 0.31697-0.71146 0.93070 0.50607 0.18255
  -7  -1   949553.16 1968.27   1-0.72239 0.50836-0.61564 0.80531 0.31484 0.30503
  -7  -1   954791.91 2162.52   1-0.42810 0.21396-0.77529 0.96438 0.46437 0.15547
  -7  -1   878960.90 2046.42   1-0.73049 0.47325-0.65085 0.81088 0.20677 0.34422
  -7  -1   887436.25 2232.69   1-0.37219 0.11485-0.82569 0.98522 0.42391 0.12706
  -7  -1   7 3163.76  455.53   1-0.72817 0.42771-0.68039 0.81077 0.08254 0.39963
  -7  -1   6 8772.56  756.48   1-0.71145 0.36778-0.70024 0.80097-0.05911 0.47241
   7   1  -6 8708.88  757.93   1 0.27564 0.06818 0.89492-0.99571-0.35088-0.06238
  -7  -1   529375.38  816.47   1-0.67521 0.28827-0.70524 0.77632-0.21612 0.56055
   7   1  -526163.76  732.24   1 0.23640 0.15058 0.91716-0.98831-0.32080-0.02358
  -7  -1   4116494.0 2820.01   1-0.61572 0.18558-0.68986 0.73132-0.38074 0.65629
   7   1  -4115094.2 2782.03   1 0.20529 0.22485 0.93265-0.97416-0.29666 0.02115
  -7  -1   350180.75 1279.23   1-0.53374 0.06038-0.65118 0.66301-0.53950 0.74616
   7   1  -349621.84 1258.04   1 0.18347 0.28983 0.94242-0.95429-0.27959 0.07296
  -7  -1   211439.62  729.84   1-0.43692-0.07971-0.59255 0.57471-0.67673 0.81446
   7   1  -211520.74  717.06   1 0.17212 0.34434 0.94715-0.92938-0.27067 0.13291
  -7  -1   2 9918.30  590.11   1-0.28802-0.22819-0.94352 0.92578-0.16368 0.30142
  -7  -1   139619.49 1027.48   1-0.33789-0.22191-0.52399 0.47653-0.78182 0.85068
   7   1  -141305.26 1062.64   1 0.17248 0.38715 0.94701-0.89959-0.27095 0.20207
  -7  -1   0137473.3 3367.69   1-0.24813-0.35489-0.45601 0.37890-0.85468 0.85468
   7   1   0139801.8 3433.26   1 0.18599 0.41680 0.94134-0.86428-0.28157 0.28157
  -7  -1  -114332.08 1055.80   1-0.17407-0.47218-0.39650 0.28975-0.90137 0.83251
   7   1   117844.51 1273.20   1 0.21454 0.43141 0.92824-0.82154-0.30386 0.37274
   7   1   2  354.24  190.68   1 0.11701 0.57195 0.34836-0.21212 0.93002-0.79238
   7   1   2  221.94   87.25   1 0.26093 0.42817 0.90362-0.76729-0.33966 0.47741
   7   1   3 7451.80 1119.05   1 0.07609 0.65607 0.31320-0.14737 0.94663-0.74016
   7   1   4 2241.07  467.49   1 0.04884 0.72652 0.28935-0.09393 0.95597-0.68069
   7   1   5 1094.58  263.57   1 0.03296 0.78559 0.27530-0.05029 0.96079-0.61668
  -7  -2  12 8476.08  682.75   1-0.68848 0.57750-0.53972 0.74128 0.48444 0.34203
  -7  -2  1211144.20  827.26   1-0.52981 0.41910-0.65835 0.85981 0.53466 0.29168
  -7  -2  1135766.36 2048.47   1-0.70866 0.55449-0.58020 0.75211 0.40143 0.35616
  -7  -2  1143374.67 2425.08   1-0.46090 0.30655-0.74152 0.91274 0.48755 0.27003
  -7  -2  10 1103.72  271.21   1-0.72323 0.52583-0.61825 0.76047 0.30772 0.38102
  -7  -2  10 1594.37  233.83   1-0.39434 0.19679-0.80673 0.94839 0.44007 0.24864
  -7  -2   921945.21  986.61   1-0.73064 0.49003-0.65228 0.76485 0.20171 0.41815
  -7  -2   860134.77 1603.53   1-0.72815 0.44432-0.68046 0.76337 0.08220 0.46885
   7   2  -859177.64 1547.51   1 0.27332 0.01070 0.89632-0.97934-0.34912-0.20191
  -7  -2   725064.49 1498.22   1-0.71278 0.38574-0.69951 0.75278-0.05122 0.53339
   7   2  -722124.90 1319.07   1 0.22007 0.10711 0.92552-0.97890-0.30816-0.17398
  -7  -2   6 2146.82  271.14   1-0.68080 0.31049-0.70563 0.72924-0.19643 0.60975
   7   2  -6 2715.44  306.44   1 0.17373 0.19662 0.94650-0.97023-0.27193-0.14133
  -7  -2   5  998.53  194.59   1-0.62967 0.21615-0.69474 0.68871-0.34762 0.69205
   7   2  -5 1413.50  180.23   1 0.13533 0.27817 0.96091-0.95500-0.24152-0.10286
  -7  -2   451688.17 1333.52   1-0.55960 0.10286-0.66477 0.62915-0.49489 0.77044
   7   2  -452414.92 1340.11   1 0.10543 0.35128 0.97012-0.93451-0.21850-0.05718
  -7  -2   352288.00 1321.96   1-0.47542-0.02460-0.61705 0.55173-0.62706 0.83365
   7   2  -353444.72 1363.57   1 0.08574 0.41418 0.97549-0.91018-0.20264-0.00412
  -7  -2   343531.03 1017.97   1-0.17706-0.32253-0.98398 0.91891-0.02044 0.22707
  -7  -2   229137.56  794.78   1-0.38602-0.15721-0.55816 0.46321-0.73446 0.87218
   7   2  -232581.89  870.75   1 0.07674 0.46638 0.97772-0.88270-0.19535 0.05751
  -7  -2   222706.55  560.64   1-0.10744-0.43552-0.99203 0.89729 0.06573 0.07200
  -7  -2   1 2730.88  413.20   1-0.30066-0.28574-0.49638 0.37182-0.81437 0.88323
   7   2  -1 2840.59  475.48   1 0.07942 0.50690 0.97707-0.85235-0.19752 0.12860
  -7  -2   097079.02 5349.58   1-0.22624-0.40338-0.43872 0.28451-0.86967 0.86967
   7   2   0107580.9 6246.64   1 0.09500 0.53451 0.97304-0.81862-0.21011 0.21011
   7   2   113805.10  637.06   1 0.12531 0.54715 0.96423-0.78048-0.23354 0.30242
   7   2   2 9342.14  508.00   1 0.11961 0.59592 0.35057-0.13726 0.92886-0.79122
   7   2   2 8076.20  812.88   1 0.17273 0.54289 0.94690-0.73351-0.27115 0.40891
   7   2   3  304.71  109.10   1 0.08664 0.67209 0.32234-0.07944 0.94265-0.73618
   7   2   4  794.27  262.25   1 0.06505 0.73688 0.30357-0.03109 0.95058-0.67529
  -7  -3  13    9.17  186.50   1-0.68799 0.59366-0.53881 0.69291 0.48616 0.40918
  -7  -3  12 3694.72  537.37   1-0.70826 0.57073-0.57931 0.70377 0.40343 0.42304
  -7  -3  12 3230.93  410.46   1-0.44208 0.30433-0.76130 0.88508 0.47431 0.35215
  -7  -3  1129794.31 1714.42   1-0.72285 0.54209-0.61705 0.71181 0.31101 0.44660
  -7  -3  1010376.34  910.94   1-0.73046 0.50649-0.65055 0.71567 0.20784 0.48090
  -7  -3   9  327.21  193.99   1-0.72883 0.46163-0.67831 0.71376 0.09322 0.52671
   7   3  -9  634.39  204.42   1 0.23522 0.03216 0.91778-0.95339-0.31989-0.30001
  -7  -3   813905.78  715.53   1-0.71569 0.40529-0.69764 0.70345-0.03279 0.58385
   7   3  -813068.48  620.19   1 0.17627 0.13427 0.94545-0.95141-0.27394-0.27709
  -7  -3   750682.50 1939.68   1-0.68825 0.33456-0.70567 0.68181-0.16832 0.65053
   7   3  -748604.04 1844.06   1 0.12437 0.22933 0.96454-0.94086-0.23279-0.24936
  -7  -3   6 4173.19  578.38   1-0.64464 0.24774-0.69932 0.64582-0.30885 0.72216
   7   3  -6 3768.01  611.33   1 0.07983 0.31702 0.97697-0.92356-0.19786-0.21567
  -7  -3   5  565.53  171.85   1-0.58478 0.14468-0.67688 0.59382-0.44704 0.79148
   7   3  -5  600.81  119.72   1 0.04444 0.39561 0.98459-0.90148-0.16908-0.17552
  -7  -3   410352.01  892.67   1-0.51181 0.02848-0.63889 0.52619-0.57433 0.84988
   7   3  -411914.55 1256.68   1 0.01834 0.46491 0.98886-0.87604-0.14767-0.12801
  -7  -3   4 8104.33  679.95   1 0.01457-0.49776-0.97736 0.86491 0.21104 0.06443
  -7  -3   347437.82 1805.98   1-0.43171-0.09491-0.58913 0.44671-0.68303 0.88962
   7   3  -353404.11 2078.92   1 0.00211 0.52434 0.99094-0.84841-0.13428-0.07248
  -7  -3   337077.07 1363.49   1 0.02936-0.55576-0.97317 0.83105 0.22818-0.02157
  -7  -3   2 1197.79  196.67   1-0.35198-0.21778-0.53420 0.36218-0.76858 0.90630
   7   3  -2 1662.64  246.17   1-0.00359 0.57325 0.99156-0.81933-0.12956-0.00828
  -7  -3   1 2163.57  272.23   1-0.27906-0.33393-0.47997 0.27830-0.83171 0.90057
   7   3  -1 2256.38  339.42   1 0.00197 0.61089 0.99095-0.78902-0.13416 0.06524
  -7  -3   0 1129.63  223.26   1-0.21686-0.43935-0.43124 0.19992-0.87578 0.87578
   7   3   0 1251.83  146.26   1 0.01985 0.63620 0.98865-0.75700-0.14891 0.14891
   7   3   1 7146.55  741.67   1 0.05163 0.64762 0.98322-0.72187-0.17495 0.24387
   7   3   2 1574.92  278.83   1 0.12889 0.61321 0.35841-0.06804 0.92461-0.78697
   7   3   3  286.16  137.61   1 0.10204 0.68326 0.33559-0.01562 0.93646-0.73000
  -7  -4  13  348.20  332.86   1-0.70623 0.58535-0.57486 0.65187 0.41324 0.48210
  -7  -4  12 1286.16  416.95   1-0.72142 0.55729-0.61270 0.66001 0.32271 0.50378
  -7  -4  11 7457.21  596.84   1-0.72990 0.52257-0.64624 0.66391 0.22271 0.53490
   7   4 -11 8043.20  563.40   1 0.27767-0.07008 0.89369-0.91152-0.35243-0.40523
  -7  -4  1042811.03 1889.50   1-0.72980 0.47924-0.67427 0.66226 0.11286 0.57596
   7   4 -1041591.79 1781.51   1 0.20771 0.04304 0.93151-0.91970-0.29855-0.39023
  -7  -4   911595.34  890.64   1-0.71940 0.42563-0.69456 0.65291-0.00659 0.62653
   7   4  -910731.54 1054.52   1 0.14421 0.14969 0.95781-0.91635-0.24859-0.37131
  -7  -4   8 3514.43  357.29   1-0.69651 0.35945-0.70491 0.63359-0.13399 0.68508
   7   4  -8 3085.84  365.29   1 0.08736 0.24962 0.97507-0.90386-0.20395-0.34743
  -7  -4   8 2456.82  129.79   1 0.13275-0.46967-0.92924 0.85836 0.34477 0.20645
  -7  -4   771776.31 1863.46   1-0.65972 0.27945-0.70292 0.60196-0.26581 0.74802
   7   4  -775056.33 1926.38   1 0.03904 0.34114 0.98557-0.88466-0.16466-0.31779
  -7  -4   760919.30 1465.21   1 0.00879-0.38900-0.97886 0.87835 0.20431 0.27777
  -7  -4   626068.50  784.66   1-0.60877 0.18529-0.68716 0.55665-0.39649 0.80981
   7   4  -628935.38 1645.66   1-0.00080 0.42419 0.99126-0.86064-0.13186-0.28166
  -7  -4   623718.62  584.46   1-0.25382-0.16937-0.95997 0.82983-0.11841 0.53168
  -7  -4   512869.27  829.58   1-0.54566 0.07896-0.65757 0.49743-0.51946 0.86389
   7   4  -514519.41  932.00   1-0.03177 0.49837 0.99384-0.83351-0.10613-0.23847
  -7  -4   410044.57  540.69   1-0.47453-0.03548-0.61649 0.42660-0.62828 0.90374
   7   4  -411860.74  855.52   1-0.05348 0.56328 0.99468-0.80465-0.08796-0.18772
  -7  -4   3  732.64  204.40   1-0.40123-0.15198-0.56866 0.34913-0.71807 0.92466
   7   4  -3 1365.82  201.15   1-0.06557 0.61857 0.99480-0.77507-0.07780-0.12896
  -7  -4   2   32.30  264.84   1-0.33122-0.26514-0.51911 0.26998-0.78791 0.92563
   7   4  -2  474.79  140.33   1-0.06759 0.66379 0.99480-0.74536-0.07610-0.06174
  -7  -4   115321.93  722.57   1-0.26885-0.37073-0.47212 0.19335-0.83952 0.90838
   7   4  -116830.33  809.91   1-0.05894 0.69833 0.99477-0.71562-0.08338 0.01446
  -7  -4   0  476.10  200.85   1-0.21643-0.46638-0.43089 0.12247-0.87606 0.87606
   7   4   0  218.92   98.02   1-0.03867 0.72126 0.99419-0.68534-0.10037 0.10037
  -7  -4  -147054.53 9687.15   1-0.17467-0.55136-0.39700 0.05893-0.90104 0.83218
   7   4   159649.4112266.39   1-0.00531 0.73110 0.99174-0.65318-0.12813 0.19706
   7   4   2 8710.58  716.15   1 0.14310 0.62557 0.37036-0.00291 0.91779-0.78015
  -7  -5  13 6988.50  878.95   1-0.71889 0.57140-0.60555 0.60540 0.34131 0.55405
  -7  -5  12  357.81  239.22   1-0.72876 0.53807-0.63959 0.60980 0.24459 0.58190
   7   5 -12  280.39  146.62   1 0.26460-0.07365 0.90149-0.87191-0.34246-0.48408
  -7  -5  11 6426.26  528.54   1-0.73065 0.49672-0.66839 0.60892 0.13925 0.61844
   7   5 -11 4318.42  818.45   1 0.19042 0.04368 0.93940-0.88018-0.28505-0.47262
  -7  -5  1012941.34  667.19   1-0.72326 0.44612-0.69009 0.60098 0.02565 0.66316
   7   5 -1015109.16  955.32   1 0.12320 0.15406 0.96491-0.87605-0.23185-0.45693
  -7  -5   920393.34  924.65   1-0.70488 0.38454-0.70296 0.58420-0.09478 0.71472
   7   5  -923213.29 1063.93   1 0.06281 0.25750 0.98090-0.86219-0.18405-0.43624
  -7  -5   8 8387.85  682.65   1-0.67427 0.31064-0.70515 0.55672-0.21933 0.77042
   7   5  -8 8209.01  832.76   1 0.01112 0.35240 0.98984-0.84142-0.14172-0.40965
  -7  -5   8 6700.74  551.74   1-0.08504-0.27859-0.99203 0.84415 0.09293 0.45802
  -7  -5   725604.38 1477.86   1-0.63124 0.22440-0.69526 0.51719-0.34372 0.82592
   7   5  -727361.65 1726.68   1-0.03221 0.43894 0.99386-0.81574-0.10577-0.37668
  -7  -5   724004.44 1326.60   1-0.26008-0.14650-0.95725 0.77975-0.12655 0.60870
  -7  -5   640842.47 2306.28   1-0.57692 0.12685-0.67323 0.46564-0.46250 0.87583
   7   5  -638445.74 2188.25   1-0.06695 0.51688 0.99480-0.78697-0.07664-0.33689
  -7  -5   5 1252.13  203.75   1-0.51432 0.02104-0.64033 0.40311-0.57047 0.91490
   7   5  -5 2149.77  247.46   1-0.09247 0.58542 0.99421-0.75718-0.05466-0.28974
  -7  -5   4 2201.57  264.89   1-0.44767-0.08894-0.59953 0.33253-0.66343 0.93888
   7   5  -4 2709.63  405.45   1-0.10950 0.64562 0.99317-0.72648-0.04018-0.23534
  -7  -5   3  626.18  275.67   1-0.38180-0.19801-0.55522 0.25859-0.73888 0.94547
   7   5  -3  210.02  127.68   1-0.11737 0.69666 0.99252-0.69618-0.03347-0.17317
  -7  -5   220127.33  928.20   1-0.32063-0.30232-0.51130 0.18507-0.79734 0.93506
   7   5  -220345.92  896.85   1-0.11576 0.73821 0.99266-0.66667-0.03485-0.10291
  -7  -5   110909.48  612.96   1-0.26712-0.39906-0.47078 0.11491-0.84083 0.90969
   7   5  -110570.89 1211.97   1-0.10411 0.76973 0.99355-0.63791-0.04477-0.02410
  -7  -5   0 4784.05  640.95   1-0.22260-0.48679-0.43582 0.05030-0.87206 0.87206
   7   5   0 4521.92  892.63   1-0.08181 0.79094 0.99458-0.60851-0.06410 0.06410
  -7  -5  -1 5654.16  815.19   1-0.18743-0.56519-0.40745-0.00771-0.89378 0.82492
   7   5   1 4054.16  873.18   1-0.04683 0.79916 0.99451-0.57873-0.09354 0.16246
   7   5   2 7830.90  823.81   1 0.16110 0.63413 0.38535 0.05915 0.90859-0.77095
  -7  -6  13 8941.16  950.58   1-0.72675 0.55270-0.63063 0.55340 0.27225 0.62311
   7   6 -13 7553.33  787.21   1 0.26075-0.08643 0.90373-0.82673-0.33952-0.55590
  -7  -6  12 1059.24  400.08   1-0.73108 0.51383-0.66047 0.55359 0.17112 0.65536
   7   6 -12  367.93  176.56   1 0.18277 0.03470 0.94272-0.83608-0.27904-0.54750
  -7  -6  11  -63.34  214.64   1-0.72674 0.46624-0.68403 0.54745 0.06278 0.69491
   7   6 -11  188.87   98.62   1 0.11230 0.14833 0.96829-0.83202-0.22312-0.53454
  -7  -6  10 5147.06  646.11   1-0.71271 0.40900-0.69955 0.53333-0.05162 0.74044
   7   6 -10 5262.41  948.88   1 0.04892 0.25473 0.98375-0.81753-0.17274-0.51648
  -7  -6   911512.05  968.15   1-0.68784 0.34084-0.70568 0.50978-0.16992 0.78989
   7   6  -910930.68 1407.12   1-0.00556 0.35242 0.99176-0.79584-0.12792-0.49237
  -7  -6   8 8472.05  845.26   1-0.65189 0.26168-0.70119 0.47566-0.28870 0.83980
   7   6  -8 9267.43 1022.72   1-0.05175 0.44181 0.99464-0.76901-0.08941-0.46196
  -7  -6   7 2261.04  286.87   1-0.60552 0.17208-0.68585 0.43082-0.40366 0.88587
   7   6  -7 2061.19  396.63   1-0.08957 0.52283 0.99431-0.73897-0.05753-0.42492
  -7  -6   7 1877.78  112.89   1-0.39490-0.03830-0.86519 0.61050-0.30901 0.79108
  -7  -6   634267.53 1401.42   1-0.55084 0.07419-0.66029 0.37562-0.51047 0.92379
   7   6  -634995.75 1451.29   1-0.11850 0.59478 0.99242-0.70798-0.03251-0.38078
  -7  -6   526364.72 1152.25   1-0.49099-0.02901-0.62652 0.31204-0.60530 0.94962
   7   6  -527155.74 1174.97   1-0.13947 0.65892 0.99011-0.67602-0.01454-0.32986
  -7  -6   4  -45.14  173.88   1-0.42994-0.13326-0.58797 0.24386-0.68515 0.96060
   7   6  -4  223.40  142.18   1-0.15195 0.71457 0.98837-0.64463-0.00380-0.27172
  -7  -6   3  -16.39  167.84   1-0.37131-0.23509-0.54785 0.17411-0.74965 0.95624
   7   6  -3  106.22   90.81   1-0.15581 0.76159 0.98778-0.61438-0.00048-0.20616
  -7  -6   2  774.52  181.94   1-0.31791-0.33163-0.50928 0.10595-0.79971 0.93743
   7   6  -2  897.23  219.63   1-0.15074 0.79969 0.98856-0.58550-0.00484-0.13291
  -7  -6   1 1279.75  280.97   1-0.27183-0.42094-0.47441 0.04143-0.83727 0.90613
   7   6  -1 1278.06  229.57   1-0.13624 0.82836 0.99052-0.55781-0.01732-0.05156
  -7  -6   0 8869.77  698.11   1-0.23384-0.50216-0.44475-0.01787-0.86458 0.86458
   7   6   0 7039.74 1231.52   1-0.11142 0.84670 0.99302-0.53066-0.03855 0.03855
  -7  -7  12  386.52  245.86   1-0.72940 0.48553-0.67612 0.49209 0.10402 0.72256
   7   7 -12  597.53  179.83   1 0.10979 0.13399 0.96884-0.78482-0.22201-0.60506
  -7  -7  11 3486.58  528.81   1-0.71959 0.43252-0.69437 0.48069-0.00508 0.76279
   7   7 -11 2732.16  693.89   1 0.04448 0.24250 0.98459-0.77086-0.16911-0.58903
  -7  -7  10 2044.84  354.98   1-0.70007 0.36969-0.70426 0.46090-0.11791 0.80677
   7   7 -10 2710.00  425.46   1-0.01251 0.34270 0.99243-0.74899-0.12216-0.56706
  -7  -7   9 8330.58  628.64   1-0.67056 0.29698-0.70472 0.43172-0.23173 0.85171
   7   7  -9 7830.89  945.44   1-0.06121 0.43460 0.99479-0.72165-0.08147-0.53882
  -7  -7   815473.25  799.00   1-0.63146 0.21467-0.69533 0.39269-0.34317 0.89426
   7   7  -815580.58 1165.60   1-0.10119 0.51763 0.99374-0.69155-0.04726-0.50379
  -7  -7   7 4486.47  522.91   1-0.58413 0.12410-0.67658 0.34447-0.44834 0.93055
   7   7  -7 4241.93  657.84   1-0.13351 0.59312 0.99085-0.65900-0.01966-0.46250
  -7  -7   612746.45 1063.06   1-0.53106 0.02781-0.64971 0.28797-0.54391 0.95723
   7   7  -612864.62 1399.81   1-0.15778 0.66056 0.98747-0.62597 0.00121-0.41450
  -7  -7   526063.63 1191.85   1-0.47522-0.07137-0.61692 0.22534-0.62734 0.97166
   7   7  -526752.17 1191.93   1-0.17405 0.72000 0.98461-0.59346 0.01530-0.35971
  -7  -7   4 4011.42  352.13   1-0.41995-0.16985-0.58132 0.16011-0.69692 0.97237
   7   7  -4 4891.84  630.32   1-0.18234 0.77145 0.98297-0.56217 0.02249-0.29802
  -7  -7   3 1076.07  261.69   1-0.36799-0.26500-0.54550 0.09466-0.75299 0.95958
   7   7  -3 1056.08  233.94   1-0.18251 0.81479 0.98294-0.53248 0.02264-0.22928
  -7  -7   2 2954.00  427.84   1-0.32136-0.35478-0.51184 0.03140-0.79670 0.93442
   7   7  -2 2383.27  443.99   1-0.17427 0.84972 0.98457-0.50446 0.01548-0.15325
  -7  -7   1 1465.64  297.71   1-0.28156-0.43781-0.48188-0.02819-0.82976 0.89862
   7   7  -1 1282.48  267.68   1-0.15709 0.87570 0.98758-0.47781 0.00062-0.06950
  -7  -8  12 4273.89  673.18   1-0.72515 0.45470-0.68715 0.42601 0.04444 0.78214
   7   8 -12 3077.42  627.73   1 0.04847 0.22184 0.98383-0.72260-0.17237-0.65469
  -7  -8  11 1446.48  392.83   1-0.71069 0.39705-0.70062 0.40984-0.06349 0.82120
   7   8 -11  469.88  220.53   1-0.01095 0.32447 0.99228-0.70134-0.12346-0.63468
  -7  -8  10 1187.88  347.82   1-0.68708 0.33013-0.70570 0.38523-0.17288 0.86174
   7   8 -10  409.79  195.09   1-0.06201 0.41873 0.99479-0.67415-0.08080-0.60842
  -7  -8   9 4785.76  614.69   1-0.65462 0.25446-0.70183 0.35173-0.28087 0.90085
   7   8  -9 3911.59  586.52   1-0.10443 0.50420 0.99353-0.64393-0.04450-0.57543
  -7  -8   812647.22  959.31   1-0.61419 0.17079-0.68928 0.30972-0.38426 0.93536
   7   8  -811638.48 1256.65   1-0.13936 0.58231 0.99013-0.61087-0.01464-0.53641
  -7  -8   718250.91 1119.58   1-0.56765 0.08104-0.66877 0.25958-0.48010 0.96231
   7   8  -713091.70 1145.83   1-0.16652 0.65263 0.98599-0.57709 0.00877-0.49094
  -7  -8   6 -246.11  209.27   1-0.51738-0.01244-0.64208 0.20325-0.56572 0.97904
   7   8  -6   50.71   88.32   1-0.18606 0.71534 0.98220-0.54364 0.02572-0.43902
  -7  -8   528807.68 2043.68   1-0.46607-0.10711-0.61123 0.14255-0.63965 0.98397
   7   8  -528219.22 2002.23   1-0.19807 0.77052 0.97951-0.51130 0.03619-0.38060
  -7  -8   411677.23  777.93   1-0.41640-0.19999-0.57894 0.08063-0.70101 0.97647
   7   8  -4 8753.13 1522.55   1-0.20256 0.81817 0.97844-0.48058 0.04011-0.31564
  -7  -8   3 1551.02  337.99   1-0.37047-0.28912-0.54725 0.01931-0.75050 0.95709
   7   8  -3  815.13  313.68   1-0.19938 0.85816 0.97920-0.45169 0.03734-0.24398
  -7  -8   2  427.79  214.25   1-0.32973-0.37301-0.51801-0.03952-0.78926 0.92698
   7   8  -2 -114.41  133.95   1-0.18822 0.89016 0.98173-0.42456 0.02760-0.16537
  -7  -9  11 2315.16  398.38   1-0.70129 0.36097-0.70398 0.33605-0.11217 0.86992
   7   9 -11 2079.14  553.46   1-0.05525 0.39531 0.99471-0.62656-0.08648-0.67166
  -7  -9  10 1054.05  383.83   1-0.67499 0.29146-0.70522 0.30765-0.21689 0.90575
   7   9 -10  990.46  257.73   1-0.10006 0.48317 0.99381-0.59680-0.04822-0.64059
  -7  -9   9 1378.90  397.86   1-0.64107 0.21433-0.69831 0.27110-0.31840 0.93838
   7   9  -9 1306.34  253.74   1-0.13747 0.56374 0.99037-0.56371-0.01626-0.60366
  -7  -9   810586.77  889.01   1-0.60079 0.13081-0.68390 0.22726-0.41390 0.96500
   7   9  -8 7964.54  845.82   1-0.16728 0.63673 0.98586-0.52954 0.00943-0.56049
  -7  -9   7 6451.00  895.35   1-0.55614 0.04294-0.66301 0.17674-0.50110 0.98331
   7   9  -7 4523.17  977.99   1-0.18974 0.70235 0.98140-0.49544 0.02893-0.51110
  -7  -9   6 3927.63  596.14   1-0.50931-0.04711-0.63745 0.12155-0.57814 0.99146
   7   9  -6 2812.91  604.45   1-0.20501 0.76079 0.97784-0.46222 0.04226-0.45555
  -7  -9   5  325.71  274.13   1-0.46262-0.13715-0.60907 0.06328-0.64420 0.98852
   7   9  -5  407.05  188.26   1-0.21319 0.81214 0.97575-0.43048 0.04942-0.39383
  -7  -9   410911.11 1279.73   1-0.41820-0.22478-0.58015 0.00474-0.69894 0.97439
   7   9  -4 5937.90 1317.86   1-0.21425 0.85636 0.97547-0.40055 0.05035-0.32588
  -7 -10   9  806.49  336.37   1-0.63050 0.17719-0.69502 0.19070-0.34554 0.96552
   7  10  -9 1132.86  324.33   1-0.16122 0.61399 0.98690-0.48318 0.00418-0.62412
  -7 -10   8  922.80  362.19   1-0.59141 0.09483-0.67986 0.14614-0.43360 0.98470
   7  10  -8  934.76  292.51   1-0.18640 0.68234 0.98212-0.44875 0.02602-0.57708
  -7 -10   7  991.95  403.20   1-0.54933 0.00954-0.65950 0.09615-0.51310 0.99532
   7  10  -7  515.52  150.48   1-0.20463 0.74374 0.97793-0.41491 0.04193-0.52410
  -8  11  -1  274.04  212.88   1-0.76349 0.35450 0.18467 0.63349 0.61884-0.68775
  -8  11  -2 6718.72  769.83   1-0.76152 0.30932 0.20665 0.58191 0.61430-0.75212
   8 -11   2 5039.20  578.98   1-0.42141 0.87346-0.83802 0.04998-0.34658 0.48432
  -8  10   3 1283.27  345.97   1-0.76728 0.50455 0.10815 0.75131 0.63211-0.42538
  -8  10   2 -645.18  256.98   1-0.76747 0.46153 0.09453 0.73534 0.63406-0.49624
  -8  10   1  291.84  324.18   1-0.76751 0.41835 0.08976 0.71052 0.63472-0.56581
  -8  10   011961.50  965.97   1-0.76747 0.37510 0.09448 0.67620 0.63407-0.63407
  -8  10  -1 8706.83  713.55   1-0.76726 0.33167 0.10955 0.63154 0.63190-0.70081
  -8  10  -2  526.21  239.54   1-0.76644 0.28764 0.13601 0.57548 0.62773-0.76555
   8 -10   2  170.77  124.94   1-0.39987 0.87852-0.86037 0.14936-0.31600 0.45373
  -8  10  -3 6477.74  777.38   1-0.76421 0.24220 0.17524 0.50666 0.62069-0.82742
   8 -10   3 5555.84  626.15   1-0.34421 0.86608-0.90796 0.22659-0.23898 0.44558
  -8  10  -414372.38 1570.12   1-0.75923 0.19421 0.22875 0.42342 0.60928-0.88486
   8 -10   4 8439.94 1444.43   1-0.28574 0.85097-0.94482 0.29326-0.16018 0.43569
  -8   9   4 4887.58  712.88   1-0.76679 0.52067 0.04019 0.77179 0.64063-0.36499
  -8   9   3 1303.80  400.98   1-0.76590 0.47657 0.01896 0.76343 0.64267-0.43594
  -8   9   2  213.36  206.69   1-0.76522 0.43268 0.00658 0.74621 0.64373-0.50591
  -8   9   1 1067.46  348.29   1-0.76504 0.38928 0.00365 0.71955 0.64396-0.57505
  -8   9   0  883.78  346.08   1-0.76547 0.34650 0.01097 0.68264 0.64336-0.64336
  -8   9  -143327.76 3023.19   1-0.76639 0.30420 0.02959 0.63443 0.64169-0.71060
   8  -9   137112.27 2573.73   1-0.42774 0.88980-0.83097 0.16735-0.35567 0.42454
  -8   9  -212400.99  970.41   1-0.76732 0.26192 0.06089 0.57353 0.63835-0.77617
   8  -9   2 9459.40 1971.84   1-0.36991 0.87518-0.88767 0.25370-0.27420 0.41194
  -8   9  -310136.88  717.16   1-0.76731 0.21870 0.10669 0.49814 0.63232-0.83905
   8  -9   3 7420.74  837.53   1-0.30863 0.85711-0.93179 0.32745-0.19104 0.39764
  -8   9  -417812.09 1276.80   1-0.76462 0.17279 0.16939 0.40585 0.62181-0.89745
   8  -9   411255.23 1479.55   1-0.24588 0.83769-0.96324 0.38871-0.10812 0.38363
   8  -9   5 3776.88  768.11   1-0.18324 0.81823-0.98266 0.43778-0.02821 0.37260
  -8   8   6 3341.75  445.29   1-0.76553 0.57924 0.01202 0.78208 0.64327-0.22982
  -8   8   5  428.09  263.76   1-0.76288 0.53338-0.02580 0.79032 0.64601-0.30147
  -8   8   412327.30  826.57   1-0.75967 0.48653-0.05555 0.79026 0.64793-0.37250
  -8   8   310638.73  848.52   1-0.75729 0.44096-0.07601 0.78110 0.64863-0.44206
  -8   8   2  781.04  301.05   1-0.75585 0.39633-0.08715 0.76262 0.64890-0.51119
  -8   8   1 1269.63  267.48   1-0.75571 0.35299-0.08825 0.73410 0.64893-0.58007
  -8   8   0 1244.31  337.63   1-0.75700 0.31108-0.07832 0.69456 0.64870-0.64870
  -8   8  -1 9987.64  577.16   1-0.75961 0.27050-0.05605 0.64266 0.64795-0.71680
   8  -8   1 7685.74  431.22   1-0.39442 0.88308-0.86565 0.27906-0.30833 0.37720
  -8   8  -234322.52 1959.36   1-0.76341 0.23141-0.01941 0.57677 0.64562-0.78344
   8  -8   229063.48 1633.75   1-0.32954 0.86142-0.91836 0.36141-0.21909 0.35683
  -8   8  -3 2305.84  360.93   1-0.76655 0.19134 0.03357 0.49419 0.64130-0.84803
   8  -8   3 1350.38  300.37   1-0.26300 0.83820-0.95594 0.42877-0.13036 0.33699
  -8   8  -411641.68  756.23   1-0.76731 0.14889 0.10653 0.39164 0.63235-0.90799
   8  -8   4 9244.27 1445.38   1-0.19695 0.81533-0.97935 0.48183-0.04551 0.32102
   8  -8   5 9557.87 1596.29   1-0.13271 0.79429-0.99054 0.52268 0.03470 0.30968
  -8   7   7  767.30  197.11   1-0.37639 0.20645-0.12952 0.87618 0.91735-0.43551
  -8   7   7  664.68  195.66   1-0.76096 0.59088-0.04307 0.78962 0.64736-0.16536
  -8   7   6 4987.47  717.47   1-0.37777 0.16462-0.13105 0.84812 0.91657-0.50356
  -8   7   6 7222.66  601.02   1-0.75554 0.54227-0.08950 0.80643 0.64895-0.23581
  -8   7   5 4614.81  654.72   1-0.36869 0.11234-0.12138 0.80869 0.92159-0.57739
  -8   7   5 6105.61  754.05   1-0.74989 0.49342-0.12728 0.81459 0.64919-0.30491
  -8   7   4 8151.03  647.81   1-0.74479 0.44513-0.15625 0.81393 0.64874-0.37331
  -8   7   333942.22 1528.26   1-0.74092 0.39806-0.17604 0.80410 0.64810-0.44153
  -8   7   2 6936.21  634.16   1-0.73884 0.35278-0.18608 0.78452 0.64767-0.50996
  -8   7   1 1432.80  245.34   1-0.73896 0.30971-0.18550 0.75433 0.64770-0.57884
  -8   7   0 1208.80  333.12   1-0.74151 0.26906-0.17313 0.71233 0.64821-0.64821
   8  -7   0  209.16  100.85   1-0.41776 0.88982-0.84198 0.30278-0.34136 0.34136
  -8   7  -1 2869.26  411.68   1-0.74644 0.23079-0.14730 0.65688 0.64894-0.71780
   8  -7   1 1711.08  231.31   1-0.34815 0.86342-0.90503 0.39547-0.24433 0.31320
  -8   7  -225066.71 1167.37   1-0.75325 0.19441-0.10570 0.58566 0.64917-0.78688
   8  -7   219856.91  931.70   1-0.27665 0.83524-0.94947 0.46965-0.14821 0.28597
  -8   7  -3 8528.75  596.74   1-0.76076 0.15872-0.04507 0.49541 0.64746-0.85403
   8  -7   3 6584.55 1084.72   1-0.20627 0.80805-0.97681 0.52665-0.05733 0.26396
  -8   7  -4  992.72  280.90   1-0.76677 0.12174 0.03964 0.38146 0.64069-0.91632
   8  -7   4  357.14  150.73   1-0.13869 0.78366-0.98995 0.56945 0.02733 0.24817
   8  -7   510176.48 1238.71   1-0.07487 0.76287-0.99162 0.60069 0.10521 0.23913
   8  -7   617837.42 1756.43   1-0.01460 0.74581-0.98411 0.62284 0.17693 0.23628
  -8   6   8   46.23  130.81   1-0.44072 0.28740-0.20221 0.90138 0.87456-0.32389
  -8   6   7  572.10  220.79   1-0.45423 0.25771-0.21793 0.88751 0.86381-0.38197
  -8   6   7  803.49  364.17   1-0.74611 0.54950-0.14912 0.81864 0.64890-0.16690
  -8   6   614829.17 1076.50   1-0.46282 0.22309-0.22801 0.86800 0.85662-0.44361
  -8   6   619700.21 1436.83   1-0.73676 0.49696-0.19570 0.83560 0.64720-0.23406
  -8   6   537108.85 1573.48   1-0.46425 0.18131-0.22969 0.84009 0.85540-0.51123
  -8   6   544001.71 1920.98   1-0.72790 0.44491-0.23339 0.84367 0.64473-0.30044
  -8   6   4  861.02  129.95   1-0.45361 0.12747-0.21720 0.79802 0.86432-0.58898
  -8   6   4  751.48  239.05   1-0.72038 0.39418-0.26202 0.84267 0.64218-0.36675
  -8   6   318848.46  781.87   1-0.41765 0.04830-0.17575 0.72699 0.89144-0.68494
  -8   6   323012.72 1055.34   1-0.71494 0.34555-0.28119 0.83223 0.64014-0.43356
  -8   6   233344.81 1390.32   1-0.71234 0.29983-0.29021 0.81166 0.63901-0.50129
  -8   6   1 1790.95  247.14   1-0.71286 0.25708-0.28825 0.78005 0.63932-0.57046
  -8   6   0  503.93  302.60   1-0.71709 0.21811-0.27375 0.73592 0.64096-0.64096
   8  -6   0  -16.78   83.66   1-0.36385 0.86253-0.89270 0.43053-0.26585 0.26585
  -8   6  -1 7642.54  360.56   1-0.72501 0.18283-0.24472 0.67727 0.64379-0.71264
   8  -6   1 6181.54  722.94   1-0.28566 0.82765-0.94486 0.51241-0.16007 0.22895
  -8   6  -2 9468.31  808.34   1-0.73621 0.15084-0.19819 0.60112 0.64707-0.78478
   8  -6   2 8222.27  696.19   1-0.20972 0.79489-0.97581 0.57301-0.06172 0.19947
  -8   6  -358015.04 2448.70   1-0.74948 0.12091-0.12974 0.50305 0.64918-0.85575
   8  -6   348614.78 2055.96   1-0.13815 0.76652-0.99001 0.61687 0.02799 0.17863
   8  -6   4 2537.32  487.35   1-0.07184 0.74327-0.99145 0.64790 0.10886 0.16662
   8  -6   5 6333.42 1142.76   1-0.01033 0.72497-0.98325 0.66935 0.18195 0.16239
   8  -6   622274.68 2188.57   1 0.04692 0.71134-0.96758 0.68313 0.24815 0.16527
  -8   5   9 4860.94  554.54   1-0.48927 0.35257-0.25952 0.91119 0.83262-0.21311
  -8   5   9 4486.66  564.40   1-0.74786 0.61112-0.13925 0.79098 0.64907-0.02936
  -8   5   8 1861.83  301.97   1-0.51023 0.33033-0.28504 0.90713 0.81142-0.26074
  -8   5   8 1527.54  403.82   1-0.73486 0.55492-0.20424 0.82635 0.64673-0.09587
  -8   5   7  832.13  176.58   1-0.52868 0.30529-0.30788 0.90074 0.79101-0.30895
  -8   5   7 1417.68  322.52   1-0.72098 0.49785-0.25981 0.85229 0.64239-0.16039
  -8   5   6  975.47  170.30   1-0.54443 0.27785-0.32783 0.89106 0.77208-0.35889
  -8   5   6  941.58  288.99   1-0.70740 0.44110-0.30632 0.86909 0.63698-0.22383
  -8   5   537893.33 1549.55   1-0.55656 0.24679-0.34345 0.87704 0.75648-0.41216
  -8   5   546208.39 1943.76   1-0.69504 0.38555-0.34366 0.87684 0.63150-0.28721
  -8   5   436247.14 1399.45   1-0.56326 0.21029-0.35218 0.85614 0.74745-0.47200
  -8   5   443171.56 1737.43   1-0.68488 0.33219-0.37179 0.87537 0.62666-0.35123
  -8   5   3  955.92  100.16   1-0.55970 0.16354-0.34753 0.82186 0.75229-0.54569
  -8   5   3 1171.71  236.15   1-0.67777 0.28188-0.39031 0.86430 0.62312-0.41654
  -8   5   2 3794.44  193.26   1-0.52664 0.08728-0.30531 0.75001 0.79336-0.65563
  -8   5   2 4056.34  330.24   1-0.67450 0.23541-0.39855 0.84295 0.62145-0.48373
  -8   5   112821.18  982.54   1-0.67574 0.19346-0.39543 0.81025 0.62209-0.55323
   8  -5  -112139.29  876.05   1-0.37552 0.85759-0.88287 0.46808-0.28197 0.21311
  -8   5   028186.45 1630.73   1-0.68202 0.15654-0.37933 0.76455 0.62525-0.62525
   8  -5   023481.98 1359.90   1-0.28798 0.81326-0.94355 0.55840-0.16363 0.16363
  -8   5  -1 2574.98  265.54   1-0.69359 0.12491-0.34780 0.70343 0.63083-0.69969
   8  -5   1 2446.61  358.59   1-0.20467 0.77324-0.97726 0.62183-0.05529 0.12417
  -8   5  -213251.65  646.94   1-0.71025 0.09837-0.29711 0.62315 0.63816-0.77588
   8  -5   212292.28 1118.66   1-0.12868 0.74034-0.99089 0.66504 0.03970 0.09803
  -8   5  -322907.35 1037.78   1-0.73084 0.07575-0.22142 0.51771 0.64562-0.85219
   8  -5   317790.11  848.73   1-0.05989 0.71475-0.99057 0.69438 0.12320 0.08340
   8  -5   4 1488.08  334.25   1 0.00229 0.69577-0.98045 0.71393 0.19673 0.07874
   8  -5   5  402.19  155.86   1 0.05912 0.68253-0.96322 0.72618 0.26210 0.08241
   8  -5   6 4595.45  522.00   1 0.11123 0.67367-0.94056 0.73320 0.32088 0.09253
  -8   4   911314.77  833.93   1-0.55053 0.38696-0.33564 0.91068 0.76436-0.14458
  -8   4   911667.95  876.08   1-0.72257 0.55930-0.25393 0.82863 0.64296-0.02324
  -8   4   8 1369.00  237.86   1-0.57435 0.36759-0.36681 0.91222 0.73182-0.18090
  -8   4   8 1683.21  309.07   1-0.70342 0.49694-0.31876 0.86366 0.63527-0.08441
  -8   4   7  195.57  131.69   1-0.59676 0.34681-0.39713 0.91291 0.69724-0.21519
  -8   4   7  677.99  308.31   1-0.68415 0.43447-0.37374 0.88905 0.62630-0.14429
  -8   4   6  349.01  145.50   1-0.61787 0.32472-0.42679 0.91293 0.66036-0.24717
  -8   4   6  397.39  221.22   1-0.66590 0.37302-0.41943 0.90515 0.61696-0.20381
  -8   4   5  417.33   98.69   1-0.63745 0.30106-0.45593 0.91256 0.62111-0.27674
  -8   4   5  140.13  222.48   1-0.64975 0.31367-0.45598 0.91211 0.60819-0.26390
  -8   4   435126.76 1027.79   1-0.63672 0.25745-0.48331 0.90985 0.60082-0.32539
  -8   4   350059.07 1249.04   1-0.67474 0.25196-0.51536 0.91270 0.52831-0.32169
  -8   4   356761.69 1512.61   1-0.62779 0.20532-0.50108 0.89803 0.59564-0.38907
  -8   4   2 6917.98  310.71   1-0.69328 0.22730-0.54871 0.91640 0.46718-0.32944
  -8   4   2 8021.98  446.31   1-0.62388 0.15821-0.50863 0.87599 0.59334-0.45563
   8  -4  -2 7636.56  355.90   1-0.38071 0.84618-0.87830 0.51091-0.28918 0.15145
  -8   4   1118854.5 2843.27   1-0.71345 0.20429-0.59168 0.92969 0.37535-0.30648
  -8   4   1132238.7 3279.32   1-0.62584 0.11698-0.50484 0.84261 0.59450-0.52564
   8  -4  -1122382.6 2968.50   1-0.27884 0.78761-0.94837 0.61065-0.15109 0.08221
  -8   4   0 5741.83  243.64   1-0.73096 0.17858-0.66033 0.96873 0.17220-0.17220
  -8   4   0 6166.40  394.76   1-0.63443 0.08237-0.48793 0.79611 0.59950-0.59950
   8  -4   0 6795.86  619.63   1-0.18613 0.73810-0.98200 0.67393-0.03185 0.03185
  -8   4  -122634.02 1300.32   1-0.65016 0.05491-0.45508 0.73367 0.60842-0.67728
   8  -4   122722.29 1290.40   1-0.10545 0.70054-0.99208 0.71361 0.06815 0.00071
  -8   4  -2  242.91  140.00   1-0.67321 0.03476-0.40173 0.65073 0.62079-0.75850
   8  -4   2  146.42   69.33   1-0.03539 0.67368-0.98768 0.73887 0.15239-0.01465
  -8   4  -3  676.12  158.00   1-0.70296 0.02130-0.32019 0.53960 0.63507-0.84164
   8  -4   3  650.59  129.99   1 0.02602 0.65546-0.97416 0.75501 0.22432-0.01771
   8  -4   4 6105.43 1338.67   1 0.08099 0.64406-0.95451 0.76488 0.28693-0.01132
   8  -4   5 6483.82  877.60   1 0.13075 0.63755-0.93034 0.77040 0.34256 0.00195
   8  -4   6  297.35  252.13   1 0.17661 0.63494-0.90253 0.77227 0.39273 0.02069
  -8   3  10  390.56  172.14   1-0.57928 0.43234-0.37340 0.90099 0.72456-0.03591
  -8   3  10   77.83  168.70   1-0.71011 0.56345-0.29756 0.82460 0.63811 0.05046
  -8   3   918422.57 1352.55   1-0.60564 0.41551-0.40947 0.90743 0.68228-0.06250
  -8   3   920737.09 1504.14   1-0.68506 0.49520-0.37130 0.86874 0.62675-0.00703
  -8   3   8 8824.37  484.11   1-0.63068 0.39736-0.44543 0.91375 0.63546-0.08455
  -8   3   8 9463.14  557.08   1-0.65940 0.42634-0.43453 0.90239 0.61348-0.06262
  -8   3   7  157.56  141.85   1-0.65414 0.37760-0.48161 0.92043 0.58322-0.10111
  -8   3   7   31.76  221.32   1-0.63441 0.35816-0.48797 0.92623 0.59949-0.11749
  -8   3   6 1116.29  163.08   1-0.67658 0.35685-0.51853 0.92771 0.52282-0.10958
  -8   3   6 1256.53  226.20   1-0.61095 0.29143-0.53193 0.94078 0.58632-0.17315
  -8   3   510199.84  484.05   1-0.69744 0.33451-0.55679 0.93631 0.45116-0.10679
  -8   3   511969.32  617.95   1-0.59085 0.22811-0.56692 0.94614 0.57401-0.22970
  -8   3   470475.42 2599.60   1-0.71564 0.30952-0.59706 0.94690 0.36243-0.08693
  -8   3   464831.62 2448.27   1-0.57485 0.16890-0.59285 0.94245 0.56396-0.28851
  -8   3   315879.80  934.78   1-0.72868 0.27935-0.63918 0.95938 0.24590-0.03928
  -8   3   315859.81  975.74   1-0.56405 0.11489-0.60952 0.92949 0.55706-0.35048
   8  -3  -316675.11  967.40   1-0.37310 0.82197-0.88496 0.56495-0.27862 0.07201
  -8   3   2 8090.38  479.91   1 0.11314-0.60533 0.34507-0.05469 0.93173-0.79408
  -8   3   212092.94  715.62   1-0.72837 0.23583-0.67980 0.97039 0.08561 0.05214
  -8   3   212136.32  768.96   1-0.55950 0.06713-0.61634 0.90669 0.55413-0.41641
   8  -3  -212557.92  768.50   1-0.24776 0.73993-0.96249 0.67212-0.11055-0.02719
  -8   3   157455.53 2107.77   1-0.69645 0.16065-0.70492 0.96587-0.13426 0.20314
  -8   3   157353.00 2167.12   1-0.56224 0.02665-0.61225 0.87297 0.55590-0.48704
   8  -3  -153770.32 1979.72   1-0.14348 0.67883-0.98942 0.72871 0.02141-0.09029
  -8   3   070718.99 1728.38   1-0.61036 0.03135-0.68779 0.91902-0.39294 0.39294
  -8   3   070413.43 1812.93   1-0.57324-0.00555-0.59538 0.82647 0.56294-0.56294
   8  -3   069587.98 1727.52   1-0.06030 0.63882-0.99060 0.75950 0.12270-0.12270
  -8   3  -1  405.96  118.00   1-0.47972-0.14249-0.61969 0.82137-0.62116 0.55229
  -8   3  -1  759.88  267.35   1-0.59340-0.02861-0.56263 0.76410 0.57559-0.64446
   8  -3   1  331.22  107.59   1 0.00757 0.61414-0.97917 0.77773 0.20289-0.13402
  -8   3  -2 4491.74  180.38   1-0.34590-0.31953-0.52981 0.70183-0.77436 0.63664
  -8   3  -2 4836.74  268.45   1-0.62352-0.04151-0.50931 0.68126 0.59313-0.73085
   8  -3   2 4547.48  685.51   1 0.06504 0.60016-0.96098 0.78907 0.26885-0.13104
  -8   3  -3 1053.38  194.07   1-0.66356-0.04467-0.42493 0.56730 0.61572-0.82229
   8  -3   414326.04 1051.47   1 0.16054 0.59116-0.91290 0.80036 0.37527-0.09965
  -8   2  11 5698.23  718.32   1-0.59933 0.46902-0.40069 0.88082 0.69299 0.06451
  -8   2  11 5455.81  608.00   1-0.69846 0.56842-0.33370 0.81328 0.63307 0.12436
  -8   2  10  481.48  211.49   1-0.62678 0.45328-0.43970 0.89021 0.64326 0.04537
  -8   2  10 1200.51  355.70   1-0.66706 0.49382-0.41666 0.86665 0.61758 0.07099
  -8   2   9 7143.79  536.30   1-0.65222 0.43552-0.47859 0.89960 0.58784 0.03201
  -8   2   9 8011.66  596.67   1-0.63450 0.41806-0.48779 0.90819 0.59954 0.02017
  -8   2   829073.46 1280.88   1-0.67601 0.41612-0.51755 0.90892 0.52453 0.02644
  -8   2   833033.57 1475.29   1-0.60189 0.34224-0.54805 0.93913 0.58082-0.02992
  -8   2   752017.73 2030.95   1-0.69741 0.39432-0.55673 0.91845 0.45128 0.03082
  -8   2   756051.15 2193.22   1-0.57119 0.26833-0.59858 0.96003 0.56163-0.07960
  -8   2   6 4271.11  288.56   1-0.71527 0.36899-0.59613 0.92816 0.36470 0.04854
  -8   2   6 4089.91  365.35   1-0.54327 0.19720-0.63983 0.97165 0.54356-0.13039
  -8   2   583799.26 3096.80   1-0.72775 0.33827-0.63482 0.93721 0.25954 0.08482
  -8   2   584339.28 3157.89   1-0.51932 0.13003-0.67221 0.97440 0.52766-0.18335
  -8   2   417031.10 1019.95   1-0.73039 0.29770-0.67064 0.94340 0.12940 0.14612
  -8   2   414374.62  914.78   1-0.50050 0.06799-0.69594 0.96851 0.51493-0.23948
   8  -2  -415644.00  899.07   1-0.32848 0.76075-0.91908 0.64646-0.21767-0.05779
  -8   2   315254.66  912.98   1-0.71566 0.23975-0.69766 0.94078-0.03300 0.23965
  -8   2   314861.27  940.55   1-0.48795 0.01223-0.71099 0.95393 0.50634-0.29976
   8  -2  -316350.21  957.45   1-0.15859 0.63415-0.98734 0.74434 0.00265-0.20928
  -8   2   238052.09 1427.67   1-0.67191 0.15274-0.70489 0.91837-0.22726 0.36504
  -8   2   237527.46 1468.50   1-0.48284-0.03608-0.71694 0.93026 0.50283-0.36510
   8  -2  -240073.61 1475.16   1-0.04949 0.56823-0.98952 0.77613 0.13562-0.27336
  -8   2   1 1084.43  178.12   1-0.59080 0.02842-0.67959 0.86338-0.43485 0.50374
  -8   2   1 1385.50  247.48   1-0.48635-0.07579-0.71287 0.89656 0.50524-0.43638
   8  -2  -1 1121.51  201.47   1 0.02364 0.53829-0.97485 0.79112 0.22156-0.29043
  -8   2   0132168.8 3203.92   1-0.48032-0.12528-0.62006 0.77427-0.62032 0.62032
  -8   2   0139059.1 3421.85   1-0.49966-0.10569-0.69697 0.85103 0.51436-0.51436
   8  -2   0135927.0 3308.89   1 0.07897 0.52638-0.95537 0.80118 0.28465-0.28465
  -8   2  -164363.74 2444.36   1-0.36383-0.28498-0.54254 0.66712-0.75714 0.68827
  -8   2  -163180.39 2429.13   1-0.52402-0.12454-0.66605 0.79049 0.53081-0.59967
   8  -2   160421.87 2308.10   1 0.12501 0.52359-0.93345 0.80894 0.33621-0.26730
  -8   2  -2  206.05  134.07   1-0.26222-0.42981-0.46699 0.56191-0.84448 0.70676
  -8   2  -2  252.00  119.26   1-0.56079-0.13099-0.61442 0.70923 0.55496-0.69269
   8  -2   2  240.54  105.98   1 0.16562 0.52622-0.90969 0.81488 0.38081-0.24300
  -8   2  -3 2195.90  290.20   1-0.18373-0.55153-0.40443 0.46970-0.89592 0.68934
  -8   1  11 3382.32  525.39   1-0.64039 0.48354-0.46037 0.86358 0.61477 0.14282
  -8   1  11 3542.22  505.80   1-0.65061 0.49399-0.45410 0.85664 0.60867 0.14876
  -8   1  1019666.23 1418.25   1-0.66602 0.46597-0.50074 0.87430 0.55287 0.13585
  -8   1  1022723.30 1631.70   1-0.61056 0.41078-0.53265 0.90594 0.58608 0.10253
  -8   1   9   38.68  164.63   1-0.68899 0.44575-0.54066 0.88458 0.48266 0.13719
  -8   1   9   73.89  206.25   1-0.57073 0.32774-0.59928 0.94295 0.56134 0.05841
  -8   1   846440.00 1927.72   1-0.70855 0.42211-0.57994 0.89421 0.40200 0.14897
  -8   1   850613.25 2124.86   1-0.53221 0.24600-0.65511 0.96915 0.53626 0.01463
  -8   1   735226.79 1994.62   1-0.72318 0.39354-0.61811 0.90268 0.30811 0.17400
  -8   1   735428.17 2018.92   1-0.49624 0.16683-0.70111 0.98552 0.51203-0.02999
  -8   1   6 4428.16  285.35   1-0.73075 0.35790-0.65350 0.90844 0.19730 0.21594
  -8   1   6 5202.89  353.92   1-0.46365 0.09080-0.73853 0.99294 0.48948-0.07625
  -8   1   5  574.29  142.08   1-0.72700 0.31093-0.68345 0.90875 0.06604 0.27836
  -8   1   5  870.64  263.96   1-0.43649 0.02043-0.76697 0.99182 0.47034-0.12598
  -8   1   4 8729.96  751.52   1-0.70616 0.24689-0.70252 0.89818-0.08820 0.36373
  -8   1   4 7497.87  677.22   1-0.41546-0.04378-0.78743 0.98272 0.45533-0.17984
  -8   1   335423.26  924.53   1-0.66109 0.15854-0.70319 0.86921-0.26167 0.46833
  -8   1   330401.58  858.17   1-0.40174-0.10070-0.80011 0.96582 0.44544-0.23882
  -8   1   229789.34 1146.53   1-0.58799 0.04224-0.67834 0.81468-0.44058 0.57835
  -8   1   228857.86 1163.15   1-0.39651-0.14913-0.80480 0.94095 0.44165-0.30390
  -8   1   114135.90  850.87   1-0.49241-0.09659-0.62737 0.73411-0.60325 0.67212
  -8   1   112704.22  808.05   1-0.40100-0.18785-0.80078 0.90736 0.44490-0.37602
  -8   1   0 8287.02  631.59   1-0.38914-0.24306-0.56033 0.63744-0.73115 0.73115
  -8   1   0 8090.46  630.61   1-0.41653-0.21551-0.78642 0.86343 0.45610-0.45610
  -8   1  -154015.38 2077.16   1-0.29379-0.38161-0.49119 0.53865-0.82000 0.75114
  -8   1  -157239.85 2205.98   1-0.44467-0.23058-0.75865 0.80609 0.47614-0.54501
  -8   1  -2 2965.84  345.76   1-0.21537-0.50326-0.43004 0.44785-0.87673 0.73902
  -8   1  -2 3688.41  421.99   1-0.48719-0.23114-0.71188 0.72966 0.50582-0.64355
   8  -1   3   34.58  106.79   1 0.15572 0.60559 0.38088-0.36918 0.91141-0.70494
   8  -1   4  571.78  199.08   1 0.11398 0.69053 0.34578-0.30449 0.93136-0.65608
  -8   0  12 1618.83  320.12   1-0.64899 0.50879-0.47355 0.82931 0.59544 0.23102
  -8   0  12 1053.62  194.02   1-0.63690 0.49689-0.48295 0.83803 0.60092 0.22536
  -8   0  11 3005.09  424.41   1-0.67434 0.49094-0.51468 0.84079 0.52948 0.22811
  -8   0  11 3718.44  481.29   1-0.58961 0.40649-0.56899 0.89488 0.57324 0.18424
  -8   0  1019230.37 1148.36   1-0.69644 0.46984-0.55481 0.85127 0.45513 0.23359
  -8   0  1020927.06 1253.25   1-0.54226 0.31592-0.64125 0.93752 0.54289 0.14572
  -8   0   911041.04  963.09   1-0.71427 0.44447-0.59366 0.86042 0.37064 0.24922
  -8   0   911699.25  977.18   1-0.49602 0.22647-0.70138 0.96802 0.51188 0.10788
  -8   0   810348.12  796.11   1-0.72661 0.41361-0.63011 0.86723 0.27382 0.27717
  -8   0   811906.36  903.05   1-0.45170 0.13863-0.75133 0.98787 0.48110 0.06987
  -8   0   747731.63 1311.82   1-0.73108 0.37487-0.66269 0.87017 0.16234 0.31978
  -8   0   747215.73 1304.59   1-0.41160 0.05534-0.79105 0.99803 0.45255 0.02954
  -8   0   619160.92 1169.73   1-0.72417 0.32474-0.68875 0.86659 0.03440 0.37888
  -8   0   619033.49 1174.84   1-0.37634-0.02311-0.82223 0.99963 0.42695-0.01372
  -8   0   5  221.30  166.15   1-0.70166 0.25895-0.70389 0.85208-0.11043 0.45486
  -8   0   4  413.18  104.19   1-0.65898 0.17307-0.70277 0.82132-0.26802 0.54357
  -8   0   3 2907.01  407.37   1-0.59404 0.06492-0.68101 0.76991-0.42816 0.63483
  -8   0   222193.48 1310.41   1-0.51060-0.06173-0.63820 0.69747-0.57617 0.71394
  -8   0   1 4448.91  273.79   1-0.41845-0.19714-0.58032 0.60995-0.69865 0.76752
  -8   0   0  726.02  187.78   1-0.32939-0.32939-0.51776 0.51776-0.78956 0.78956
  -8   0  -112718.01  611.41   1-0.25205-0.44994-0.45907 0.42943-0.85188 0.78302
  -8   0  -2 5529.71  755.10   1-0.19023-0.55500-0.40973 0.35043-0.89215 0.75443
  -8   0  -2 5151.70  610.56   1-0.40767-0.33738-0.79469 0.73556 0.44972-0.58746
   8   0   3  774.09  205.60   1 0.14378 0.64409 0.37093-0.28217 0.91745-0.71099
   8   0   4  457.64  152.65   1 0.11177 0.71931 0.34390-0.22554 0.93233-0.65704
  -8  -1  12 2819.55  456.09   1-0.67877 0.51202-0.52231 0.80097 0.51619 0.31028
  -8  -1  12 3919.76  567.28   1-0.57258 0.40612-0.59641 0.87490 0.56252 0.26382
  -8  -1  11 4995.01  635.79   1-0.70028 0.49033-0.56244 0.81145 0.43961 0.31798
  -8  -1  11 6186.64  761.45   1-0.51792 0.30824-0.67403 0.92289 0.52672 0.23076
  -8  -1  1011751.19  658.89   1-0.71706 0.46390-0.60069 0.82000 0.35351 0.33523
  -8  -1  1013907.65  737.94   1-0.46374 0.21047-0.73843 0.95709 0.48954 0.19917
  -8  -1   942052.19 1782.32   1-0.72798 0.43162-0.63587 0.82554 0.25630 0.36356
  -8  -1   942673.16 1805.86   1-0.41266 0.11619-0.79007 0.97916 0.45331 0.16653
  -8  -1   8   77.59  192.62   1-0.73079 0.39120-0.66666 0.82667 0.14662 0.40443
  -8  -1   732394.79  962.40   1-0.72301 0.34021-0.69044 0.82081 0.02335 0.45881
  -8  -1   645289.61 1752.81   1-0.70117 0.27509-0.70401 0.80473-0.11273 0.52604
   8   1  -643081.45 1654.94   1 0.28686 0.13929 0.88799-0.98878-0.35941-0.05386
  -8  -1   5 9022.22  608.90   1-0.66230 0.19301-0.70342 0.77450-0.25797 0.60240
   8   1  -5 8799.09  603.31   1 0.25682 0.21249 0.90598-0.97713-0.33650-0.00788
  -8  -1   4   52.11  152.17   1-0.60505 0.09256-0.68566 0.72712-0.40469 0.68023
   8   1  -4  373.29  151.01   1 0.23461 0.27785 0.91810-0.95961-0.31942 0.04390
  -8  -1   3 1916.06  299.96   1-0.53196-0.02374-0.65021 0.66204-0.54243 0.74909
   8   1  -3 2387.22  365.17   1 0.22119 0.33443 0.92496-0.93683-0.30903 0.10239
  -8  -1   215540.49  503.25   1-0.44966-0.14932-0.60082 0.58297-0.66092 0.79864
   8   1  -215659.19  517.73   1 0.21755 0.38124 0.92677-0.90899-0.30620 0.16845
  -8  -1   1 8750.26  685.32   1-0.36710-0.27508-0.54487 0.49739-0.75388 0.82275
   8   1  -1 9153.50  694.09   1 0.22478 0.41717 0.92316-0.87575-0.31181 0.24293
  -8  -1   0  127.00  161.36   1-0.29192-0.39345-0.48978 0.41267-0.82151 0.82151
   8   1   0  451.36  169.77   1 0.24420 0.44090 0.91299-0.83593-0.32681 0.32681
  -8  -1  -1 5821.02  704.31   1-0.22876-0.49983-0.44073 0.33397-0.86799 0.79913
   8   1   1 6514.54  565.90   1 0.27760 0.45067 0.89373-0.78704-0.35237 0.42125
  -8  -1  -2 8711.81  603.26   1-0.17911-0.59270-0.40065 0.26425-0.89855 0.76083
   8   1   3 4669.56  644.16   1 0.14225 0.67220 0.36964-0.20381 0.91821-0.71175
   8   1   4 2301.47  300.38   1 0.11736 0.74029 0.34866-0.15323 0.92987-0.65458
  -8  -2  12  418.96  289.45   1-0.70157 0.50827-0.56507 0.76663 0.43414 0.39233
  -8  -2  12  120.26  167.46   1-0.49893 0.30591-0.69786 0.89931 0.51386 0.31248
  -8  -2  11 6586.12  828.68   1-0.71793 0.48140-0.60296 0.77481 0.34786 0.40975
  -8  -2  11 8163.72  974.92   1-0.43788 0.20120-0.76556 0.93678 0.47133 0.28625
  -8  -2  10 2897.64  431.44   1-0.72830 0.44857-0.63736 0.77957 0.25166 0.43707
  -8  -2  10 3077.18  437.26   1-0.38017 0.10029-0.81901 0.96066 0.42975 0.25896
  -8  -2   927610.96 1222.92   1-0.73076 0.40780-0.66711 0.77966 0.14473 0.47520
  -8  -2   842318.37 1696.75   1-0.72335 0.35719-0.68995 0.77287 0.02657 0.52447
   8   2  -840901.52 1643.55   1 0.27843 0.08792 0.89322-0.97624-0.35301-0.19802
  -8  -2   7  947.33  188.83   1-0.70349 0.29412-0.70338 0.75665-0.10174 0.58391
   8   2  -7 1338.37  212.06   1 0.23514 0.17437 0.91783-0.97120-0.31983-0.16232
  -8  -2   652352.64 1391.44   1-0.66891 0.21625-0.70450 0.72811-0.23713 0.65044
   8   2  -649423.19 1314.85   1 0.19860 0.25407 0.93574-0.95948-0.29144-0.12183
  -8  -2   535534.30 1389.35   1-0.61878 0.12292-0.69101 0.68502-0.37363 0.71807
   8   2  -534162.37 1331.17   1 0.16962 0.32620 0.94816-0.94226-0.26870-0.07568
  -8  -2   4 2987.37  303.61   1-0.55476 0.01568-0.66231 0.62669-0.50355 0.77910
   8   2  -4 2863.06  313.79   1 0.14901 0.38998 0.95607-0.92053-0.25240-0.02311
  -8  -2   3 1303.57  183.27   1-0.48139-0.10098-0.62071 0.55539-0.61883 0.82542
   8   2  -3 1263.86  198.64   1 0.13753 0.44462 0.96015-0.89496-0.24328 0.03664
  -8  -2   2 8530.45  672.85   1-0.40546-0.22011-0.57155 0.47660-0.71338 0.85111
   8   2  -2 9053.62  978.04   1 0.13601 0.48930 0.96067-0.86585-0.24206 0.10431
  -8  -2   1 7964.82  609.28   1-0.33344-0.33530-0.52074 0.39618-0.78589 0.85475
   8   2  -1 8726.11  855.74   1 0.14540 0.52307 0.95738-0.83291-0.24953 0.18065
  -8  -2   019475.48  913.58   1-0.27020-0.44177-0.47316 0.31895-0.83851 0.83851
   8   2   019899.03  983.81   1 0.16694 0.54469 0.94924-0.79513-0.26658 0.26658
  -8  -2  -111458.94  723.58   1-0.21810-0.53708-0.43223 0.24837-0.87498 0.80612
   8   2   114255.62  845.94   1 0.20240 0.55239 0.93399-0.75024-0.29441 0.36329
  -8  -2  -221657.94 1298.95   1-0.17768-0.62073-0.39947 0.18597-0.89936 0.76164
   8   2   326899.69 2852.86   1 0.14806 0.69296 0.37451-0.13161 0.91532-0.70886
  -8  -3  12 2667.24  453.79   1-0.71737 0.49748-0.60149 0.72589 0.35154 0.47495
  -8  -3  12 3321.76  509.67   1-0.41881 0.19872-0.78426 0.90804 0.45773 0.36873
  -8  -3  11  759.26  383.94   1-0.72792 0.46483-0.63560 0.73037 0.25713 0.50048
  -8  -3  10 1861.64  315.50   1-0.73101 0.42471-0.66491 0.73003 0.15333 0.53541
  -8  -3   912339.81  663.71   1-0.72475 0.37522-0.68783 0.72328 0.04022 0.57971
   8   3  -912467.44  612.37   1 0.24235 0.10735 0.91399-0.94959-0.32539-0.29451
  -8  -3   818482.23  827.23   1-0.70748 0.31474-0.70204 0.70785-0.08130 0.63236
   8   3  -817841.33 1389.60   1 0.19372 0.19915 0.93794-0.94390-0.28763-0.26340
  -8  -3   7 4179.90  387.03   1-0.67739 0.24136-0.70542 0.68157-0.20859 0.69079
   8   3  -7 3519.28  512.52   1 0.15181 0.28421 0.95504-0.93136-0.25462-0.22752
  -8  -3   6 4647.07  312.87   1-0.63386 0.15463-0.69611 0.64262-0.33710 0.75041
   8   3  -6 4325.33  720.98   1 0.11731 0.36188 0.96677-0.91345-0.22714-0.18613
  -8  -3   551223.23 1370.59   1-0.57791 0.05545-0.67370 0.59063-0.46059 0.80502
   8   3  -552394.94 1394.89   1 0.09035 0.43206 0.97429-0.89118-0.20636-0.13825
  -8  -3   425994.50 1498.25   1-0.51280-0.05286-0.63946 0.52676-0.57281 0.84836
   8   3  -427323.16 1553.05   1 0.07248 0.49312 0.97873-0.86591-0.19191-0.08377
  -8  -3   3  342.27  237.10   1-0.44345-0.16552-0.59681 0.45439-0.66869 0.87528
   8   3  -3  627.98  191.29   1 0.06383 0.54498 0.98068-0.83816-0.18488-0.02188
  -8  -3   2 2614.18  280.94   1-0.37545-0.27672-0.55076 0.37871-0.74544 0.88317
   8   3  -2 2590.71  434.01   1 0.06505 0.58696 0.98041-0.80818-0.18587 0.04802
  -8  -3   111297.71  954.42   1-0.31322-0.38211-0.50579 0.30413-0.80377 0.87263
   8   3  -110313.54 1255.12   1 0.07698 0.61822 0.97766-0.77573-0.19555 0.12663
  -8  -3   012984.79  817.50   1-0.25983-0.47873-0.46513 0.23382-0.84624 0.84624
   8   3   010817.05 1124.48   1 0.10079 0.63761 0.97144-0.73980-0.21477 0.21477
  -8  -3  -1 6807.75  839.96   1-0.21647-0.56531-0.43092 0.16996-0.87603 0.80717
   8   3   1 4925.84 1165.20   1 0.13832 0.64300 0.95988-0.69907-0.24390 0.31278
  -8  -3  -2  887.37  257.48   1-0.18325-0.64175-0.40404 0.11343-0.89619 0.75847
  -8  -4  13 3290.36  448.77   1-0.71556 0.51231-0.59686 0.67381 0.36292 0.53244
  -8  -4  13 3434.53  433.55   1-0.40711 0.20361-0.79521 0.87155 0.44931 0.44602
  -8  -4  12 9815.34  785.68   1-0.72688 0.48042-0.63115 0.67845 0.27072 0.55577
  -8  -4  11  914.54  337.25   1-0.73109 0.44143-0.66068 0.67835 0.17028 0.58733
   8   4 -11  435.28  175.02   1 0.27496 0.01495 0.89534-0.91317-0.35037-0.40730
  -8  -4  10 5670.91  806.29   1-0.72666 0.39377-0.68419 0.67218 0.06184 0.62698
   8   4 -10 5511.35  763.89   1 0.21574 0.11733 0.92765-0.91585-0.30480-0.38399
  -8  -4   9 4760.03  558.83   1-0.71236 0.33626-0.69974 0.65809-0.05373 0.67367
   8   4  -9 3477.65  517.45   1 0.16266 0.21357 0.95092-0.90947-0.26320-0.35670
  -8  -4   813594.86  696.73   1-0.68674 0.26734-0.70571 0.63438-0.17422 0.72531
   8   4  -812883.99 1380.07   1 0.11636 0.30303 0.96706-0.89597-0.22637-0.32465
  -8  -4   7 8914.18  689.68   1-0.64930 0.18669-0.70055 0.59959-0.29601 0.77822
   8   4  -710769.17 1237.91   1 0.07678 0.38575 0.97771-0.87680-0.19539-0.28706
  -8  -4   6 2014.11  243.52   1-0.60065 0.09482-0.68383 0.55333-0.41422 0.82754
   8   4  -6 2298.48  351.31   1 0.04556 0.46017 0.98439-0.85377-0.16999-0.24353
  -8  -4   527525.17 1148.41   1-0.54311-0.00592-0.65623 0.49608-0.52381 0.86825
   8   4  -527349.51 1452.20   1 0.02254 0.52639 0.98825-0.82793-0.15113-0.19348
  -8  -4   440723.81 1627.44   1-0.48033-0.11203-0.62006 0.43017-0.62031 0.89576
   8   4  -441219.08 1743.39   1 0.00812 0.58401 0.99022-0.80019-0.13925-0.13643
  -8  -4   3 5674.50  386.65   1-0.41687-0.21869-0.57927 0.35974-0.70047 0.90706
   8   4  -3 4804.10  554.44   1 0.00274 0.63259 0.99086-0.77113-0.13480-0.07195
  -8  -4   210019.32  864.82   1-0.35680-0.32196-0.53752 0.28836-0.76403 0.90176
   8   4  -210042.37 1336.80   1 0.00695 0.67158 0.99036-0.74092-0.13828 0.00044
  -8  -4   111993.21  787.42   1-0.30315-0.41878-0.49825 0.21948-0.81230 0.88116
   8   4  -111287.08 1474.86   1 0.02151 0.70023 0.98840-0.70926-0.15027 0.08135
  -8  -4   0  583.37  202.89   1-0.25786-0.50729-0.46360 0.15519-0.84768 0.84768
   8   4   0  479.28  143.70   1 0.04751 0.71743 0.98402-0.67516-0.17159 0.17159
  -8  -4  -1 4301.80  611.22   1-0.22155-0.58682-0.43499 0.09692-0.87275 0.80389
  -8  -5  1216377.53 1201.69   1-0.73082 0.45780-0.65444 0.62466 0.19387 0.63261
   8   5 -1217344.70 1237.72   1 0.26159 0.01168 0.90324-0.87366-0.34016-0.48638
  -8  -5  1110415.46 2199.38   1-0.72862 0.41236-0.67900 0.61952 0.08976 0.66793
   8   5 -1110183.63 2122.46   1 0.19834 0.11809 0.93586-0.87663-0.29124-0.46642
  -8  -5  10 3030.55  363.71   1-0.71749 0.35802-0.69626 0.60715-0.02053 0.70935
   8   5 -10 2106.23  420.86   1 0.14149 0.21810 0.95877-0.86991-0.24643-0.44236
  -8  -5   914599.80  755.58   1-0.69624 0.29347-0.70496 0.58616-0.13519 0.75516
   8   5  -914275.30  706.94   1 0.09087 0.31179 0.97415-0.85544-0.20678-0.41351
  -8  -5   8 5683.16  732.40   1-0.66445 0.21848-0.70380 0.55537-0.25129 0.80238
   8   5  -8 5607.47  783.34   1 0.04818 0.39768 0.98389-0.83547-0.17213-0.37924
  -8  -5   7 9591.01  565.32   1-0.62248 0.13328-0.69235 0.51439-0.36491 0.84712
   8   5  -710104.31  703.17   1 0.01310 0.47596 0.98958-0.81145-0.14336-0.33909
  -8  -5   610423.43  572.48   1-0.57196 0.03955-0.67087 0.46328-0.47200 0.88532
   8   5  -611783.68  789.82   1-0.01409 0.54637 0.99257-0.78473-0.12085-0.29268
  -8  -5   5 6345.87  412.76   1-0.51565-0.05997-0.64109 0.40387-0.56840 0.91284
   8   5  -5 6504.65  694.44   1-0.03317 0.60865 0.99392-0.75638-0.10497-0.23964
  -8  -5   448938.08 2089.27   1-0.45706-0.16190-0.60554 0.33854-0.65146 0.92691
   8   5  -452030.76 2218.46   1-0.04385 0.66253 0.99441-0.72716-0.09604-0.17965
  -8  -5   313592.26  676.64   1-0.39990-0.26226-0.56775 0.27112-0.71953 0.92612
   8   5  -313033.38 1418.24   1-0.04581 0.70769 0.99447-0.69752-0.09440-0.11236
  -8  -5   2  549.86  291.16   1-0.34708-0.35822-0.53066 0.20443-0.77325 0.91097
   8   5  -2  329.56  118.93   1-0.03855 0.74363 0.99419-0.66753-0.10047-0.03737
  -8  -5   1 7022.94  842.90   1-0.30086-0.44766-0.49653 0.14065-0.81420 0.88306
   8   5  -1 5732.93 1214.42   1-0.02138 0.76966 0.99315-0.63679-0.11479 0.04587
  -8  -5   0 4861.70  687.78   1-0.26231-0.52944-0.46706 0.08154-0.84441 0.84441
   8   5   0 3980.79  917.40   1 0.00680 0.78467 0.99038-0.60431-0.13816 0.13816
  -8  -6  1219636.66 2157.68   1-0.73019 0.43056-0.67210 0.56516 0.12288 0.70370
   8   6 -1217150.18 1854.32   1 0.18969 0.11010 0.93972-0.83308-0.28448-0.54207
  -8  -6  1123041.65 1392.13   1-0.72233 0.37949-0.69133 0.55475 0.01728 0.74042
   8   6 -1125257.23 1559.41   1 0.12952 0.21343 0.96286-0.82658-0.23689-0.52077
  -8  -6  10  958.17  195.09   1-0.70537 0.31933-0.70279 0.53658-0.09226 0.78108
   8   6 -10 1118.20  229.12   1 0.07568 0.31032 0.97797-0.81175-0.19450-0.49472
  -8  -6   9 3744.22  352.84   1-0.67885 0.24950-0.70552 0.50963-0.20344 0.82342
   8   6  -9 3655.10  655.70   1 0.02985 0.39935 0.98712-0.79119-0.15713-0.46316
  -8  -6   8  993.49  225.48   1-0.64305 0.17050-0.69887 0.47334-0.31312 0.86421
   8   6  -8  433.90  130.07   1-0.00846 0.48087 0.99205-0.76642-0.12552-0.42585
  -8  -6   7 8120.30  502.00   1-0.59903 0.08325-0.68316 0.42812-0.41766 0.89987
   8   6  -7 8014.06  802.07   1-0.03915 0.55476 0.99421-0.73888-0.09997-0.38248
  -8  -6   624138.65 1099.54   1-0.54894-0.01005-0.65930 0.37463-0.51379 0.92711
   8   6  -628316.88 1260.52   1-0.06207 0.62088 0.99479-0.70975-0.08075-0.33278
  -8  -6   5 1572.01  273.46   1-0.49548-0.10687-0.62920 0.31473-0.59882 0.94314
   8   6  -5 1746.11  329.37   1-0.07710 0.67912 0.99469-0.67994-0.06808-0.27653
  -8  -6   418077.82 1082.11   1-0.44185-0.20369-0.59577 0.25167-0.67067 0.94613
   8   6  -416433.83 1234.56   1-0.08406 0.72927 0.99451-0.65005-0.06220-0.21348
  -8  -6   317460.20 1290.54   1-0.39083-0.29792-0.56151 0.18777-0.72934 0.93594
   8   6  -318118.64 1313.81   1-0.08265 0.77107 0.99455-0.62039-0.06339-0.14337
  -8  -6   2   22.83  196.58   1-0.34455-0.38734-0.52884 0.12550-0.77563 0.91335
   8   6  -2  131.84  124.94   1-0.07244 0.80405 0.99476-0.59089-0.07202-0.06582
  -8  -6   1 1342.01  259.34   1-0.30465-0.47047-0.49938 0.06640-0.81105 0.87991
   8   6  -1 1333.06  257.06   1-0.05270 0.82751 0.99466-0.56109-0.08862 0.01970
  -8  -7  12 2153.90  383.48   1-0.72643 0.40023-0.68469 0.50065 0.05902 0.76756
   8   7 -12 1737.81  424.45   1 0.12602 0.20029 0.96400-0.78031-0.23410-0.59244
  -8  -7  1128706.74 2033.85   1-0.71363 0.34422-0.69900 0.48533-0.04601 0.80371
   8   7 -1125762.30 1841.66   1 0.06926 0.30007 0.97947-0.76574-0.18930-0.56885
  -8  -7  1023488.49 1412.98   1-0.69209 0.27937-0.70544 0.46207-0.15282 0.84168
   8   7 -1021091.22 1259.44   1 0.02064 0.39190 0.98853-0.74510-0.14956-0.53966
  -8  -7   9 -201.77  221.96   1-0.66202 0.20609-0.70337 0.43037-0.25883 0.87880
   8   7  -9  121.25  186.05   1-0.02053 0.47627 0.99309-0.71995-0.11550-0.50480
  -8  -7   8 2873.70  416.86   1-0.62411 0.12496-0.69293 0.39045-0.36100 0.91210
   8   7  -8 3047.22  487.83   1-0.05423 0.55317 0.99470-0.69185-0.08734-0.46403
  -8  -7   7 2180.91  379.92   1-0.57999 0.03762-0.67467 0.34256-0.45652 0.93874
   8   7  -7 2556.88  531.69   1-0.08044 0.62258 0.99462-0.66206-0.06526-0.41719
  -8  -7   6 6153.80  751.18   1-0.53181-0.05377-0.65013 0.28838-0.54267 0.95600
   8   7  -6 5439.09  803.47   1-0.09872 0.68383 0.99388-0.63238-0.04935-0.36393
  -8  -7   5 1726.13  346.96   1-0.48212-0.14682-0.62115 0.22957-0.61783 0.96215
   8   7  -5 1420.99  304.77   1-0.10987 0.73814 0.99314-0.60199-0.03987-0.30453
  -8  -7   4  435.72  222.45   1-0.43355-0.23859-0.59034 0.16913-0.68082 0.95627
   8   7  -4  698.42  239.88   1-0.11330 0.78474 0.99287-0.57206-0.03695-0.23857
  -8  -7   3 1135.06  310.36   1-0.38825-0.32710-0.55971 0.10887-0.73210 0.93869
  -8  -7   2  744.59  244.52   1-0.34775-0.41074-0.53115 0.05071-0.77262 0.91033
   8   7  -2  774.80  252.70   1-0.09574 0.85351 0.99405-0.51394-0.05189-0.08587
  -8  -8  1117076.03 1885.35   1-0.70391 0.30793-0.70326 0.41248-0.09963 0.85734
   8   8 -1111635.20 1751.94   1 0.01952 0.37635 0.98869-0.69775-0.14864-0.60950
  -8  -8  1024872.52 1774.12   1-0.67917 0.23987-0.70554 0.38507-0.20230 0.89116
   8   8 -1024113.26 1696.68   1-0.02427 0.46335 0.99336-0.67272-0.11238-0.57684
  -8  -8   9 1999.67  433.98   1-0.64705 0.16455-0.69997 0.34986-0.30225 0.92223
   8   8  -9 1380.38  250.30   1-0.06070 0.54298 0.99478-0.64443-0.08190-0.53839
  -8  -8   8 7416.73  946.23   1-0.60862 0.08288-0.68710 0.30754-0.39681 0.94791
   8   8  -8 5023.42 1084.47   1-0.08982 0.61530 0.99430-0.61424-0.05732-0.49406
  -8  -8   7  945.35  303.27   1-0.56568-0.00327-0.66780 0.25861-0.48376 0.96597
   8   8  -7 1768.19  441.77   1-0.11132 0.67975 0.99303-0.58412-0.03863-0.44353
  -8  -8   6  772.88  339.96   1-0.52031-0.09186-0.64373 0.20491-0.56113 0.97445
   8   8  -6  128.95  132.02   1-0.12603 0.73764 0.99168-0.55312-0.02607-0.38722
  -8  -8   5 1809.44  365.52   1-0.47473-0.18080-0.61662 0.14794-0.62801 0.97232
   8   8  -5 1924.89  385.60   1-0.13351 0.78828 0.99085-0.52263-0.01966-0.32474
  -8  -8   4 2185.95  376.15   1-0.43107-0.26767-0.58871 0.09040-0.68380 0.95925
   8   8  -4 2215.38  538.20   1-0.13360 0.83154 0.99084-0.49297-0.01958-0.25594
  -8  -9  1012184.79 1274.40   1-0.66761 0.20174-0.70431 0.30674-0.24130 0.93016
   8   9 -10 9589.72 1537.05   1-0.05966 0.52527 0.99478-0.59691-0.08278-0.60644
  -8  -9   9 5196.85  677.11   1-0.63474 0.12566-0.69639 0.26918-0.33488 0.95485
   8   9  -9 4155.19  775.53   1-0.09107 0.59967 0.99427-0.56761-0.05585-0.56408
  -8  -9   8  421.74  277.84   1-0.59694 0.04461-0.68226 0.22563-0.42209 0.97319
   8   9  -8   64.56  117.65   1-0.11588 0.66765 0.99265-0.53634-0.03474-0.51630
  -8  -9   7 1557.27  356.50   1-0.55605-0.03949-0.66297 0.17670-0.50126 0.98347
   8   9  -7 2034.66  417.12   1-0.13376 0.72870 0.99082-0.50485-0.01944-0.46272
   8   9  -6 1110.07  219.61   1-0.14475 0.78286 0.98941-0.47379-0.01000-0.40328
  -9  10   1  460.67  217.97   1-0.76710 0.33565 0.05077 0.74950 0.63950-0.57059
  -9  10   0  558.68  236.12   1-0.76728 0.29262 0.05894 0.71174 0.63858-0.63858
  -9  10  -1 1844.46  385.40   1-0.76751 0.24963 0.07752 0.66356 0.63632-0.70523
   9 -10   1 1273.37  213.91   1-0.39820 0.91594-0.86200 0.12135-0.31365 0.38252
  -9  10  -2 1625.39  292.22   1-0.76729 0.20620 0.10769 0.60380 0.63218-0.77000
   9 -10   2  756.56  140.71   1-0.34420 0.90515-0.90797 0.19696-0.23896 0.37669
  -9   9   411960.99 1263.49   1-0.76421 0.43580-0.00881 0.82080 0.64490-0.36926
  -9   9   3  948.75  404.22   1-0.76284 0.39121-0.02626 0.80866 0.64604-0.43931
  -9   9   221707.90 1558.02   1-0.76170 0.34643-0.03530 0.78781 0.64696-0.50924
  -9   9   111404.54  911.37   1-0.76176 0.30330-0.03464 0.75752 0.64692-0.57806
  -9   9   0  432.73  234.45   1-0.76307 0.26180-0.02352 0.71714 0.64588-0.64588
   9  -9   0  841.39  253.05   1-0.42450 0.92563-0.83461 0.14135-0.35101 0.35101
  -9   9  -1  141.58  192.96   1-0.76472 0.22024-0.00136 0.66539 0.64435-0.71326
   9  -9   1  175.76  130.55   1-0.36833 0.91268-0.88900 0.22538-0.27202 0.34089
  -9   9  -2  164.58  216.20   1-0.76655 0.17886 0.03361 0.60081 0.64129-0.77911
   9  -9   2  160.64  133.61   1-0.30865 0.89621-0.93178 0.29780-0.19106 0.32880
  -9   9  -3 5514.36  632.35   1-0.76752 0.13661 0.08342 0.52141 0.63556-0.84229
   9  -9   3 2802.38  683.39   1-0.24730 0.87821-0.96267 0.35848-0.10996 0.31659
  -9   8   5 2474.55  411.19   1-0.75704 0.44484-0.07795 0.84228 0.64869-0.30440
  -9   8   417130.75 1283.83   1-0.75365 0.39825-0.10297 0.83769 0.64915-0.37372
  -9   8   317695.76 1099.80   1-0.75116 0.35257-0.11937 0.82447 0.64922-0.44265
  -9   8   2 8537.98 1015.01   1-0.74999 0.30820-0.12664 0.80211 0.64920-0.51148
  -9   8   126569.31 1919.75   1-0.75042 0.26543-0.12403 0.76989 0.64921-0.58035
  -9   8   0 6769.28  823.65   1-0.75253 0.22434-0.11054 0.72677 0.64920-0.64920
   9  -8   0 6500.46  761.80   1-0.39096 0.91871-0.86892 0.25269-0.30349 0.30349
  -9   8  -1  975.50  370.08   1-0.75617 0.18479-0.08476 0.67137 0.64885-0.71771
   9  -8   1  689.28  189.02   1-0.32770 0.89866-0.91961 0.33302-0.21661 0.28548
  -9   8  -2  990.31  364.49   1-0.76079 0.14621-0.04479 0.60178 0.64744-0.78516
   9  -8   2  287.29  128.39   1-0.26260 0.87690-0.95612 0.39930-0.12983 0.26759
  -9   8  -3 1069.11  330.28   1-0.76554 0.10803 0.01217 0.51559 0.64326-0.84999
   9  -8   3  303.86  151.82   1-0.19784 0.85533-0.97912 0.45194-0.04664 0.25327
   9  -8   4 8344.04 1329.27   1-0.13474 0.83541-0.99035 0.49283 0.03221 0.24329
  -9   7   6  192.52  220.16   1-0.74710 0.45157-0.14356 0.86049 0.64901-0.23586
  -9   7   5 1614.47  431.57   1-0.74085 0.40211-0.17641 0.86371 0.64808-0.30380
  -9   7   4 1196.63  351.21   1-0.73565 0.35372-0.20072 0.85840 0.64693-0.37150
  -9   7   321337.09 1272.86   1-0.73211 0.30698-0.21613 0.84420 0.64598-0.43941
  -9   7   2 2070.90  371.66   1-0.73069 0.26236-0.22206 0.82050 0.64557-0.50786
  -9   7   132818.87 1492.68   1-0.73175 0.22023-0.21764 0.78647 0.64588-0.57702
   9  -7  -129804.65 1279.17   1-0.41198 0.92313-0.84810 0.27926-0.33314 0.26427
  -9   7   013389.75  900.90   1-0.73544 0.18072-0.20166 0.74086 0.64687-0.64687
   9  -7   011436.44  678.93   1-0.34393 0.89829-0.90817 0.36896-0.23860 0.23860
  -9   7  -1   87.32  198.50   1-0.74166 0.14374-0.17240 0.68198 0.64824-0.71709
   9  -7   1  377.09  119.97   1-0.27387 0.87156-0.95083 0.44137-0.14457 0.21345
  -9   7  -2  148.63  161.66   1-0.74986 0.10875-0.12744 0.60740 0.64919-0.78691
   9  -7   2  181.49   84.56   1-0.20483 0.84571-0.97722 0.49741-0.05550 0.19326
  -9   7  -3 3703.45  478.16   1-0.75881 0.07450-0.06323 0.51358 0.64822-0.85480
   9  -7   3 2188.83  361.15   1-0.13845 0.82252-0.98998 0.53982 0.02762 0.17900
   9  -7   4 3626.79  965.91   1-0.07572 0.80282-0.99167 0.57107 0.10419 0.17129
  -9   6   813587.83 1350.27   1-0.46051 0.22488-0.22528 0.92445 0.85858-0.30791
  -9   6   815935.00 1605.52   1-0.74485 0.50917-0.15593 0.85507 0.64874-0.09789
  -9   6   7   80.11  214.89   1-0.73464 0.45576-0.20521 0.87473 0.64667-0.16467
  -9   6   6 3077.77  374.17   1-0.48140 0.15937-0.25007 0.89006 0.84006-0.42705
  -9   6   6 3286.64  469.95   1-0.72468 0.40261-0.24596 0.88586 0.64368-0.23054
  -9   6   5 7066.16  557.06   1-0.71581 0.35055-0.27819 0.88847 0.64047-0.29619
  -9   6   4  801.65  401.94   1-0.70882 0.30042-0.30175 0.88238 0.63757-0.36214
  -9   6   3 3982.05  465.97   1-0.70426 0.25265-0.31617 0.86721 0.63564-0.42906
  -9   6   2 8380.81  746.52   1-0.70274 0.20793-0.32086 0.84231 0.63497-0.49726
  -9   6   110797.82  932.19   1-0.70469 0.16669-0.31483 0.80669 0.63582-0.56697
   9  -6  -1 9545.94  782.25   1-0.35644 0.89419-0.89865 0.40684-0.25567 0.18680
  -9   6   060758.59 2587.70   1-0.71039 0.12919-0.29666 0.75893 0.63822-0.63822
   9  -6   051141.83 2134.67   1-0.27959 0.86068-0.94799 0.48589-0.15208 0.15208
  -9   6  -120953.88 1014.88   1-0.71973 0.09529-0.26435 0.69690 0.64194-0.71080
   9  -6   116660.19  789.48   1-0.20503 0.82930-0.97716 0.54471-0.05575 0.12463
  -9   6  -213988.88  864.23   1-0.73245 0.06480-0.21469 0.61762 0.64608-0.78379
   9  -6   211977.51  729.29   1-0.13480 0.80226-0.99035 0.58755 0.03214 0.10561
  -9   6  -312463.33  795.30   1-0.74719 0.03636-0.14306 0.51637 0.64901-0.85559
   9  -6   310323.08  647.38   1-0.06977 0.78029-0.99132 0.61811 0.11135 0.09525
   9  -6   4  409.41  152.97   1-0.00945 0.76319-0.98307 0.63951 0.18297 0.09250
  -9   5   811459.81  834.69   1-0.53123 0.26871-0.31107 0.93357 0.78805-0.23713
  -9   5   812796.77  964.12   1-0.72037 0.45816-0.26205 0.88416 0.64217-0.09131
  -9   5   7 5336.20  641.04   1-0.54970 0.24399-0.33459 0.92745 0.76542-0.28336
  -9   5   7 6451.14  785.19   1-0.70598 0.40059-0.31080 0.90315 0.63638-0.15437
  -9   5   6 2526.83  364.65   1-0.56552 0.21661-0.35514 0.91837 0.74435-0.33116
  -9   5   6 2772.38  474.47   1-0.69255 0.34396-0.35075 0.91351 0.63034-0.21719
  -9   5   5 6370.25  541.47   1-0.57792 0.18582-0.37157 0.90517 0.72658-0.38226
  -9   5   5 7504.83  703.76   1-0.68096 0.28917-0.38210 0.91527 0.62472-0.28043
  -9   5   411637.15  928.08   1-0.58519 0.14990-0.38135 0.88531 0.71562-0.44016
  -9   5   412307.20 1055.55   1-0.67201 0.23702-0.40469 0.90827 0.62017-0.34474
  -9   5   3 6749.69  347.83   1-0.66645 0.18826-0.41813 0.89212 0.61725-0.41068
  -9   5   223236.73 1050.83   1-0.66492 0.14353-0.42174 0.86614 0.61644-0.47873
   9  -5  -218968.05  794.70   1-0.36341 0.88456-0.89306 0.44864-0.26524 0.12751
  -9   5   1 1177.07  208.00   1-0.66799 0.10341-0.41444 0.82925 0.61807-0.54921
   9  -5  -1 1437.05  240.93   1-0.27684 0.84132-0.94937 0.53463-0.14847 0.07959
  -9   5   025700.01 1142.69   1-0.67607 0.06829-0.39460 0.77982 0.62226-0.62225
   9  -5   022227.81  953.21   1-0.19508 0.80275-0.97983 0.59475-0.04314 0.04314
  -9   5  -115149.91  758.38   1-0.68932 0.03834-0.35975 0.71539 0.62881-0.69767
   9  -5   114747.65  718.18   1-0.12073 0.77149-0.99145 0.63594 0.04946 0.01940
  -9   5  -217682.80 1037.04   1-0.70746 0.01329-0.30611 0.63215 0.63700-0.77472
   9  -5   214911.98  875.98   1-0.05363 0.74758-0.98997 0.66412 0.13069 0.00704
   9  -5   3  362.05  126.21   1 0.00690 0.73026-0.97933 0.68315 0.20211 0.00449
   9  -5   4 5953.45 1189.27   1 0.06215 0.71858-0.96208 0.69536 0.26556 0.01005
  -9   4   9 8556.44  668.95   1-0.57168 0.32579-0.36326 0.93831 0.73567-0.11589
  -9   4   9 9102.60  748.55   1-0.70512 0.45954-0.31351 0.88800 0.63601-0.01628
  -9   4   8 6718.97  772.74   1-0.59511 0.30603-0.39487 0.94028 0.69993-0.14901
  -9   4   8 6925.86  810.61   1-0.68561 0.39684-0.36982 0.91472 0.62702-0.07615
  -9   4   711164.67  675.10   1-0.61718 0.28490-0.42580 0.94158 0.66164-0.17959
  -9   4   713731.16  868.05   1-0.66686 0.33488-0.41715 0.93246 0.61747-0.13546
  -9   4   6 7293.24  614.87   1-0.63761 0.26211-0.45618 0.94246 0.62075-0.20751
  -9   4   6 7785.01  701.00   1-0.64982 0.27465-0.45582 0.94154 0.60823-0.19508
  -9   4   5 8618.05  819.71   1-0.65728 0.23857-0.48658 0.94321 0.57551-0.23114
  -9   4   5 9374.64  526.87   1-0.63543 0.21706-0.48591 0.94204 0.60008-0.25579
  -9   4   410729.68  753.12   1-0.67601 0.21410-0.51754 0.94452 0.52455-0.24905
  -9   4   4 9191.10  697.68   1-0.62456 0.16299-0.50732 0.93386 0.59375-0.31831
  -9   4   310329.63  712.37   1-0.69409 0.18899-0.55027 0.94761 0.46413-0.25751
  -9   4   311968.72  898.64   1-0.61802 0.11325-0.51970 0.91665 0.58987-0.38330
   9  -4  -310777.43  740.41   1-0.36078 0.86533-0.89519 0.49816-0.26163 0.05503
  -9   4   2 3187.58  349.63   1-0.61659 0.06862-0.52236 0.88972 0.58902-0.45130
   9  -4  -2 1987.99  307.85   1-0.25925 0.80713-0.95762 0.59024-0.12547-0.01227
  -9   4   112744.24  940.09   1-0.62096 0.02980-0.51418 0.85195 0.59162-0.52276
   9  -4  -113662.30  949.82   1-0.16828 0.75934-0.98569 0.64796-0.00943-0.05943
  -9   4   011341.99  603.83   1-0.63171-0.00264-0.49336 0.80154 0.59793-0.59793
   9  -4   0 9006.74  503.63   1-0.09011 0.72429-0.99214 0.68400 0.08680-0.08680
  -9   4  -1 9843.24  832.43   1-0.64925-0.02829-0.45705 0.73564 0.60791-0.67677
   9  -4   1 8946.54 1089.11   1-0.02277 0.70016-0.98564 0.70716 0.16731-0.09844
  -9   4  -253294.10 6080.85   1-0.67363-0.04712-0.40070 0.64970 0.62100-0.75872
   9  -4   249619.38 2772.52   1 0.03601 0.68457-0.97112 0.72230 0.23585-0.09811
   9  -4   3 1384.05  329.29   1 0.08855 0.67558-0.95123 0.73192 0.29546-0.08875
   9  -4   4 4778.09  656.69   1 0.13621 0.67118-0.92732 0.73769 0.34859-0.07297
  -9   3  10 2141.86  381.70   1-0.59973 0.37047-0.40124 0.92883 0.69232-0.00368
  -9   3  10 2406.89  421.35   1-0.68979 0.46083-0.35844 0.88548 0.62904 0.05953
  -9   3   9 9621.58 1085.00   1-0.62519 0.35274-0.43738 0.93534 0.64639-0.02660
  -9   3   911041.23  756.85   1-0.66469 0.39253-0.42228 0.91973 0.61632 0.00339
  -9   3   8  858.68  201.81   1-0.64884 0.33318-0.47333 0.94179 0.59578-0.04479
  -9   3   8 1149.83  271.99   1-0.64002 0.32467-0.47654 0.94440 0.60271-0.05185
  -9   3   713083.09 1059.93   1-0.67126 0.31240-0.50946 0.94828 0.53838-0.05627
  -9   3   715241.40  826.89   1-0.61688 0.25832-0.52182 0.96009 0.58919-0.10719
  -9   3   619793.23  859.41   1-0.69189 0.28983-0.54607 0.95525 0.47231-0.05907
  -9   3   622573.97 1067.40   1-0.59594 0.19411-0.55831 0.96717 0.57717-0.16399
  -9   3   514216.02 1001.07   1-0.70997 0.26473-0.58355 0.96303 0.39420-0.04982
  -9   3   514658.36 1088.05   1-0.57883 0.13378-0.58655 0.96578 0.56648-0.22217
  -9   3   4    8.71   80.37   1-0.72428 0.23583-0.62168 0.97152 0.29818-0.02268
   9  -3  -4  286.13   57.95   1-0.33665 0.82459-0.91343 0.56378-0.22870-0.04676
  -9   3   3  838.17  106.87   1-0.73106 0.19941-0.65923 0.97943 0.17593 0.03069
  -9   3   3  864.50  165.16   1-0.55874 0.02727-0.61747 0.93744 0.55364-0.34706
   9  -3  -3  636.69  108.93   1-0.20953 0.74080-0.97586 0.65584-0.06148-0.14514
  -9   3   2 4201.57  238.14   1-0.72242 0.14755-0.69120 0.98179 0.01812 0.11963
  -9   3   2 3933.61  344.33   1-0.55755-0.01713-0.61924 0.90959 0.55287-0.41515
   9  -3  -2 4383.63  476.66   1-0.10915 0.68356-0.99198 0.70156 0.06364-0.20138
  -9   3   126721.30 1038.19   1-0.68575 0.06760-0.70572 0.96667-0.17803 0.24691
  -9   3   125462.63 1075.90   1-0.56337-0.05452-0.61054 0.87126 0.55663-0.48777
   9  -3  -125508.27 1013.51   1-0.03157 0.64918-0.98710 0.72634 0.15691-0.22578
  -9   3   0 2290.34  229.88   1-0.57699-0.08411-0.58947 0.82056 0.56532-0.56532
   9  -3   0 2460.20  388.86   1 0.03060 0.63020-0.97279 0.74169 0.22961-0.22961
  -9   3  -1  651.50  235.90   1-0.59911-0.10521-0.55288 0.75435 0.57911-0.64798
   9  -3   1  383.10   94.76   1 0.08309 0.62119-0.95362 0.75202 0.28931-0.22040
  -9   3  -2 8668.54  600.56   1-0.63032-0.11700-0.49611 0.66806 0.59712-0.73484
   9  -3   2 7414.40  496.55   1 0.12925 0.61828-0.93116 0.75925 0.34090-0.20309
   9  -3   3 8880.02  997.81   1 0.17112 0.61966-0.90615 0.76392 0.38678-0.18007
  -9   2  11 4913.12  561.98   1-0.61888 0.40624-0.42824 0.90837 0.65847 0.09903
  -9   2  11 5624.71  638.39   1-0.67539 0.46304-0.39632 0.87591 0.62190 0.13552
  -9   2  10 3208.57  473.43   1-0.64465 0.38883-0.46686 0.91752 0.60535 0.08337
  -9   2  10 2857.21  457.25   1-0.64434 0.38880-0.46754 0.91753 0.60516 0.08341
  -9   2   912242.14  936.63   1-0.66869 0.36968-0.50516 0.92618 0.54557 0.07428
  -9   2   912816.85  995.50   1-0.61308 0.31433-0.52806 0.94876 0.58760 0.03215
  -9   2   817460.34  843.58   1-0.69036 0.34815-0.54321 0.93457 0.47782 0.07315
  -9   2   819680.86  963.52   1-0.58342 0.24147-0.57915 0.97023 0.56937-0.01847
  -9   2   7 8156.10  350.70   1-0.70884 0.32344-0.58100 0.94267 0.39995 0.08216
  -9   2   7 8630.77  876.81   1-0.55612 0.17095-0.62134 0.98279 0.55195-0.06991
  -9   2   629615.11 1195.12   1-0.72311 0.29451-0.61788 0.94991 0.30873 0.10451
  -9   2   630564.16 1279.27   1-0.53219 0.10381-0.65512 0.98695 0.53625-0.12308
  -9   2   542785.74 2389.40   1-0.73068 0.25886-0.65270 0.95509 0.20020 0.14417
  -9   2   536501.48 2071.62   1-0.51262 0.04102-0.68082 0.98302 0.52315-0.17884
  -9   2   4 5342.77  378.79   1-0.72733 0.21230-0.68266 0.95542 0.07038 0.20514
  -9   2   4 4388.12  334.59   1-0.49836-0.01644-0.69854 0.97111 0.51347-0.23803
  -9   2   313248.28  962.68   1-0.70705 0.14882-0.70220 0.94532-0.08355 0.29019
  -9   2   310801.50  845.66   1-0.49036-0.06765-0.70814 0.95108 0.50800-0.30141
   9  -2  -312783.84  898.77   1 0.03222 0.52560-0.97230 0.72925 0.23148-0.43809
  -9   2   2 1283.12  149.44   1-0.66282 0.06130-0.70351 0.91700-0.25637 0.39414
   9  -2  -2 1340.72  217.09   1 0.08103 0.52015-0.95450 0.74094 0.28698-0.42478
  -9   2   112817.00  891.06   1-0.59229-0.05242-0.68024 0.86404-0.43179 0.50068
  -9   2   111466.09  834.79   1-0.49692-0.14752-0.70029 0.88398 0.51249-0.44363
   9  -2  -111772.94  810.96   1 0.12054 0.52389-0.93581 0.75193 0.33124-0.40014
  -9   2   024488.89 1018.56   1-0.50334-0.18462-0.63384 0.78805-0.58726 0.58726
  -9   2   024546.24 1079.53   1-0.51340-0.17426-0.67983 0.83390 0.52367-0.52367
   9  -2   024525.30 1022.35   1 0.15578 0.53190-0.91584 0.76165 0.37008-0.37008
  -9   2  -1  328.52  139.41   1-0.41081-0.32034-0.57518 0.69976-0.70738 0.63851
  -9   2  -1  152.71  134.74   1-0.54000-0.19087-0.64441 0.76884 0.54141-0.61027
  -9   2  -217735.01 1031.25   1-0.57781-0.19627-0.58817 0.68298 0.56584-0.70356
  -9   1  11  859.07  243.55   1-0.65734 0.41817-0.48668 0.88989 0.57535 0.18224
  -9   1  11 1399.39  306.90   1-0.62571 0.38679-0.50510 0.90764 0.59442 0.16300
  -9   1  1014545.52  941.23   1-0.68085 0.39848-0.52596 0.89953 0.50970 0.17902
  -9   1  1016120.02 1022.07   1-0.58802 0.30594-0.57161 0.94491 0.57225 0.11636
  -9   1   9 4124.92  394.71   1-0.70121 0.37565-0.56435 0.90826 0.43565 0.18420
  -9   1   9 4325.81  420.43   1-0.55171 0.22641-0.62779 0.97146 0.54908 0.07067
  -9   1   823299.81 1085.84   1-0.71739 0.34862-0.60154 0.91576 0.35140 0.19959
  -9   1   823596.38 1136.18   1-0.51757 0.14906-0.67448 0.98852 0.52648 0.02441
  -9   1   7 8928.28  703.55   1-0.72811 0.31614-0.63643 0.92101 0.25455 0.22756
  -9   1   7 9248.07  723.29   1-0.48667 0.07494-0.71249 0.99691 0.50546-0.02343
  -9   1   6 8773.26  676.26   1-0.73072 0.27553-0.66754 0.92247 0.14290 0.27038
  -9   1   6 8571.50  696.85   1-0.45965 0.00446-0.74287 0.99728 0.48668-0.07344
  -9   1   552828.73 2938.80   1-0.72198 0.22358-0.69176 0.91706 0.01424 0.33016
  -9   1   548673.52 2745.03   1-0.43825-0.06013-0.76520 0.99004 0.47159-0.12723
  -9   1   453946.32 2996.36   1-0.69727 0.15559-0.70479 0.90044-0.13063 0.40617
  -9   1   445909.14 2577.15   1-0.42302-0.11856-0.78023 0.97551 0.46074-0.18526
  -9   1   3 1027.94  161.67   1-0.65274 0.06786-0.70140 0.86741-0.28627 0.49293
  -9   1   3  519.88  132.65   1-0.41492-0.16986-0.78795 0.95366 0.45493-0.24832
  -9   1   213931.52 1010.40   1-0.58789-0.04020-0.67829 0.81464-0.44079 0.57857
  -9   1   211520.80  864.21   1-0.41490-0.21308-0.78797 0.92411 0.45492-0.31718
  -9   1   114028.91  983.80   1-0.50839-0.16296-0.63679 0.74352-0.57968 0.64854
  -9   1   112671.60  935.72   1-0.42398-0.24720-0.77930 0.88588 0.46143-0.39256
  -9   1   028118.90 1184.20   1-0.42449-0.29006-0.58435 0.66146-0.69161 0.69161
  -9   1   024929.82 1079.03   1-0.44328-0.27110-0.76008 0.83709 0.47515-0.47515
  -9   1  -1 5028.76  609.78   1-0.34637-0.41139-0.53015 0.57761-0.77392 0.70506
  -9   1  -1 5172.50  615.82   1-0.47409-0.28349-0.72696 0.77440 0.49674-0.56562
  -9   1  -2 4123.14  523.47   1-0.28040-0.52058-0.48100 0.49881-0.83066 0.69295
  -9   0  11 1104.51  334.94   1-0.68797 0.42225-0.53878 0.86489 0.48620 0.27139
  -9   0  11 1158.48  295.15   1-0.56579 0.30037-0.60687 0.93276 0.55818 0.19929
  -9   0  10 4833.46  607.29   1-0.70720 0.39828-0.57697 0.87344 0.40860 0.28012
  -9   0  10 4519.51  585.27   1-0.52288 0.21424-0.66755 0.96382 0.53005 0.15857
  -9   0   9  726.44  262.55   1-0.72159 0.36946-0.61322 0.87998 0.32133 0.29853
  -9   0   9  439.66  228.51   1-0.48205 0.13020-0.71786 0.98450 0.50228 0.11747
  -9   0   8 6167.38  365.37   1-0.72990 0.33457-0.64623 0.88335 0.22275 0.32824
  -9   0   8 5648.32  374.69   1-0.44391 0.04851-0.75943 0.99597 0.47560 0.07537
  -9   0   740358.93 1627.75   1-0.72975 0.29119-0.67452 0.88200 0.11167 0.37050
  -9   0   741497.11 1699.02   1-0.41041-0.02818-0.79216 0.99914 0.45169 0.03040
  -9   0   6 1503.50  240.50   1-0.71857 0.23681-0.69533 0.87316-0.01273 0.42602
  -9   0   6  865.94  223.94   1-0.38201-0.09977-0.81744 0.99484 0.43110-0.01786
  -9   0   535844.40 2017.88   1-0.69307 0.16801-0.70535 0.85353-0.14877 0.49320
  -9   0   477085.57 4257.73   1-0.65089 0.08263-0.70095 0.81950-0.29154 0.56708
  -9   0   3 1197.55  160.04   1-0.59209-0.01937-0.68015 0.76906-0.43221 0.63887
  -9   0   220634.69  858.01   1-0.52076-0.13392-0.64399 0.70326-0.56043 0.69820
  -9   0   1 3252.10  226.39   1-0.44423-0.25371-0.59732 0.62695-0.66772 0.73658
  -9   0   0 9299.98  769.85   1-0.37057-0.37057-0.54733 0.54733-0.75040 0.75040
  -9   0  -1 8477.68  566.39   1-0.30573-0.47862-0.50019 0.47054-0.81014 0.74128
  -9   0  -1 9023.12  609.16   1-0.40494-0.37924-0.79720 0.76763 0.44775-0.51662
  -9   0  -2  895.88  248.94   1-0.25276-0.57481-0.45962 0.40033-0.85138 0.71366
  -9   0  -3 3314.29  481.23   1-0.21232-0.65847-0.42760 0.33865-0.87867 0.67210
  -9  -1  12 9300.06 1091.76   1-0.69163 0.44256-0.54558 0.82424 0.47326 0.35321
  -9  -1  1214584.37 1601.06   1-0.54750 0.29873-0.63384 0.91233 0.54633 0.28001
  -9  -1  11 6109.66  769.20   1-0.71002 0.41773-0.58366 0.83260 0.39395 0.36366
  -9  -1  11 6904.49  819.21   1-0.49823 0.20625-0.69870 0.94756 0.51339 0.24409
  -9  -1  10  731.78  302.83   1-0.72346 0.38797-0.61899 0.83829 0.30569 0.38305
  -9  -1  10 1003.58  426.85   1-0.45050 0.11490-0.75259 0.97125 0.48025 0.20846
  -9  -1   9 1669.53  370.19   1-0.73047 0.35178-0.65066 0.84033 0.20745 0.41241
  -9  -1   9 1517.44  287.49   1-0.40649 0.02768-0.79578 0.98488 0.44886 0.17097
  -9  -1   8 4379.50  347.04   1-0.72912 0.30720-0.67722 0.83723 0.09867 0.45238
  -9  -1   732779.37 1344.54   1-0.71745 0.25232-0.69629 0.82666-0.02076 0.50294
  -9  -1   6  821.49  268.86   1-0.69302 0.18460-0.70535 0.80607-0.14897 0.56229
  -9  -1   521145.90 1243.31   1-0.65430 0.10267-0.70176 0.77284-0.28180 0.62623
   9   1  -520475.41 1260.20   1 0.28119 0.27043 0.89152-0.96267-0.35511 0.01071
  -9  -1   418643.90 1345.63   1-0.60145 0.00661-0.68417 0.72563-0.41249 0.68804
   9   1  -419730.52 1218.74   1 0.26627 0.32852 0.90052-0.94202-0.34374 0.06822
  -9  -1   318061.38  768.92   1-0.53745-0.10059-0.65320 0.66502-0.53335 0.74001
   9   1  -318083.31  795.78   1 0.25967 0.37828 0.90435-0.91622-0.33869 0.13205
  -9  -1   2 2424.54  251.85   1-0.46766-0.21367-0.61223 0.59438-0.63754 0.77527
   9   1  -2 1875.93  201.54   1 0.26226 0.41885 0.90286-0.88508-0.34067 0.20291
  -9  -1   112062.30  994.06   1-0.39849-0.32604-0.56678 0.51931-0.72107 0.78993
   9   1  -113463.15 1100.61   1 0.27503 0.44924 0.89529-0.84788-0.35042 0.28154
  -9  -1   0 6886.68  388.59   1-0.33530-0.43242-0.52209 0.44499-0.78421 0.78421
  -9  -1  -1 3253.57  417.85   1-0.28153-0.52941-0.48186 0.37511-0.82978 0.76092
  -9  -1  -2  535.76  226.98   1-0.23858-0.61558-0.44849 0.31210-0.86135 0.72363
  -9  -2  1210605.17 1217.91   1-0.71088 0.43523-0.58562 0.78712 0.38945 0.43703
  -9  -2  1212570.77 1387.46   1-0.47876 0.20343-0.72164 0.92310 0.50001 0.32633
  -9  -2  1127234.51 1632.39   1-0.42506 0.10605-0.77825 0.94947 0.46221 0.29538
  -9  -2  10 3067.55  347.42   1-0.73055 0.36850-0.65144 0.79366 0.20469 0.48405
  -9  -2  10 2840.92  428.03   1-0.37523 0.01302-0.82316 0.96482 0.42613 0.26258
  -9  -2   918814.93  917.72   1-0.72914 0.32385-0.67717 0.78972 0.09892 0.52101
  -9  -2   811127.06  645.91   1-0.71818 0.26969-0.69567 0.77858-0.01556 0.56662
  -9  -2   710308.55  769.92   1-0.69583 0.20403-0.70501 0.75826-0.13698 0.61919
   9   2  -710533.74  784.66   1 0.25503 0.23680 0.90699-0.96037-0.33513-0.14701
  -9  -2   612550.78  908.83   1-0.66102 0.12602-0.70318 0.72679-0.26187 0.67519
   9   2  -612623.25  915.05   1 0.22660 0.30839 0.92224-0.94598-0.31322-0.10004
  -9  -2   5  494.55  234.07   1-0.61389 0.03568-0.68916 0.68318-0.38493 0.72937
   9   2  -5  397.94  160.65   1 0.20539 0.37276 0.93260-0.92670-0.29674-0.04764
  -9  -2   414015.29 1015.02   1-0.55662-0.06480-0.66326 0.62764-0.50025 0.77579
   9   2  -415666.25 1416.82   1 0.19208 0.42923 0.93867-0.90312-0.28634 0.01083
  -9  -2   331720.20 1344.53   1-0.49314-0.17158-0.62781 0.56249-0.60220 0.80879
   9   2  -331762.08 1452.67   1 0.18737 0.47710 0.94073-0.87555-0.28266 0.07602
  -9  -2   2 7772.79  693.41   1-0.42859-0.27933-0.58708 0.49213-0.68675 0.82448
   9   2  -2 7483.26  871.63   1 0.19205 0.51558 0.93868-0.84385-0.28632 0.14856
  -9  -2   1 3195.75  447.23   1-0.36768-0.38345-0.54528 0.42070-0.75331 0.82217
   9   2  -1 3230.43  441.68   1 0.20705 0.54374 0.93182-0.80735-0.29804 0.22916
  -9  -2   010165.73 2116.79   1-0.31384-0.48047-0.50625 0.35204-0.80324 0.80324
   9   2   012876.98  936.59   1 0.23363 0.56033 0.91862-0.76451-0.31866 0.31866
  -9  -2  -1 3248.90  484.98   1-0.26909-0.56845-0.47230 0.28845-0.83935 0.77049
  -9  -2  -2   89.52  144.56   1-0.23401-0.64675-0.44488 0.23138-0.86447 0.72675
  -9  -3  12 9856.64 1149.32   1-0.72337 0.42115-0.61870 0.74310 0.30648 0.52001
  -9  -3  1212636.72 1414.64   1-0.40600 0.10358-0.79623 0.92001 0.44851 0.37794
  -9  -3  1141034.09 2382.65   1-0.73033 0.38491-0.64944 0.74420 0.21173 0.54589
  -9  -3  1017482.96 1091.92   1-0.72964 0.34099-0.67504 0.74013 0.10923 0.57959
  -9  -3   9 1500.70  284.12   1-0.72017 0.28831-0.69379 0.72924-0.00060 0.62054
   9   3  -9 1484.43  269.21   1 0.25553 0.17650 0.90671-0.94231-0.33551-0.28439
  -9  -3   8 7986.57  737.85   1-0.70045 0.22529-0.70418 0.70996-0.11614 0.66723
   9   3  -8 7677.19  664.16   1 0.21552 0.25968 0.92776-0.93372-0.30463-0.24640
  -9  -3   7 8608.27  881.99   1-0.66972 0.15135-0.70461 0.68075-0.23449 0.71670
   9   3  -7 7830.59  757.47   1 0.18193 0.33642 0.94307-0.91940-0.27839-0.20376
  -9  -3   620394.03  958.12   1-0.62807 0.06649-0.69420 0.64071-0.35158 0.76489
   9   3  -620274.73  998.56   1 0.15535 0.40617 0.95372-0.90040-0.25742-0.15584
  -9  -3   5 7118.18  333.77   1-0.57701-0.02778-0.67327 0.59021-0.46233 0.80676
   9   3  -5 6848.93  697.55   1 0.13631 0.46836 0.96057-0.87761-0.24231-0.10208
  -9  -3   4  900.65  199.28   1-0.51959-0.12842-0.64333 0.53063-0.56226 0.83781
   9   3  -4  377.26  136.72   1 0.12536 0.52247 0.96422-0.85162-0.23357-0.04193
  -9  -3   314030.37 1153.97   1-0.45973-0.23158-0.60724 0.46482-0.64798 0.85457
   9   3  -315202.13  957.53   1 0.12309 0.56790 0.96495-0.82271-0.23176 0.02512
  -9  -3   233691.95 1478.20   1-0.40162-0.33290-0.56893 0.39687-0.71764 0.85537
   9   3  -233338.33 1458.24   1 0.13020 0.60396 0.96263-0.79075-0.23743 0.09968
  -9  -3   1  202.32  179.74   1-0.34851-0.42918-0.53170 0.33003-0.77190 0.84076
   9   3  -1  194.99  120.39   1 0.14757 0.62975 0.95660-0.75508-0.25125 0.18238
  -9  -3   0 2710.37  415.93   1-0.30273-0.51817-0.49794 0.26663-0.81264 0.81264
   9   3   0 2332.28  422.29   1 0.17645 0.64402 0.94537-0.71421-0.27408 0.27408
  -9  -3  -1 1097.33  320.48   1-0.26534-0.59878-0.46941 0.20845-0.84216 0.77330
  -9  -4  12 1150.09  367.59   1-0.72972 0.40094-0.64508 0.69239 0.22663 0.59986
  -9  -4  1110502.53  755.98   1-0.73033 0.35831-0.67109 0.68872 0.12741 0.63029
   9   4 -1110844.10  718.11   1 0.27977 0.09246 0.89240-0.91023-0.35403-0.40363
  -9  -4  1034184.70 2406.24   1-0.72284 0.30761-0.69065 0.67864 0.02188 0.66693
   9   4 -1031927.06 2238.99   1 0.22956 0.18583 0.92072-0.90891-0.31552-0.37327
  -9  -4   915685.99  809.68   1-0.70611 0.24767-0.70254 0.66089-0.08848 0.70842
   9   4  -912904.00 1182.56   1 0.18522 0.27334 0.94167-0.90022-0.28096-0.33894
  -9  -4   8 3548.88  498.34   1-0.67944 0.17769-0.70556 0.63423-0.20134 0.75243
   9   4  -8 3238.72  511.50   1 0.14725 0.35446 0.95671-0.88562-0.25100-0.30002
  -9  -4   7 7773.87  690.43   1-0.64296 0.09802-0.69885 0.59789-0.31335 0.79555
   9   4  -7 5400.78  755.55   1 0.11613 0.42875 0.96713-0.86640-0.22619-0.25596
  -9  -4   6 7545.13  691.89   1-0.59775 0.00958-0.68261 0.55210-0.42039 0.83372
   9   4  -6 8435.45  960.75   1 0.09173 0.49635 0.97392-0.84330-0.20748-0.20605
  -9  -4   5 9538.44  810.16   1-0.54608-0.08530-0.65780 0.49766-0.51873 0.86316
   9   4  -5 9903.49 1409.83   1 0.07556 0.55572 0.97800-0.81768-0.19440-0.15020
  -9  -4   4 3442.18  452.46   1-0.49104-0.18367-0.62655 0.43666-0.60522 0.88067
   9   4  -4 3097.45  501.22   1 0.06750 0.60699 0.97987-0.78984-0.18786-0.08782
  -9  -4   3  357.60  259.86   1-0.43619-0.28172-0.59208 0.37255-0.67762 0.88421
   9   4  -3  333.26  163.30   1 0.06805 0.64964 0.97974-0.76001-0.18831-0.01845
  -9  -4   212730.91  973.87   1-0.38458-0.37653-0.55716 0.30801-0.73597 0.87369
   9   4  -214333.35 1058.83   1 0.07783 0.68306 0.97746-0.72801-0.19624 0.05839
  -9  -4   1 2473.37  382.41   1-0.33851-0.46577-0.52444 0.24567-0.78125 0.85011
   9   4  -1 3008.31  690.41   1 0.09771 0.70638 0.97230-0.69315-0.21230 0.14337
  -9  -4   0  352.72  180.37   1-0.29954-0.54796-0.49553 0.18711-0.81530 0.81530
   9   4   0  519.16  146.23   1 0.12916 0.71784 0.96298-0.65476-0.23661 0.23661
  -9  -5  12 3724.76  569.76   1-0.73099 0.37564-0.66525 0.63547 0.15191 0.67458
   9   5 -12 3739.37  540.72   1 0.26607 0.08952 0.90063-0.87105-0.34359-0.48295
  -9  -5  11  -45.58  209.97   1-0.72569 0.32710-0.68616 0.62669 0.05041 0.70729
   9   5 -11  417.28  197.03   1 0.21197 0.18679 0.92948-0.87026-0.30187-0.45580
  -9  -5  1022969.29 1651.64   1-0.71208 0.27028-0.69990 0.61079-0.05540 0.74423
   9   5 -1023683.81 1684.06   1 0.16385 0.27807 0.95046-0.86159-0.26414-0.42464
  -9  -5   933706.67 1925.44   1-0.68946 0.20435-0.70561 0.58682-0.16352 0.78350
   9   5  -931672.91 1793.13   1 0.12212 0.36296 0.96526-0.84675-0.23098-0.38892
  -9  -5   8   66.35  176.21   1-0.65792 0.12960-0.70256 0.55413-0.27118 0.82227
   9   5  -8  354.06  119.46   1 0.08652 0.44170 0.97529-0.82687-0.20327-0.34810
  -9  -5   713314.88  677.86   1-0.61820 0.04666-0.69079 0.51284-0.37500 0.85721
   9   5  -713303.62 1138.31   1 0.05859 0.51283 0.98180-0.80367-0.18062-0.30183
  -9  -5   6 3134.36  429.30   1-0.57205-0.04270-0.67091 0.46332-0.47183 0.88515
   9   5  -6 3675.36  738.93   1 0.03802 0.57660 0.98575-0.77792-0.16382-0.24971
  -9  -5   5  516.13  213.92   1-0.52191-0.13606-0.64463 0.40741-0.55861 0.90305
   9   5  -5 1140.40  279.80   1 0.02508 0.63274 0.98787-0.75033-0.15321-0.19139
  -9  -5   4 1144.19  280.09   1-0.47063-0.23068-0.61408 0.34707-0.63356 0.90902
   9   5  -4 1222.81  267.47   1 0.02013 0.68089 0.98860-0.72136-0.14914-0.12654
  -9  -5   3 1935.84  318.32   1-0.42110-0.32341-0.58209 0.28546-0.69558 0.90217
   9   5  -3 1601.34  330.85   1 0.02359 0.72063 0.98809-0.69114-0.15199-0.05477
  -9  -5   2 3017.28  524.82   1-0.37560-0.41211-0.55088 0.22461-0.74528 0.88301
   9   5  -2 2091.21  489.07   1 0.03606 0.75136 0.98609-0.65943-0.16222 0.02438
  -9  -5   111203.61 1256.06   1-0.33571-0.49516-0.52240 0.16652-0.78383 0.85269
   9   5  -112539.80 1407.29   1 0.05840 0.77222 0.98184-0.62548-0.18047 0.11154
  -9  -6  12  759.99  255.66   1-0.72826 0.34630-0.68013 0.57319 0.08394 0.74264
   9   6 -12 1120.58  257.03   1 0.20240 0.17972 0.93399-0.82736-0.29441-0.53213
  -9  -6  11 1846.27  362.15   1-0.71787 0.29270-0.69594 0.55936-0.01781 0.77551
   9   6 -11 1241.65  426.80   1 0.15090 0.27437 0.95538-0.81910-0.25390-0.50376
  -9  -6  10 1979.06  350.05   1-0.69924 0.23075-0.70444 0.53818-0.12176 0.81062
   9   6 -10  969.20  293.37   1 0.10520 0.36315 0.97018-0.80396-0.21832-0.47090
  -9  -6   920477.63 1483.00   1-0.67241 0.16072-0.70495 0.50905-0.22561 0.84559
   9   6  -919267.53 2088.58   1 0.06686 0.44469 0.98001-0.78408-0.18734-0.43295
  -9  -6   8 3893.53  515.74   1-0.63792 0.08303-0.69737 0.47184-0.32667 0.87776
  -9  -6   7 6845.66  817.44   1-0.59703-0.00109-0.68230 0.42727-0.42191 0.90412
   9   6  -7 6040.56 1291.20   1 0.01111 0.58685 0.98984-0.73450-0.14171-0.34074
  -9  -6   6 1738.72  319.96   1-0.55173-0.08961-0.66075 0.37608-0.50891 0.92224
   9   6  -6 2950.89  551.24   1-0.00593 0.64710 0.99180-0.70676-0.12761-0.28591
  -9  -6   5  350.36  218.66   1-0.50433-0.18037-0.63442 0.31995-0.58578 0.93010
   9   6  -5  834.75  281.10   1-0.01549 0.69986 0.99269-0.67793-0.11968-0.22492
  -9  -6   4 2397.52  374.47   1-0.45740-0.27050-0.60576 0.26165-0.65102 0.92647
   9   6  -4 2258.70  506.72   1-0.01728 0.74484 0.99283-0.64838-0.11820-0.15748
  -9  -6   3 3878.14  610.33   1-0.41309-0.35801-0.57672 0.20299-0.70479 0.91138
   9   6  -3 2522.63  711.80   1-0.01089 0.78166 0.99228-0.61812-0.12350-0.08326
  -9  -6   2  785.44  296.02   1-0.37315-0.44115-0.54915 0.14579-0.74778 0.88551
   9   6  -2  951.99  259.72   1 0.00425 0.80971 0.99069-0.58682-0.13605-0.00179
  -9  -7  11 2216.13  370.64   1-0.70836 0.25661-0.70168 0.48801-0.07655 0.83426
   9   7 -11 1808.16  370.18   1 0.09706 0.35462 0.97248-0.75875-0.21177-0.54637
  -9  -7  10 5510.47  661.29   1-0.68601 0.19095-0.70572 0.46235-0.17702 0.86588
   9   7 -10 4388.59 1068.06   1 0.05572 0.43916 0.98239-0.73896-0.17828-0.51094
  -9  -7   9 7336.69  674.18   1-0.65648 0.11821-0.70225 0.42925-0.27543 0.89541
   9   7  -9 5547.88 1043.18   1 0.02121 0.51688 0.98845-0.71531-0.15003-0.47027
  -9  -7   822677.03 1609.32   1-0.62067 0.03916-0.69170 0.38922-0.36921 0.92031
   9   7  -823391.54 1657.33   1-0.00639 0.58768 0.99185-0.68900-0.12724-0.42413
  -9  -7   7   22.15  203.56   1-0.58016-0.04455-0.67475 0.34264-0.45619 0.93840
   9   7  -7  203.02  134.02   1-0.02699 0.65149 0.99355-0.66099-0.11012-0.37233
  -9  -7   6 7278.83  652.63   1-0.53686-0.13106-0.65288 0.29113-0.53433 0.94766
   9   7  -6 5730.67 1091.10   1-0.04049 0.70818 0.99427-0.63201-0.09885-0.31467
  -9  -7   5 3783.64  588.46   1-0.49290-0.21839-0.62767 0.23609-0.60255 0.94687
   9   7  -5 2679.38  619.57   1-0.04670 0.75760 0.99450-0.60254-0.09365-0.25095
  -9  -7   4 2811.69  486.07   1-0.45038-0.30411-0.60128 0.18007-0.66000 0.93546
   9   7  -4 2131.40  432.60   1-0.04538 0.79948 0.99446-0.57279-0.09476-0.18092
  -9  -8  10  149.09  208.46   1-0.67360 0.15196-0.70508 0.38461-0.22161 0.91048
   9   8 -10 1123.37  258.94   1 0.01494 0.50648 0.98933-0.66868-0.14487-0.54435
  -9  -8   9  637.13  202.93   1-0.64271 0.07787-0.69878 0.34867-0.31402 0.93400
   9   8  -9  239.14  149.67   1-0.01561 0.58024 0.99270-0.64234-0.11959-0.50071
  -9  -8   811565.90 1286.10   1-0.60689-0.00119-0.68640 0.30685-0.40065 0.95175
   9   8  -8 9237.75 1879.76   1-0.03936 0.64719 0.99422-0.61416-0.09979-0.45158
  -9  -8   714145.59 1545.00   1-0.56778-0.08352-0.66883 0.25964-0.47987 0.96208
   9   8  -714656.18 1599.27   1-0.05630 0.70733 0.99473-0.58497-0.08560-0.39685
  -9  -8   6  176.07  193.10   1-0.52717-0.16735-0.64757 0.20874-0.55022 0.96354
   9   8  -6  278.51  114.27   1-0.06633 0.76056 0.99480-0.55533-0.07716-0.33636
 -10   9   2  848.14  323.40   1-0.75840 0.26087-0.06676 0.81926 0.64835-0.51063
 -10   9   1  566.18  240.07   1-0.75890 0.21817-0.06246 0.78534 0.64820-0.57934
  10  -9  -1   24.80  112.94   1-0.41522 0.95544-0.84469 0.12179-0.33775 0.26888
 -10   9   0 3608.74  539.50   1-0.76046 0.17653-0.04798 0.74124 0.64760-0.64760
  10  -9   0 2503.80  382.88   1-0.36044 0.94387-0.89547 0.20220-0.26116 0.26116
 -10   9  -1 9309.95  970.58   1-0.76320 0.13642-0.02197 0.68600 0.64578-0.71469
  10  -9   1 7147.97  737.94   1-0.30224 0.92888-0.93558 0.27196-0.18253 0.25140
 -10   8   4 8482.58 1019.69   1-0.74783 0.31015-0.13946 0.87417 0.64907-0.37364
 -10   8   3 -105.04  252.51   1-0.74561 0.26475-0.15181 0.85691 0.64884-0.44227
 -10   8   2  846.70  376.89   1-0.74499 0.22092-0.15519 0.83067 0.64876-0.51105
 -10   8   111582.14  922.26   1-0.74616 0.17890-0.14883 0.79468 0.64891-0.58005
  10  -8  -110222.20  735.58   1-0.38052 0.94734-0.87847 0.23260-0.28891 0.22005
 -10   8   0  136.27  206.48   1-0.74916 0.13870-0.13166 0.74789 0.64916-0.64916
  10  -8   0  338.90  157.78   1-0.31868 0.92871-0.92554 0.30931-0.20448 0.20448
 -10   8  -112465.07 1386.35   1-0.75377 0.10011-0.10219 0.68880 0.64914-0.71799
  10  -8   1 6764.88 1223.57   1-0.25501 0.90841-0.95946 0.37298-0.11996 0.18884
 -10   8  -225543.90 2731.92   1-0.75936 0.06251-0.05837 0.61536 0.64804-0.78575
  10  -8   218240.95 1992.89   1-0.19174 0.88833-0.98067 0.42384-0.03893 0.17668
 -10   7   6 3912.17  501.71   1-0.73894 0.36113-0.18560 0.90253 0.64769-0.23455
 -10   7   5 7897.05  711.92   1-0.73269 0.31168-0.21365 0.90095 0.64615-0.30186
 -10   7   3 4254.78  537.96   1-0.72505 0.21765-0.24454 0.87261 0.64380-0.43723
 -10   7   2 2888.70  444.44   1-0.72457 0.17397-0.24640 0.84484 0.64364-0.50593
  10  -7  -2 2481.57  342.50   1-0.39825 0.94847-0.86195 0.26347-0.31372 0.17598
 -10   7   114909.71 1120.98   1-0.72671 0.13292-0.23810 0.80693 0.64435-0.57549
  10  -7  -113527.68  962.33   1-0.33144 0.92487-0.91706 0.34822-0.22165 0.15279
 -10   7   0 6475.43  779.70   1-0.73157 0.09458-0.21839 0.75759 0.64583-0.64583
  10  -7   0 4115.22  868.39   1-0.26279 0.89958-0.95604 0.41692-0.13008 0.13008
 -10   7  -1 2437.27  386.08   1-0.73897 0.05878-0.18545 0.69504 0.64770-0.71656
  10  -7   1 1398.62  444.69   1-0.19534 0.87532-0.97977 0.47030-0.04347 0.11235
 -10   7  -2 9205.10  741.46   1-0.74830 0.02492-0.13670 0.61667 0.64911-0.78682
  10  -7   2 4654.37 1093.81   1-0.13057 0.85374-0.99073 0.51092 0.03734 0.10040
  10  -7   310901.97 1103.06   1-0.06942 0.83562-0.99130 0.54105 0.11176 0.09484
 -10   6   7   65.93  287.47   1-0.72410 0.36296-0.24818 0.91770 0.64348-0.16148
 -10   6   618041.88 1342.37   1-0.71429 0.30995-0.28341 0.92331 0.63988-0.22674
 -10   6   519906.79 1225.39   1-0.70607 0.25856-0.31054 0.92076 0.63641-0.29212
 -10   6   3 3511.84  394.06   1-0.69663 0.16272-0.33908 0.89012 0.63223-0.42566
 -10   6   2 1437.02  266.02   1-0.69648 0.11938-0.33951 0.86096 0.63217-0.49445
  10  -6  -2 1745.89  257.08   1-0.33903 0.91586-0.91173 0.39028-0.23193 0.09419
 -10   6   112114.85  799.37   1-0.69989 0.07959-0.32948 0.82134 0.63371-0.56485
  10  -6  -1 9290.64  603.98   1-0.26348 0.88367-0.95572 0.46397-0.13098 0.06210
 -10   6   0 8571.30 1024.45   1-0.70703 0.04353-0.30750 0.76977 0.63682-0.63682
  10  -6   0 7768.07  889.78   1-0.19067 0.85405-0.98093 0.51882-0.03758 0.03758
 -10   6  -1  208.87  173.16   1-0.71773 0.01102-0.27149 0.70405 0.64120-0.71006
  10  -6   1   -5.47   98.81   1-0.12260 0.82902-0.99133 0.55879 0.04718 0.02168
 -10   6  -2  714.10  239.79   1-0.73164-0.01826-0.21810 0.62103 0.64585-0.78356
  10  -6   2  -38.45  113.80   1-0.05937 0.80899-0.99052 0.58764 0.12382 0.01391
  10  -6   315248.89 1632.49   1-0.00098 0.79381-0.98121 0.60799 0.19290 0.01370
 -10   5   8 8750.09  963.07   1-0.54798 0.20314-0.33237 0.95486 0.76762-0.21670
 -10   5   810785.10 1209.11   1-0.70756 0.36306-0.30582 0.92776 0.63704-0.08618
 -10   5   7 1272.51  434.96   1-0.69351 0.30582-0.34803 0.94038 0.63079-0.14879
 -10   5   618154.19 1354.18   1-0.68098 0.25009-0.38205 0.94481 0.62473-0.21158
 -10   5   523162.15 1373.98   1-0.67071 0.19662-0.40788 0.94106 0.61949-0.27520
 -10   5   413193.04  827.75   1-0.66338 0.14609-0.42535 0.92893 0.61562-0.34019
 -10   5   3 2429.64  358.83   1-0.65962 0.09914-0.43402 0.90801 0.61360-0.40703
 -10   5   2 7802.38  478.74   1-0.65999 0.05631-0.43318 0.87759 0.61380-0.47609
 -10   5   1 3062.73  449.35   1-0.66492 0.01804-0.42173 0.83655 0.61645-0.54759
  10  -5  -1 1944.81  349.03   1-0.17311 0.81988-0.98477 0.57003-0.01548-0.05338
 -10   5   021710.00 1279.83   1-0.67472-0.01534-0.39798 0.78320 0.62157-0.62157
  10  -5   021720.91 1221.86   1-0.10150 0.79135-0.99215 0.60698 0.07297-0.07297
 -10   5  -1 1230.04  251.77   1-0.68946-0.04381-0.35937 0.71501 0.62887-0.69773
  10  -5   1  879.10  172.93   1-0.03726 0.77032-0.98795 0.63245 0.15016-0.08129
 -10   5  -2 8301.06  939.02   1-0.70876-0.06770-0.30194 0.62799 0.63755-0.77526
  10  -5   2 4419.25 1055.39   1 0.02048 0.75577-0.97575 0.64990 0.21790-0.08016
  10  -5   3 3897.20 1042.47   1 0.07315 0.74666-0.95777 0.66136 0.27806-0.07135
 -10   4   9 4027.24  577.08   1-0.58876 0.26055-0.38618 0.96122 0.71008-0.09030
 -10   4   9 5157.12  738.62   1-0.69012 0.36224-0.35754 0.93203 0.62919-0.00947
 -10   4   8 4533.32  617.95   1-0.61153 0.24012-0.41775 0.96316 0.67194-0.12102
 -10   4   8 5138.05  720.13   1-0.67129 0.30021-0.40647 0.95137 0.61979-0.06893
 -10   4   711304.60  850.58   1-0.63287 0.21828-0.44867 0.96445 0.63099-0.14894
 -10   4   711746.90  922.20   1-0.65384 0.23956-0.44703 0.96234 0.61045-0.12844
 -10   4   6  712.66  156.19   1-0.65251 0.19468-0.47905 0.96532 0.58713-0.17389
 -10   4   6  566.12  250.86   1-0.63861 0.18114-0.47945 0.96517 0.60190-0.18876
 -10   4   520151.64  885.62   1-0.67128 0.17025-0.50949 0.96612 0.53832-0.19396
 -10   4   518387.89  892.22   1-0.62640 0.12573-0.50377 0.95990 0.59483-0.25054
 -10   4   424948.81 1148.55   1-0.61794 0.07407-0.51985 0.94639 0.58982-0.31439
 -10   4   3 6053.43  769.55   1-0.61363 0.02641-0.52704 0.92405 0.58793-0.38135
 -10   4   2 6820.42  623.14   1-0.61470-0.01572-0.52507 0.89245 0.58857-0.45085
 -10   4   110212.75  569.86   1-0.62165-0.05180-0.51287 0.85064 0.59203-0.52317
  10  -4  -1 9663.41  542.27   1-0.05940 0.73268-0.99052 0.65273 0.12378-0.19265
 -10   4   013609.80  866.28   1-0.63442-0.08223-0.48795 0.79613 0.59950-0.59950
  10  -4   013092.69  801.86   1 0.00290 0.71358-0.98030 0.67217 0.19744-0.19744
 -10   4  -1 6158.80  747.16   1-0.65355-0.10630-0.44766 0.72625 0.61029-0.67915
  10  -4   1 3693.91  770.41   1 0.05715 0.70281-0.96395 0.68526 0.25986-0.19095
  10  -4   2  227.04  134.93   1 0.10561 0.69760-0.94332 0.69432 0.31461-0.17680
  10  -4   3 5139.33  699.01   1 0.14987 0.69659-0.91941 0.70009 0.36361-0.15690
 -10   3  10  256.17  201.44   1-0.61628 0.30470-0.42452 0.95211 0.66330 0.02534
 -10   3  10  176.72  183.41   1-0.67276 0.36150-0.40284 0.92988 0.62056 0.06801
 -10   3   9 1709.69  308.63   1-0.64030 0.28552-0.46024 0.95836 0.61496 0.00489
 -10   3   9 1822.51  397.96   1-0.64872 0.29427-0.45819 0.95564 0.60762 0.01210
 -10   3   8 3523.02  471.37   1-0.66296 0.26497-0.49573 0.96420 0.56100-0.01002
 -10   3   8 4072.09  589.37   1-0.62589 0.22823-0.50477 0.97262 0.59453-0.04366
 -10   3   7 7308.18  504.63   1-0.68376 0.24258-0.53113 0.96995 0.50035-0.01824
 -10   3   7 8355.73  649.67   1-0.60485 0.16393-0.54284 0.98132 0.58263-0.10059
 -10   3   6 2499.35  331.87   1-0.70232 0.21794-0.56662 0.97580 0.43089-0.01765
 -10   3   6 2983.84  422.02   1-0.58711 0.10298-0.57311 0.98197 0.57168-0.15851
 -10   3   5   58.80   98.53   1-0.71766 0.19009-0.60227 0.98175 0.34960-0.00522
 -10   3   5  606.68  266.74   1-0.57316 0.04581-0.59551 0.97474 0.56289-0.21857
 -10   3   414239.35  650.39   1-0.72831 0.15753-0.63738 0.98722 0.25160 0.02389
 -10   3   412376.53 1032.37   1-0.56376-0.00679-0.60995 0.95955 0.55688-0.28143
 -10   3   340061.62 1740.83   1-0.55968-0.05409-0.61608 0.93605 0.55425-0.34766
 -10   3   2  893.39  314.70   1-0.56162-0.09536-0.61318 0.90352 0.55550-0.41778
 -10   3   120101.59  933.78   1-0.57026-0.12993-0.60001 0.86073 0.56104-0.49218
 -10   3   0 4481.08  404.46   1-0.58623-0.15718-0.57457 0.80566 0.57113-0.57113
  10  -3   0 4335.09  328.77   1 0.11573 0.62763-0.93829 0.70700 0.32590-0.32590
 -10   3  -1 2274.16  364.14   1-0.61006-0.17657-0.53355 0.73502 0.58578-0.65464
  10  -3   1 2942.23  392.17   1 0.15498 0.63163-0.91633 0.71473 0.36920-0.30030
 -10   2  10 2613.34  425.81   1-0.65891 0.32077-0.48920 0.93986 0.57141 0.11731
 -10   2  10 3643.18  546.55   1-0.62694 0.28910-0.50273 0.95272 0.59514 0.09343
 -10   2   9 1772.33  457.74   1-0.68115 0.29981-0.52649 0.94750 0.50876 0.11109
 -10   2   9 2210.45  358.91   1-0.59813 0.21707-0.55458 0.97528 0.57851 0.04124
 -10   2   8 3217.47  312.85   1-0.70061 0.27608-0.56312 0.95449 0.43820 0.11277
 -10   2   8 2277.59  406.52   1-0.57160 0.14733-0.59794 0.98902 0.56189-0.01099
 -10   2   7 2708.84  356.43   1-0.71637 0.24864-0.59892 0.96059 0.35789 0.12423
 -10   2   7 4688.95  604.00   1-0.54794 0.08046-0.63321 0.99466 0.54662-0.06458
 -10   2   6 7314.03  635.19   1-0.72732 0.21638-0.63298 0.96501 0.26518 0.14806
 -10   2   6 8571.19  798.57   1-0.52801 0.01732-0.66076 0.99258 0.53347-0.12029
 -10   2   5  643.56  179.28   1-0.73105 0.17690-0.66391 0.96630 0.15740 0.18696
 -10   2   5 -111.74  178.89   1-0.51263-0.04127-0.68081 0.98301 0.52316-0.17884
 -10   2   4 7235.04  311.01   1-0.72400 0.12664-0.68901 0.96177 0.03274 0.24278
 -10   2   4 6483.21  324.06   1-0.50260-0.09451-0.69336 0.96593 0.51636-0.24091
 -10   2   338894.97 1593.24   1-0.70199 0.06134-0.70381 0.94693-0.10885 0.31551
 -10   2   332269.95 1405.65   1-0.49871-0.14162-0.69812 0.94107 0.51371-0.30712
 -10   2   2 2420.77  276.94   1-0.66126-0.02258-0.70322 0.91671-0.26113 0.39890
 -10   2   2 1592.42  261.56   1-0.50172-0.18181-0.69444 0.90775 0.51577-0.37804
 -10   2   122723.51 1056.15   1-0.51243-0.21432-0.68106 0.86475 0.52302-0.45416
 -10   2   0 1779.21  310.97   1-0.53163-0.23833-0.65589 0.80995 0.53588-0.53588
 -10   2  -1  707.56  254.55   1-0.56015-0.25303-0.61537 0.73981 0.55455-0.62342
 -10   1  1114545.61 1477.89   1-0.67058 0.34909-0.50833 0.91154 0.54028 0.21731
 -10   1  1118556.44 1860.06   1-0.60670 0.28552-0.53956 0.94249 0.58375 0.17372
 -10   1  1012574.59  935.74   1-0.69195 0.32726-0.54619 0.91976 0.47208 0.21664
 -10   1  1012491.25  971.86   1-0.57243 0.20804-0.59664 0.96994 0.56242 0.12619
 -10   1   9 1530.22  270.15   1-0.70966 0.30176-0.58283 0.92668 0.39584 0.22403
 -10   1   9 1840.48  378.18   1-0.53999 0.13238-0.64442 0.98809 0.54140 0.07835
 -10   1   816322.48  995.08   1-0.72297 0.27188-0.61743 0.93165 0.30995 0.24104
 -10   1   817517.35 1117.62   1-0.51031 0.05949-0.68375 0.99779 0.52159 0.02930
 -10   1   7 9721.49  832.73   1-0.73029 0.23599-0.64912 0.93370 0.21284 0.26927
 -10   1   710362.22  931.30   1-0.48427-0.00976-0.71529 0.99971 0.50381-0.02177
 -10   1   6 7697.01  684.21   1-0.72937 0.19184-0.67626 0.93120 0.10336 0.30992
 -10   1   6 6723.43  609.63   1-0.46239-0.07512-0.73990 0.99432 0.48860-0.07536
 -10   1   5  451.25  211.26   1-0.71767 0.13694-0.69611 0.92141-0.01924 0.36365
 -10   1   5  465.90  185.01   1-0.44616-0.13455-0.75711 0.98196 0.47719-0.13283
 -10   1   4 2974.93  253.44   1-0.69212 0.06810-0.70543 0.90108-0.15270 0.42825
 -10   1   4 2979.26  301.69   1-0.43601-0.18790-0.76745 0.96273 0.47000-0.19452
 -10   1   313963.33  645.16   1-0.65093-0.01628-0.70096 0.86697-0.29141 0.49807
 -10   1   311335.80  581.21   1-0.43273-0.23438-0.77072 0.93643 0.46767-0.26106
 -10   1   224405.68 1077.73   1-0.59507-0.11537-0.68146 0.81780-0.42603 0.56380
 -10   1   220774.96  965.78   1-0.43714-0.27317-0.76631 0.90246 0.47080-0.33306
 -10   1   1  558.45  132.72   1-0.52936-0.22429-0.64878 0.75549-0.54667 0.61555
 -10   1   1 1005.51  290.69   1-0.45008-0.30343-0.75303 0.85961 0.47996-0.41108
 -10   1   0 1403.16  225.35   1-0.46101-0.33589-0.60805 0.68515-0.64632 0.64632
 -10   1   0 1126.67  234.55   1-0.47251-0.32419-0.72873 0.80574 0.49565-0.49565
 -10   1  -1 7032.24  797.51   1-0.50547-0.33426-0.68980 0.73721 0.51831-0.58718
 -10   0  1111099.87 1258.97   1-0.69812 0.35008-0.55812 0.88423 0.44846 0.30914
 -10   0  1116567.69 1807.51   1-0.54963 0.20189-0.63078 0.95668 0.54772 0.20975
 -10   0  1030819.47 1818.77   1-0.71453 0.32327-0.59429 0.89069 0.36913 0.31961
 -10   0  1030090.85 1812.68   1-0.51136 0.12041-0.68242 0.97869 0.52230 0.16631
 -10   0   9 3003.22  450.88   1-0.72599 0.29153-0.62772 0.89448 0.28089 0.33898
 -10   0   9 2358.83  392.88   1-0.47578 0.04161-0.72504 0.99167 0.49794 0.12181
 -10   0   816359.25  802.87   1-0.73100 0.25334-0.65743 0.89455 0.18278 0.36821
 -10   0   818671.48  942.99   1-0.44336-0.03436-0.75999 0.99653 0.47521 0.07575
 -10   0   714835.87  742.26   1-0.72762 0.20673-0.68192 0.88939 0.07445 0.40771
 -10   0   715900.21  822.10   1-0.41579-0.10513-0.78713 0.99410 0.45556 0.02653
 -10   0   6 7094.63  641.61   1-0.71396 0.14986-0.69880 0.87663-0.04392 0.45721
 -10   0   6 6178.79  568.33   1-0.39340-0.17072-0.80756 0.98497 0.43939-0.02616
 -10   0   510250.00  543.08   1-0.68787 0.08048-0.70568 0.85386-0.16979 0.51422
 -10   0   5 8508.02  837.28   1-0.37696-0.23036-0.82171 0.96955 0.42740-0.08304
 -10   0   412898.43  610.00   1-0.64844-0.00215-0.70033 0.81888-0.29841 0.57395
 -10   0   3  969.65  172.77   1-0.59668-0.09713-0.68215 0.77105-0.42265 0.62931
 -10   0   261596.27 2575.76   1-0.53631-0.20072-0.65258 0.71185-0.53526 0.67303
 -10   0   256260.15 2380.59   1-0.37097-0.36594-0.82669 0.88583 0.42301-0.28527
 -10   0   120055.54 1151.79   1-0.47277-0.30752-0.61541 0.64504-0.63067 0.69953
 -10   0   119480.11 1143.02   1-0.38618-0.39394-0.81387 0.84343 0.43413-0.36526
 -10   0   0  614.15  168.36   1-0.41175-0.41175-0.57581 0.57581-0.70632 0.70632
 -10   0   0 1107.49  257.46   1-0.41166-0.41166-0.79100 0.79100 0.45259-0.45259
 -10   0  -1  794.12  241.47   1-0.35755-0.50915-0.53806 0.50843-0.76331 0.69444
 -10  -1  11  235.28  247.98   1-0.71682 0.34220-0.60007 0.84902 0.35506 0.40255
 -10  -1  11  234.79  220.76   1-0.48682 0.11252-0.71232 0.96118 0.50556 0.25191
 -10  -1  1029671.81 1752.74   1-0.72723 0.30941-0.63262 0.85193 0.26628 0.42245
 -10  -1  1032421.67 1927.26   1-0.44513 0.02720-0.75817 0.97683 0.47647 0.21224
 -10  -1   930694.04 1791.01   1-0.73109 0.27006-0.66103 0.85070 0.16891 0.45095
 -10  -1   930789.96 1782.76   1-0.40751-0.05361-0.79484 0.98394 0.44960 0.17023
 -10  -1   8  605.53  196.27   1-0.72676 0.22250-0.68398 0.84400 0.06304 0.48800
 -10  -1   8  478.80  326.64   1-0.37424-0.13008-0.82399 0.98351 0.42541 0.12556
 -10  -1   7 6474.08  598.49   1-0.71285 0.16539-0.69946 0.82984-0.05074 0.53292
 -10  -1   6 5628.24  603.32   1-0.68781 0.09705-0.70568 0.80640-0.17003 0.58334
 -10  -1   520791.76  951.62   1-0.65114 0.01717-0.70101 0.77209-0.29084 0.63527
 -10  -1   410308.05  873.84   1-0.60372-0.07346-0.68511 0.72657-0.40759 0.68314
 -10  -1   3  200.77  158.87   1-0.54841-0.17198-0.65902 0.67084-0.51471 0.72137
 -10  -1   2 9287.76  636.80   1-0.48942-0.27426-0.62558 0.60773-0.60754 0.74527
 -10  -1   120707.36 1487.44   1-0.43144-0.37544-0.58896 0.54149-0.68335 0.75221
 -10  -1   0 2370.80  339.12   1-0.37840-0.47169-0.55284 0.47574-0.74241 0.74241
 -10  -1  -1  336.04  147.24   1-0.33288-0.56041-0.52032 0.41357-0.78641 0.71755
 -10  -2  12 4719.54  578.21   1-0.71741 0.35943-0.60160 0.80309 0.35127 0.47522
 -10  -2  12 4038.41  540.62   1-0.46669 0.10854-0.73520 0.93599 0.49160 0.33486
 -10  -2  11 3053.81  483.85   1-0.72749 0.32630-0.63369 0.80554 0.26303 0.49458
 -10  -2  11 2233.64  389.43   1-0.42024 0.01890-0.78289 0.95411 0.45876 0.29883
 -10  -2  10 4261.32  558.02   1-0.73109 0.28670-0.66145 0.80366 0.16728 0.52145
 -10  -2  10 4213.10  557.35   1-0.37740-0.06714-0.82135 0.96300 0.42772 0.26099
 -10  -2   929824.82 1715.35   1-0.72686 0.23924-0.68375 0.79630 0.06436 0.55557
 -10  -2   813426.93  708.03   1-0.71379 0.18296-0.69890 0.78182-0.04499 0.59605
 -10  -2   7  160.66  196.36   1-0.69068 0.11654-0.70554 0.75879-0.15861 0.64081
  10   2  -7  264.87  173.21   1 0.27853 0.29562 0.89316-0.94654-0.35308-0.12906
 -10  -2   612229.89 1037.74   1-0.65725 0.03990-0.70241 0.72602-0.27318 0.68650
  10   2  -611628.12  975.08   1 0.25694 0.36038 0.90591-0.92964-0.33660-0.07667
 -10  -2   512310.39 1038.78   1-0.61420-0.04634-0.68928 0.68330-0.38422 0.72866
  10   2  -512173.54 1015.47   1 0.24225 0.41822 0.91404-0.90814-0.32531-0.01907
 -10  -2   4  958.12  220.91   1-0.56377-0.14000-0.66686 0.63124-0.48729 0.76284
  10   2  -4 1163.00  227.24   1 0.23508 0.46856 0.91786-0.88231-0.31978 0.04426
 -10  -2   3  569.90  282.78   1-0.50923-0.23775-0.63741 0.57215-0.57826 0.78492
  10   2  -3  297.77  175.38   1 0.23607 0.51073 0.91734-0.85215-0.32054 0.11390
 -10  -2   2  172.44  157.38   1-0.45442-0.33586-0.60386 0.50891-0.65486 0.79258
  10   2  -2  414.69  216.98   1 0.24597 0.54398 0.91202-0.81719-0.32818 0.19042
 -10  -2   112731.31  801.45   1-0.40290-0.43058-0.56980 0.44523-0.71622 0.78509
  10   2  -113641.17  856.49   1 0.26574 0.56738 0.90083-0.77636-0.34333 0.27445
 -10  -2   0 6995.78  806.31   1-0.35729-0.51939-0.53787 0.38366-0.76356 0.76356
 -10  -3  11 5942.86  887.68   1-0.73107 0.30332-0.65942 0.75418 0.17521 0.58241
 -10  -3  10 5322.95  687.30   1-0.72769 0.25670-0.68175 0.74684 0.07536 0.61345
 -10  -3   913504.06 1049.21   1-0.71613 0.20193-0.69732 0.73277-0.02987 0.64981
  10   3  -912377.00  932.76   1 0.27329 0.24107 0.89635-0.93195-0.34909-0.27081
 -10  -3   828599.88 1652.86   1-0.69546 0.13795-0.70507 0.71085-0.13859 0.68968
  10   3  -828765.52 1663.32   1 0.24061 0.31691 0.91493-0.92089-0.32404-0.22698
 -10  -3   7  559.32  273.77   1-0.66550 0.06478-0.70398 0.68012-0.24802 0.73022
  10   3  -7 1078.63  297.10   1 0.21409 0.38659 0.92846-0.90478-0.30351-0.17863
 -10  -3   6 5668.92  799.47   1-0.62680-0.01712-0.69386 0.64043-0.35449 0.76781
  10   3  -6 5891.38  639.86   1 0.19423 0.44961 0.93771-0.88439-0.28802-0.12524
 -10  -3   5 7758.02  552.34   1-0.58107-0.10607-0.67517 0.59211-0.45440 0.79884
  10   3  -5 6857.95  969.41   1 0.18153 0.50547 0.94324-0.86028-0.27807-0.06632
 -10  -3   4 1469.54  285.33   1-0.53091-0.19945-0.64963 0.53693-0.54415 0.81970
  10   3  -4 1272.13  287.74   1 0.17652 0.55364 0.94535-0.83275-0.27413-0.00138
 -10  -3   3  436.20  194.49   1-0.47945-0.29422-0.61952 0.47710-0.62154 0.82813
  10   3  -3  128.20  115.61   1 0.17978 0.59354 0.94398-0.80174-0.27670 0.07006
 -10  -3   2  718.68  231.68   1-0.42987-0.38700-0.58792 0.41587-0.68524 0.82296
  10   3  -2  548.28  185.05   1 0.19204 0.62444 0.93869-0.76681-0.28631 0.14855
 -10  -3   1 4367.51  636.51   1-0.38469-0.47538-0.55724 0.35556-0.73586 0.80472
  10   3  -1 3480.87  494.27   1 0.21424 0.64540 0.92838-0.72686-0.30363 0.23475
 -10  -4  11  745.78  320.39   1-0.72887 0.27451-0.67816 0.69579 0.09399 0.66371
 -10  -4  10 2306.64  433.81   1-0.71928 0.22172-0.69467 0.68266-0.00745 0.69628
  10   4 -10 1354.54  360.85   1 0.24784 0.24988 0.91100-0.89919-0.32961-0.35917
 -10  -4   9  505.01  311.25   1-0.70135 0.16047-0.70397 0.66228-0.11188 0.73186
  10   4  -9  420.54  236.77   1 0.21094 0.32994 0.92997-0.88852-0.30107-0.31884
 -10  -4   811367.28  902.32   1-0.67497 0.09088-0.70522 0.63389-0.21696 0.76805
 -10  -4   716816.18 1020.55   1-0.64055 0.01326-0.69816 0.59719-0.31977 0.80198
  10   4  -716314.21 1085.44   1 0.15574 0.47146 0.95358-0.85284-0.25773-0.22442
 -10  -4   6  155.26  194.24   1-0.59937-0.07114-0.68330 0.55279-0.41695 0.83027
  10   4  -6  351.76  117.69   1 0.13824 0.53212 0.95991-0.82953-0.24384-0.16943
 -10  -4   516380.70 1209.04   1-0.55353-0.16019-0.66168 0.50153-0.50573 0.85017
  10   4  -513256.91 1776.63   1 0.12801 0.58551 0.96335-0.80334-0.23569-0.10869
 -10  -4   4 9255.88 1060.68   1-0.50559-0.25147-0.63516 0.44526-0.58390 0.85935
  10   4  -4 9598.21 1459.17   1 0.12552 0.63116 0.96417-0.77451-0.23370-0.04181
 -10  -4   3  590.32  280.58   1-0.45833-0.34194-0.60635 0.38682-0.64982 0.85641
  10   4  -3  368.64  184.80   1 0.13128 0.66856 0.96227-0.74298-0.23830 0.03166
 -10  -4   2  599.73  271.20   1-0.41411-0.42936-0.57740 0.32825-0.70364 0.84136
  10   4  -2   95.72  115.15   1 0.14601 0.69699 0.95716-0.70823-0.25002 0.11226
 -10  -5  11 1139.90  290.47   1-0.72273 0.24180-0.69081 0.63133 0.02085 0.73684
  10   5 -11 1112.88  319.77   1 0.23002 0.25106 0.92049-0.86127-0.31587-0.44179
 -10  -5  10  126.60  189.57   1-0.70776 0.18363-0.70192 0.61281-0.07977 0.76859
  10   5 -10  348.45  200.30   1 0.18938 0.33486 0.93986-0.85099-0.28423-0.40455
 -10  -5   9 5310.49  648.36   1-0.68494 0.11749-0.70572 0.58693-0.18108 0.80106
  10   5  -9 3774.27  861.26   1 0.15475 0.41265 0.95395-0.83544-0.25695-0.36296
  10   5  -8 3306.28  628.95   1 0.12645 0.48411 0.96386-0.81572-0.23444-0.31658
 -10  -5   740809.09 2339.06   1-0.61795-0.03592-0.69070 0.51274-0.37557 0.85778
  10   5  -744478.45 2533.07   1 0.10422 0.54955 0.97047-0.79234-0.21753-0.26492
 -10  -5   6 8298.95  956.13   1-0.57640-0.12070-0.67299 0.46540-0.46350 0.87682
  10   5  -6 6624.36 1432.28   1 0.08952 0.60745 0.97451-0.76668-0.20569-0.20784
 -10  -5   512681.35  846.84   1-0.53214-0.20818-0.65031 0.41309-0.54214 0.88657
  10   5  -510692.51  764.66   1 0.08210 0.65807 0.97641-0.73887-0.19970-0.14491
 -10  -5   419119.90 1372.41   1-0.48749-0.29616-0.62442 0.35741-0.61028 0.88574
  10   5  -417353.54 1462.51   1 0.08236 0.70102 0.97634-0.70910-0.19990-0.07578
 -10  -5   3  582.74  279.43   1-0.44472-0.38213-0.59763 0.30100-0.66711 0.87370
  10   5  -3  163.24   91.46   1 0.09080 0.73577 0.97417-0.67722-0.20673-0.00003
 -10  -6  1120764.05 2052.97   1-0.71409 0.20659-0.69872 0.56214-0.04311 0.80081
  10   6 -1123325.23 2302.56   1 0.17558 0.33202 0.94574-0.80946-0.27339-0.48427
 -10  -6  10 3277.57  542.49   1-0.69487 0.14405-0.70514 0.53888-0.14110 0.82996
  10   6 -10 2349.94  491.11   1 0.13756 0.41320 0.96014-0.79422-0.24330-0.44548
 -10  -6   9  218.40  193.68   1-0.66870 0.07467-0.70447 0.50857-0.23779 0.85777
  10   6  -9  473.26  167.96   1 0.10516 0.48875 0.97020-0.77427-0.21828-0.40201
 -10  -6   8 3022.39  478.15   1-0.63630-0.00092-0.69688 0.47134-0.33085 0.88194
  10   6  -8 2697.70  607.36   1 0.07985 0.55725 0.97696-0.75133-0.19788-0.35349
 -10  -6   7 8610.98  699.20   1-0.59895-0.08152-0.68312 0.42809-0.41784 0.90005
  10   6  -7 6529.57 1642.60   1 0.06124 0.61907 0.98124-0.72590-0.18277-0.29968
 -10  -6   610419.14  833.92   1-0.55844-0.16524-0.66418 0.37952-0.49698 0.91030
  10   6  -6 7739.72 1454.08   1 0.04954 0.67397 0.98363-0.69858-0.17324-0.24029
 -10  -6   5 3450.84  523.50   1-0.51674-0.25017-0.64171 0.32741-0.56672 0.91116
  10   6  -5 2018.22  607.62   1 0.04504 0.72167 0.98448-0.66973-0.16957-0.17504
 -10  -6   4 4229.83  499.18   1-0.47584-0.33441-0.61730 0.27320-0.62650 0.90195
  10   6  -4 2706.04  714.52   1 0.04810 0.76181 0.98391-0.63945-0.17206-0.10362
 -10  -7   9 1255.69  361.28   1-0.65393 0.03332-0.70168 0.42867-0.28286 0.90284
  10   7  -9  202.47  185.13   1 0.06384 0.55660 0.98068-0.70754-0.18489-0.43540
 -10  -7   8  414.91  276.56   1-0.62075-0.04309-0.69172 0.38925-0.36902 0.92012
  10   7  -8  236.02  126.25   1 0.04177 0.62186 0.98508-0.68224-0.16690-0.38448
 -10  -7   7   75.84  180.41   1-0.58405-0.12301-0.67655 0.34444-0.44850 0.93071
  10   7  -7  660.34  225.72   1 0.02634 0.68050 0.98768-0.65512-0.15425-0.32820
 -11   8   213332.11 1370.55   1-0.74139 0.13505-0.17374 0.84921 0.64819-0.51047
 -11   8   1 3404.83  485.49   1-0.74340 0.09387-0.16356 0.80941 0.64853-0.57967
 -11   7   5 3827.69  549.02   1-0.72616 0.22288-0.24026 0.92757 0.64417-0.29988
 -11   7   412451.78 1377.51   1-0.72211 0.17564-0.25565 0.91333 0.64279-0.36737
 -11   7   3 3598.07  531.66   1-0.72022 0.13055-0.26258 0.89064 0.64212-0.43555
 -11   7   2  373.01  221.97   1-0.72082 0.08796-0.26040 0.85884 0.64234-0.50462
 -11   7   1 4066.51  639.01   1-0.72410 0.04804-0.24817 0.81700 0.64348-0.57463
 -11   7   0 2292.05  436.97   1-0.73008 0.01083-0.22456 0.76376 0.64539-0.64539
 -11   7  -1 3631.72  454.87   1-0.73851-0.02394-0.18763 0.69721 0.64760-0.71646
 -11   6   6 1774.85  381.47   1-0.70629 0.21968-0.30984 0.94965 0.63651-0.22336
 -11   6   5 5141.75  806.94   1-0.69903 0.16923-0.33201 0.94223 0.63333-0.28904
 -11   6   4  405.91  253.52   1-0.69420 0.12119-0.34608 0.92671 0.63111-0.35568
 -11   6   318242.91 1136.68   1-0.69225 0.07605-0.35159 0.90263 0.63020-0.42363
 -11   6   2 4100.98  554.13   1-0.69358 0.03418-0.34784 0.86929 0.63082-0.49311
 -11   6   1 1849.98  377.72   1-0.69844-0.00414-0.33376 0.82562 0.63306-0.56420
 -11   6   0 1784.25  351.41   1-0.70694-0.03885-0.30779 0.77006 0.63678-0.63678
 -11   6  -1 2161.03  398.87   1-0.71881-0.07017-0.26767 0.70022 0.64160-0.71046
 -11   5   7  567.55  327.57   1-0.68415 0.21416-0.37372 0.96607 0.62630-0.14430
 -11   5   6 2186.10  414.79   1-0.67298 0.15979-0.40232 0.96509 0.62067-0.20752
 -11   5   5 4772.13  629.75   1-0.66435 0.10796-0.42308 0.95626 0.61614-0.27185
 -11   5   4  188.00  217.45   1-0.65885 0.05927-0.43577 0.93936 0.61319-0.33775
 -11   5   3 6072.27  752.84   1-0.65702 0.01423-0.43993 0.91393 0.61219-0.40561
 -11   5   2 9553.86 1093.97   1-0.65929-0.02668-0.43479 0.87919 0.61342-0.47571
 -11   5   1  461.13  214.07   1-0.66601-0.06316-0.41916 0.83397 0.61702-0.54817
 -11   5   0 4107.74  604.61   1-0.67739-0.09497-0.39126 0.77649 0.62293-0.62293
 -11   5  -1 2652.64  424.38   1-0.69339-0.12217-0.34837 0.70401 0.63074-0.69959
 -11   4   8 1196.82  366.74   1-0.66082 0.20744-0.43128 0.97619 0.61425-0.06338
 -11   4   7 9252.55  816.21   1-0.64515 0.14858-0.46583 0.98114 0.60561-0.12361
 -11   4   6 5338.40  665.53   1-0.63206 0.09229-0.49267 0.97839 0.59813-0.18498
 -11   4   5  896.31  308.08   1-0.62221 0.03924-0.51181 0.96794 0.59236-0.24807
 -11   4   4  -35.52  200.40   1-0.61623-0.00993-0.52303 0.94957 0.58880-0.31337
 -11   4   3 4237.81  557.64   1-0.61443-0.05509-0.52558 0.92258 0.58841-0.38182
 -11   4   217423.81 1272.50   1-0.61811-0.09444-0.51953 0.88689 0.58993-0.45221
 -11   4   1 8960.31 1031.98   1-0.62694-0.12880-0.50271 0.84048 0.59515-0.52629
 -11   4   0  400.22  239.66   1-0.64153-0.15742-0.47343 0.78161 0.60357-0.60357
 -11   4  -1 5090.78  706.07   1-0.66201-0.18014-0.42854 0.70713 0.61489-0.68375
 -11   3   9 7539.11  859.72   1-0.65187 0.21476-0.47805 0.97616 0.58865 0.03119
 -11   3   9 9019.34 1052.12   1-0.63734 0.20058-0.48205 0.97950 0.60118 0.01854
 -11   3   8  774.13  242.96   1-0.67312 0.19281-0.51260 0.98107 0.53305 0.01793
 -11   3   8  202.97  250.73   1-0.61679 0.13683-0.52199 0.98985 0.58914-0.03827
 -11   3   7 9823.54 2144.51   1-0.69226 0.16875-0.54677 0.98559 0.47096 0.01114
 -11   3   710986.35  751.55   1-0.59847 0.07524-0.55398 0.99246 0.57872-0.09669
 -11   3   6 9063.05 1910.88   1-0.58371 0.01726-0.57869 0.98754 0.56955-0.15638
 -11   3   5 3651.88  353.03   1-0.57289-0.03676-0.59593 0.97516 0.56271-0.21840
 -11   3   4 2495.36  430.18   1-0.56666-0.08620-0.60554 0.95515 0.55874-0.28329
 -11   3   3  264.72  193.67   1-0.56566-0.13042-0.60707 0.92705 0.55810-0.35151
 -11   3   211857.05  916.58   1-0.57047-0.16882-0.59969 0.89004 0.56117-0.42345
 -11   3   134085.55 1983.83   1-0.58164-0.20087-0.58204 0.84276 0.56825-0.49939
 -11   3   0 8769.72  662.31   1-0.59966-0.22606-0.55192 0.78302 0.57946-0.57946
 -11   2   9 8059.15  627.86   1-0.69010 0.22645-0.54273 0.96374 0.47873 0.14111
 -11   2   9 9072.91  786.07   1-0.58883 0.12547-0.57028 0.99098 0.57275 0.04700
 -11   2   8 6692.06  781.52   1-0.70752 0.20066-0.57766 0.96903 0.40708 0.14389
 -11   2   8 6941.61  838.27   1-0.56561 0.05904-0.60715 0.99822 0.55807-0.00717
 -11   2   7  125.85  136.67   1-0.72092 0.17086-0.61126 0.97293 0.32652 0.15559
 -11   2   7  -47.50  229.50   1-0.54559-0.00418-0.63655 0.99800 0.54509-0.06305
 -11   2   616188.42  954.33   1-0.72930 0.13603-0.64252 0.97455 0.23510 0.17814
 -11   2   614165.83  900.60   1-0.52950-0.06349-0.65876 0.99058 0.53446-0.12129
 -11   2   515003.45  880.03   1-0.73046 0.09397-0.67015 0.97255 0.13157 0.21283
 -11   2   512138.11  796.02   1-0.51803-0.11817-0.67388 0.97608 0.52679-0.18248
 -11   2   4 2743.22  399.58   1-0.72203 0.04234-0.69169 0.96445 0.01470 0.26082
 -11   2   3 3538.98  370.19   1-0.51163-0.21101-0.68208 0.92503 0.52248-0.31589
 -11   2   2 1080.19  350.95   1-0.51800-0.24785-0.67393 0.88724 0.52677-0.38905
 -11   2   128864.88 1698.82   1-0.53162-0.27744-0.65590 0.83959 0.53587-0.46701
 -11   2   019973.38 1400.95   1-0.55316-0.29911-0.62567 0.77974 0.55003-0.55003
 -11   1  10 5150.90  738.41   1-0.69991 0.25290-0.56171 0.93527 0.44113 0.24759
 -11   1  10 5270.49  804.32   1-0.56302 0.11632-0.61107 0.98437 0.55640 0.13221
 -11   1   9 8250.52  669.21   1-0.71535 0.22513-0.59633 0.94018 0.36421 0.25565
 -11   1   9 9177.13  765.88   1-0.53452 0.04460-0.65196 0.99563 0.53779 0.08196
 -11   1   846987.6210155.01   1-0.72619 0.19277-0.62847 0.94269 0.27866 0.27233
 -11   1   844427.97 2568.25   1-0.50915-0.02397-0.68521 0.99925 0.52080 0.03008
 -11   1   7 7431.93  872.59   1-0.73099 0.15436-0.65723 0.94181 0.18352 0.29859
 -11   1   7 7553.75  932.19   1-0.48765-0.08869-0.71134 0.99576 0.50614-0.02410
 -11   1   612857.80  814.46   1-0.72791 0.10805-0.68115 0.93609 0.07855 0.33474
 -11   1   612168.06  788.82   1-0.47045-0.14940-0.73103 0.98545 0.49422-0.08098
 -11   1   519137.79 1115.82   1-0.71518 0.05212-0.69799 0.92329-0.03612 0.38053
 -11   1   517913.88 1083.73   1-0.45882-0.20422-0.74375 0.96860 0.48610-0.14174
 -11   1   4  700.79  154.58   1-0.69092-0.01543-0.70553 0.90118-0.15761 0.43316
 -11   1   4  888.42  259.95   1-0.45312-0.25312-0.74983 0.94511 0.48210-0.20661
 -11   1   3  518.33  128.84   1-0.65457-0.09499-0.70182 0.86784-0.28101 0.48767
 -11   1   3  851.71  277.34   1-0.45402-0.29542-0.74888 0.91459 0.48273-0.27612
 -11   1   2  627.08  270.72   1-0.46221-0.33043-0.74009 0.87624 0.48847-0.35073
 -11   1   1 5657.60  691.63   1-0.47843-0.35719-0.72202 0.82868 0.49978-0.43091
 -11   1   0 7500.98  863.69   1-0.50347-0.37536-0.69228 0.76932 0.51695-0.51695
 -11   0  10 6091.96  747.68   1-0.71943 0.24585-0.60703 0.90343 0.33752 0.35122
 -11   0  10 6832.61  880.47   1-0.50638 0.03313-0.68867 0.98494 0.51893 0.16968
 -11   0   9 1105.59  321.68   1-0.72841 0.21163-0.63789 0.90465 0.24999 0.36987
 -11   0   9 1162.99  360.72   1-0.47574-0.04072-0.72507 0.99171 0.49792 0.12183
 -11   0   828441.57 2020.95   1-0.73102 0.17102-0.66470 0.90182 0.15419 0.39680
 -11   0   828869.77 2068.83   1-0.44857-0.11148-0.75460 0.99114 0.47889 0.07207
 -11   0   717348.73 1270.02   1-0.72569 0.12247-0.68616 0.89363 0.05042 0.43175
 -11   0   715226.77 1159.02   1-0.42629-0.17696-0.77706 0.98403 0.46308 0.01901
 -11   0   6  681.48  247.32   1-0.71120 0.06477-0.70037 0.87820-0.06058 0.47387
 -11   0   6  284.51  193.46   1-0.40918-0.23727-0.79331 0.97071 0.45080-0.03757
 -11   0   513038.48  793.52   1-0.68628-0.00345-0.70572 0.85390-0.17598 0.52041
 -11   0   510685.07  702.36   1-0.39788-0.29177-0.80358 0.95142 0.44264-0.09828
 -11   0   4 6339.10  455.48   1-0.65086-0.08207-0.70094 0.81949-0.29163 0.56718
 -11   0   4 5268.70  459.50   1-0.39305-0.33980-0.80787 0.92614 0.43913-0.16365
 -11   0   3  534.68  211.32   1-0.60630-0.16985-0.68617 0.77507-0.40195 0.60861
 -11   0   3  287.05  185.70   1-0.39535-0.38070-0.80584 0.89454 0.44080-0.23419
 -11   0   2  136.37  135.72   1-0.55574-0.26363-0.66281 0.72208-0.50182 0.63960
 -11   0   2  213.12  168.47   1-0.40549-0.41375-0.79669 0.85583 0.44815-0.31040
 -11   0   1  165.08  162.69   1-0.42432-0.43813-0.77897 0.80854 0.46167-0.39280
 -11  -1  11 1761.93  369.32   1-0.72129 0.26435-0.61233 0.86128 0.32368 0.43393
 -11  -1  11 1546.56  314.96   1-0.48218 0.02558-0.71771 0.96657 0.50237 0.25510
 -11  -1  10  633.45  325.95   1-0.72926 0.22911-0.64230 0.86161 0.23583 0.45291
 -11  -1  10  328.02  235.72   1-0.44608-0.05418-0.75719 0.97585 0.47714 0.21157
 -11  -1   9 2810.06  465.03   1-0.73069 0.18730-0.66798 0.85763 0.14101 0.47892
 -11  -1   9 3485.42  506.17   1-0.41421-0.12925-0.78862 0.97771 0.45442 0.16541
 -11  -1   8 3238.37  453.74   1-0.72466 0.13807-0.68797 0.84799 0.03934 0.51170
 -11  -1   8 3357.42  493.80   1-0.38678-0.19988-0.81335 0.97288 0.43457 0.11639
 -11  -1   728800.84 2040.67   1-0.70995 0.08015-0.70098 0.83135-0.06775 0.54992
 -11  -1   6 7611.32  536.56   1-0.68579 0.01268-0.70572 0.80644-0.17786 0.59117
 -11  -1   5 3621.10  306.17   1-0.65232-0.06399-0.70130 0.77237-0.28749 0.63192
 -11  -1   417013.26 1248.72   1-0.61070-0.14882-0.68792 0.72938-0.39216 0.66771
 -11  -1   3 2238.70  358.74   1-0.56347-0.23927-0.66671 0.67853-0.48784 0.69450
 -11  -1   2  321.95  195.10   1-0.51392-0.33204-0.64010 0.62229-0.57109 0.70886
 -11  -1   1  269.57  140.51   1-0.46553-0.42371-0.61089 0.56342-0.64037 0.70924
 -11  -1   1  703.70  295.52   1-0.37157-0.51749-0.82620 0.77876 0.42345-0.35458
 -11  -2  11 8983.96  943.50   1-0.72941 0.24590-0.64317 0.81502 0.23297 0.52465
 -11  -2  1110168.50 1098.57   1-0.42178-0.06188-0.78142 0.95264 0.45986 0.29772
 -11  -2  10  445.88  284.41   1-0.73066 0.20391-0.66829 0.81048 0.13970 0.54912
 -11  -2  10  376.20  237.84   1-0.38515-0.14172-0.81475 0.95641 0.43339 0.25533
 -11  -2   9  255.58  204.93   1-0.72479 0.15483-0.68776 0.80031 0.04069 0.57924
 -11  -2   8 1037.10  300.75   1-0.71084 0.09768-0.70055 0.78346-0.06265 0.61371
 -11  -2   712372.90  944.68   1-0.68828 0.03180-0.70567 0.75891-0.16820 0.65040
 -11  -2   614325.11 1071.13   1-0.65730-0.04237-0.70242 0.72604-0.27302 0.68634
 -11  -2   5 2614.15  625.68   1-0.61888-0.12401-0.69104 0.68506-0.37341 0.71785
  11   2  -5 2789.36  393.65   1 0.27996 0.46284 0.89228-0.88638-0.35417 0.00977
 -11  -2   413507.46  848.23   1-0.57506-0.21105-0.67235 0.63673-0.46608 0.74163
  11   2  -414989.32  944.30   1 0.27803 0.50793 0.89347-0.85792-0.35270 0.07718
 -11  -2   319982.24 1401.12   1-0.52853-0.30080-0.64832 0.58307-0.54801 0.75468
  11   2  -321998.00 1546.89   1 0.28390 0.54522 0.88984-0.82466-0.35716 0.15052
 -11  -2   2  202.69  153.82   1-0.48224-0.39039-0.62123 0.52628-0.61766 0.75539
 -11  -3  1116330.05 1661.75   1-0.73081 0.22069-0.66638 0.76111 0.14778 0.60991
 -11  -3  10 9218.75 1041.54   1-0.72579 0.17247-0.68597 0.75106 0.05152 0.63729
 -11  -3   9  846.48  351.59   1-0.71325 0.11672-0.69923 0.73468-0.04834 0.66828
 -11  -3   8 1642.70  434.47   1-0.69278 0.05294-0.70537 0.71115-0.14994 0.70103
  11   3  -8  430.64  208.17   1 0.26826 0.37158 0.89934-0.90530-0.34526-0.20577
 -11  -3   7 4339.96  579.38   1-0.66461-0.01843-0.70383 0.67997-0.25079 0.73300
  11   3  -7 4293.42  539.71   1 0.24783 0.43517 0.91100-0.88732-0.32961-0.15254
 -11  -3   610533.63  712.28   1-0.62954-0.09671-0.69470 0.64120-0.34792 0.76124
  11   3  -6 9176.32 1037.79   1 0.23377 0.49239 0.91854-0.86522-0.31877-0.09449
 -11  -3   515510.06  980.37   1-0.58917-0.18031-0.67886 0.59580-0.43819 0.78262
  11   3  -515062.11  927.84   1 0.22656 0.54276 0.92226-0.83930-0.31319-0.03119
 -11  -3   4    6.84  174.25   1-0.54575-0.26695-0.65762 0.54492-0.51930 0.79485
  11   3  -4  590.91  327.01   1 0.22671 0.58577 0.92219-0.80958-0.31331 0.03779
  11   3  -321734.67 2329.10   1 0.23481 0.62083 0.91800-0.77576-0.31957 0.11294
 -11  -4  1014573.61 1598.32   1-0.71658 0.13668-0.69698 0.68497-0.02680 0.71563
  11   4 -1016068.71 1763.34   1 0.26960 0.31044 0.89855-0.88674-0.34628-0.34250
 -11  -4   9 1443.42  341.08   1-0.69854 0.07532-0.70457 0.66288-0.12494 0.74492
  11   4  -9 1965.97  367.61   1 0.23916 0.38404 0.91570-0.87425-0.32293-0.29697
 -11  -4   8  392.31  285.32   1-0.67336 0.00693-0.70505 0.63373-0.22243 0.77352
  11   4  -8  326.24  221.76   1 0.21451 0.45185 0.92825-0.85716-0.30385-0.24718
 -11  -4   7 2014.22  355.14   1-0.64169-0.06793-0.69849 0.59753-0.31675 0.79896
  11   4  -7 2376.88  529.34   1 0.19603 0.51349 0.93690-0.83617-0.28944-0.19271
 -11  -4   6  625.22  285.96   1-0.60481-0.14804-0.68556 0.55505-0.40520 0.81853
  11   4  -6  307.49  135.79   1 0.18411 0.56857 0.94214-0.81177-0.28010-0.13317
 -11  -4   5 1610.43  340.99   1-0.56460-0.23147-0.66727 0.50712-0.48576 0.83020
  11   4  -5  653.92  207.53   1 0.17915 0.61669 0.94425-0.78423-0.27620-0.06819
 -11  -4   413132.95 1452.30   1-0.52316-0.31613-0.64533 0.45556-0.55662 0.83217
  11   4  -411859.26 1405.07   1 0.18163 0.65738 0.94320-0.75355-0.27815 0.00263
 -11  -5  1012198.28 1245.18   1-0.70494 0.09847-0.70294 0.61382-0.09444 0.78327
  11   5 -1012708.69 1286.52   1 0.21746 0.38911 0.92681-0.83795-0.30613-0.38265
 -11  -5   9 1235.93  321.90   1-0.68283 0.03303-0.70570 0.58690-0.18900 0.80897
  11   5  -9 1223.07  424.14   1 0.18903 0.46070 0.94001-0.82151-0.28395-0.33595
 -11  -5   8  479.33  219.59   1-0.65460-0.03840-0.70183 0.55340-0.28093 0.83202
  11   5  -8  781.10  244.18   1 0.16661 0.52628 0.94937-0.80122-0.26632-0.28470
  11   5  -7  812.43  236.24   1 0.15050 0.58554 0.95553-0.77774-0.25358-0.22856
 -11  -5   6   29.83  178.29   1-0.58430-0.19514-0.67666 0.46907-0.44800 0.86132
  11   5  -6  139.15  102.46   1 0.14103 0.63818 0.95893-0.75150-0.24606-0.16720
 -11  -5   5 2639.99  401.39   1-0.54558-0.27708-0.65753 0.42031-0.51959 0.86403
  11   5  -5 1171.92  420.87   1 0.13856 0.68381 0.95979-0.72273-0.24410-0.10029
 -12   6   4  743.20  317.52   1-0.69148 0.03618-0.35375 0.93438 0.62984-0.35441
 -12   6   3   60.91  200.92   1-0.69102-0.00747-0.35503 0.90607 0.62962-0.42305
 -12   6   2 2405.65  342.85   1-0.69383-0.04786-0.34713 0.86858 0.63094-0.49322
 -12   5   6 4805.89  597.92   1-0.66850 0.07301-0.41322 0.97599 0.61833-0.20519
 -12   5   5 6977.28  812.28   1-0.66168 0.02300-0.42928 0.96246 0.61471-0.27042
 -12   5   4 1174.13  326.54   1-0.65810-0.02377-0.43749 0.94107 0.61278-0.33734
 -12   5   3 3309.05  524.81   1-0.65818-0.06689-0.43731 0.91130 0.61282-0.40625
 -12   5   2  516.49  231.40   1-0.66228-0.10599-0.42790 0.87231 0.61504-0.47732
 -12   5   1 7636.72  829.07   1-0.67067-0.14080-0.40798 0.82279 0.61947-0.55061
 -12   4   7 8810.57  993.95   1-0.64057 0.06170-0.47541 0.99073 0.60302-0.12102
 -12   4   6 1272.88  301.26   1-0.62975 0.00768-0.49724 0.98296 0.59679-0.18364
 -12   4   5 7555.88  658.57   1-0.62230-0.04295-0.51164 0.96777 0.59241-0.24812
 -12   4   410392.27  834.36   1-0.61875-0.08970-0.51834 0.94488 0.59031-0.31487
 -12   4   3  757.25  346.38   1-0.61957-0.13207-0.51679 0.91374 0.59080-0.38422
 -12   4   2  826.53  313.56   1-0.62520-0.16964-0.50608 0.87344 0.59413-0.45641
 -12   4   1   93.52  175.52   1-0.63598-0.20206-0.48480 0.82257 0.60040-0.53154
 -12   3   8 2728.21  407.31   1-0.61201 0.04969-0.53000 0.99811 0.58696-0.03606
 -12   3   723928.09 2595.15   1-0.59678-0.00876-0.55689 0.99537 0.57768-0.09564
 -12   3   613266.91 1027.64   1-0.58496-0.06379-0.57665 0.98550 0.57033-0.15716
 -12   3   5 4769.48  670.80   1-0.57714-0.11482-0.58923 0.96846 0.56541-0.22110
 -12   3   414478.70 1079.26   1-0.57388-0.16129-0.59437 0.94397 0.56335-0.28790
 -12   3   3 1383.00  397.88   1-0.57570-0.20268-0.59151 0.91148 0.56450-0.35792
 -12   3   2  276.79  250.42   1-0.58309-0.23851-0.57969 0.87003 0.56917-0.43144
 -12   3   1  780.60  277.66   1-0.59650-0.26832-0.55737 0.81809 0.57751-0.50865
 -12   2   8 1813.76  298.87   1-0.71160 0.12241-0.58729 0.97860 0.38562 0.16537
 -12   2   8 1979.67  395.03   1-0.56465-0.02422-0.60860 0.99968 0.55745-0.00655
 -12   2   7 3450.20  534.67   1-0.54815-0.08394-0.63291 0.99436 0.54676-0.06472
 -12   2   6 6599.48 1287.11   1-0.53566-0.13964-0.65040 0.98223 0.53854-0.12537
 -12   2   5 2713.19  449.07   1-0.52777-0.19074-0.66107 0.96327 0.53331-0.18900
 -12   2   4 6239.74  863.29   1-0.52507-0.23666-0.66467 0.93724 0.53151-0.25606
 -12   2   3 9196.95  709.65   1-0.52810-0.27684-0.66064 0.90358 0.53353-0.32694
 -12   2   2  837.98  253.30   1-0.53742-0.31074-0.64798 0.86130 0.53971-0.40198
 -12   2   1  318.70  165.90   1-0.55357-0.33780-0.62508 0.80877 0.55029-0.48143
 -12   1   9 5151.90  595.18   1-0.71885 0.14630-0.60544 0.94929 0.34160 0.27827
 -12   1   9 4739.72  573.29   1-0.53432-0.03789-0.65223 0.99590 0.53766 0.08209
 -12   1   8  575.42  204.29   1-0.72786 0.11210-0.63531 0.94953 0.25804 0.29295
 -12   1   8  899.81  305.35   1-0.51302-0.10241-0.68031 0.99436 0.52342 0.02747
 -12   1   7   27.34  148.57   1-0.73109 0.07213-0.66161 0.94618 0.16664 0.31547
 -12   1   7  298.26  245.18   1-0.49570-0.16295-0.70177 0.98618 0.51166-0.02962
 -12   1   6 8465.58  960.57   1-0.72713 0.02494-0.68314 0.93807 0.06777 0.34551
 -12   1   6 7251.80  878.26   1-0.48296-0.21890-0.71681 0.97161 0.50291-0.08973
 -12   1   519825.14 1214.86   1-0.47538-0.26969-0.72549 0.95065 0.49766-0.15335
 -12   1   4  966.35  331.85   1-0.47342-0.31516-0.72771 0.92299 0.49628-0.22079
 -12   1   331017.05 2156.36   1-0.47802-0.35348-0.72248 0.88839 0.49950-0.29291
 -12   1   2 4731.68  691.28   1-0.48943-0.38528-0.70924 0.84552 0.50736-0.36964
 -12   0   9  926.15  315.01   1-0.48080-0.11797-0.71930 0.98594 0.50142 0.11833
 -12   0   8  982.50  288.20   1-0.73060 0.08825-0.66889 0.90600 0.13710 0.41395
 -12   0   8  504.00  385.82   1-0.45839-0.18399-0.74422 0.98076 0.48580 0.06517
 -12   0   7  953.11  275.55   1-0.72461 0.03906-0.68805 0.89552 0.03888 0.44328
 -12   0   7 1403.40  336.55   1-0.44084-0.24475-0.76257 0.96954 0.47343 0.00867
 -12   0   6 4154.20  579.96   1-0.71059-0.01816-0.70067 0.87851-0.06408 0.47737
 -12   0   6 3315.90  509.40   1-0.42838-0.30041-0.77502 0.95242 0.46457-0.05134
 -12   0   5 9437.51  715.41   1-0.68802-0.08405-0.70568 0.85386-0.16923 0.51366
 -12   0   5 9130.54  707.29   1-0.42157-0.35041-0.78162 0.92946 0.45971-0.11535
 -12   0   4 3931.09  601.90   1-0.42099-0.39420-0.78218 0.90045 0.45929-0.18380
 -12   0   3 4175.38  604.25   1-0.42722-0.43116-0.77615 0.86485 0.46374-0.25713
 -12   0   213567.59 1357.89   1-0.44092-0.46066-0.76248 0.82162 0.47349-0.33574
 -12  -1   9 6564.35  818.00   1-0.73020 0.10448-0.67200 0.86165 0.12332 0.49661
 -12  -1   9 5654.37  740.47   1-0.42543-0.20036-0.77790 0.96699 0.46246 0.15737
 -12  -1   8 1111.19  305.48   1-0.72340 0.05447-0.68990 0.84991 0.02696 0.52409
 -12  -1   8  975.45  383.29   1-0.40318-0.26582-0.79881 0.95834 0.44647 0.10449
 -12  -1   7  298.05  188.25   1-0.70902-0.00310-0.70140 0.83177-0.07292 0.55510
 -12  -1   7  616.83  265.21   1-0.38593-0.32626-0.81408 0.94404 0.43395 0.04814
 -12  -1   6 1069.72  274.21   1-0.68679-0.06865-0.70571 0.80642-0.17401 0.58733
 -12  -1   6  906.70  352.66   1-0.37420-0.38119-0.82402 0.92441 0.42538-0.01215
 -12  -1   5 3427.73  523.01   1-0.65717-0.14147-0.70240 0.77348-0.27339 0.61782
 -12  -1   4 8151.30  928.01   1-0.62140-0.22047-0.69196 0.73342-0.36747 0.64302
 -12  -1   3 2979.86  391.35   1-0.58162-0.30347-0.67543 0.68725-0.45332 0.65998
 -12  -1   3 2904.27  379.26   1-0.37764-0.50735-0.82114 0.83284 0.42790-0.22128
 -12  -2   911838.82 1328.88   1-0.72344 0.07115-0.68983 0.80238 0.02739 0.59254
 -12  -2   910950.20 1223.96   1-0.37066-0.28173-0.82695 0.93903 0.42279 0.19705
 -12  -2   8 7111.01  839.74   1-0.70964 0.01414-0.70112 0.78403-0.06949 0.62054
 -12  -2   7  946.85  315.85   1-0.68857-0.05024-0.70566 0.75890-0.16705 0.64925
 -12  -2   6  422.22  188.98   1-0.66071-0.12130-0.70312 0.72673-0.26280 0.67612
 -12  -2   5 2137.75  361.00   1-0.62712-0.19812-0.69397 0.68799-0.35371 0.69814
 -12  -2   4 1661.88  279.33   1-0.58958-0.27887-0.67905 0.64343-0.43734 0.71289
 -12  -3   910651.00 1125.63   1-0.71184 0.03298-0.70003 0.73548-0.05679 0.67674
 -12  -3   814548.99 1604.97   1-0.69246-0.02972-0.70540 0.71118-0.15128 0.70237
 -12  -3   7 1780.32  357.32   1-0.66676-0.09863-0.70418 0.68032-0.24403 0.72624
  12   3  -7 1301.94  269.48   1 0.28285 0.48248 0.89050-0.86682-0.35636-0.12578
 -12  -3   6  976.34  272.09   1-0.63562-0.17297-0.69666 0.64317-0.33260 0.74592
  12   3  -6  258.22  180.91   1 0.27387 0.53462 0.89600-0.84268-0.34953-0.06373
 -12  -3   5  819.55  261.54   1-0.60052-0.25131-0.68378 0.60072-0.41449 0.75892
  12   3  -5  749.12  250.74   1 0.27147 0.58018 0.89743-0.81448-0.34771 0.00331
 -13   2   5 1352.50  296.46   1-0.54102-0.25981-0.64299 0.94518 0.54208-0.19777
 -13   1   6  702.59  235.20   1-0.49858-0.28558-0.69828 0.95307 0.51362-0.10045
;
_shelx_hkl_checksum              15458
#END Tags that were not found in dictionaries
loop_
_space_group_symop_operation_xyz
'x, y, z'
'-x, -y, -z'
loop_
_atom_site_label
_atom_site_type_symbol
_atom_site_fract_x
_atom_site_fract_y
_atom_site_fract_z
_atom_site_U_iso_or_equiv
_atom_site_adp_type
_atom_site_occupancy
_atom_site_site_symmetry_order
_atom_site_calc_flag
_atom_site_refinement_flags_posn
Br1 Br 0.22412(3) 0.42967(3) 0.62184(3) 0.03269(10) Uani 1 1 d .
S1 S 0.16296(7) 0.66108(6) 0.26158(7) 0.02408(14) Uani 1 1 d .
O1 O 0.1989(2) 0.7504(2) 0.4267(2) 0.0312(4) Uani 1 1 d .
O2 O 0.0371(2) 0.6696(2) 0.1341(2) 0.0293(4) Uani 1 1 d .
N1 N 0.1227(2) 0.4830(2) 0.2179(3) 0.0253(4) Uani 1 1 d .
C1 C 0.2073(3) 0.4404(3) 0.3437(3) 0.0231(4) Uani 1 1 d .
H1A H 0.3011 0.5271 0.4326 0.028 Uiso 1 1 calc R
C2 C 0.1004(3) 0.4147(3) 0.4080(3) 0.0263(5) Uani 1 1 d .
H2 H 0.0534 0.4962 0.4223 0.032 Uiso 1 1 calc R
C3 C -0.0282(3) 0.2614(3) 0.2911(3) 0.0320(5) Uani 1 1 d .
H3A H -0.0914 0.2590 0.1889 0.038 Uiso 1 1 calc R
H3B H -0.0938 0.2496 0.3361 0.038 Uiso 1 1 calc R
C4 C 0.0365(3) 0.1283(3) 0.2598(3) 0.0326(5) Uani 1 1 d .
H4A H 0.0683 0.1095 0.3515 0.039 Uiso 1 1 calc R
H4B H -0.0452 0.0367 0.1642 0.039 Uiso 1 1 calc R
C5 C 0.1724(3) 0.1563(3) 0.2342(3) 0.0270(5) Uani 1 1 d .
C6 C 0.2240(3) 0.0340(3) 0.1748(3) 0.0341(6) Uani 1 1 d .
H6 H 0.1704 -0.0640 0.1460 0.041 Uiso 1 1 calc R
C7 C 0.3530(3) 0.0562(3) 0.1582(3) 0.0374(6) Uani 1 1 d .
H7 H 0.3852 -0.0267 0.1182 0.045 Uiso 1 1 calc R
C8 C 0.4348(3) 0.2011(3) 0.2008(3) 0.0367(6) Uani 1 1 d .
H8 H 0.5228 0.2164 0.1913 0.044 Uiso 1 1 calc R
C9 C 0.3838(3) 0.3231(3) 0.2579(3) 0.0296(5) Uani 1 1 d .
H9 H 0.4373 0.4205 0.2850 0.035 Uiso 1 1 calc R
C10 C 0.2537(3) 0.3021(3) 0.2753(3) 0.0241(5) Uani 1 1 d .
C11 C 0.3313(3) 0.7100(3) 0.2505(3) 0.0248(5) Uani 1 1 d .
C12 C 0.3242(3) 0.6474(3) 0.1007(3) 0.0315(5) Uani 1 1 d .
H12 H 0.2324 0.5775 0.0067 0.038 Uiso 1 1 calc R
C13 C 0.4561(3) 0.6902(3) 0.0930(3) 0.0349(6) Uani 1 1 d .
H13 H 0.4526 0.6468 -0.0068 0.042 Uiso 1 1 calc R
C14 C 0.5929(3) 0.7969(3) 0.2318(3) 0.0326(5) Uani 1 1 d .
C15 C 0.5972(3) 0.8567(3) 0.3804(3) 0.0319(5) Uani 1 1 d .
H15 H 0.6886 0.9275 0.4744 0.038 Uiso 1 1 calc R
C16 C 0.4677(3) 0.8130(3) 0.3913(3) 0.0288(5) Uani 1 1 d .
H16 H 0.4726 0.8522 0.4918 0.035 Uiso 1 1 calc R
C17 C 0.7348(4) 0.8487(4) 0.2231(4) 0.0504(8) Uani 1 1 d .
H17A H 0.7705 0.7635 0.1877 0.076 Uiso 1 1 calc GR
H17B H 0.8150 0.9284 0.3288 0.076 Uiso 1 1 calc GR
H17C H 0.7092 0.8871 0.1473 0.076 Uiso 1 1 calc GR
H1 H 0.093(3) 0.431(3) 0.130(4) 0.031(8) Uiso 1 1 d .
loop_
_atom_site_aniso_label
_atom_site_aniso_U_11
_atom_site_aniso_U_22
_atom_site_aniso_U_33
_atom_site_aniso_U_23
_atom_site_aniso_U_13
_atom_site_aniso_U_12
Br1 0.03558(16) 0.04177(17) 0.02985(16) 0.02227(12) 0.01856(13) 0.01575(12)
S1 0.0278(3) 0.0212(3) 0.0248(3) 0.0119(2) 0.0136(2) 0.0085(2)
O1 0.0387(10) 0.0268(9) 0.0282(9) 0.0105(7) 0.0195(8) 0.0108(8)
O2 0.0303(9) 0.0276(9) 0.0309(9) 0.0164(7) 0.0130(8) 0.0129(7)
N1 0.0305(11) 0.0223(10) 0.0233(10) 0.0125(9) 0.0126(9) 0.0071(8)
C1 0.0218(11) 0.0251(11) 0.0244(11) 0.0138(9) 0.0119(9) 0.0066(9)
C2 0.0266(12) 0.0350(13) 0.0263(12) 0.0194(10) 0.0157(10) 0.0135(10)
C3 0.0237(12) 0.0396(14) 0.0373(14) 0.0224(12) 0.0162(11) 0.0075(10)
C4 0.0308(13) 0.0298(13) 0.0375(14) 0.0194(11) 0.0158(11) 0.0048(10)
C5 0.0276(12) 0.0273(12) 0.0245(11) 0.0143(10) 0.0102(10) 0.0083(10)
C6 0.0428(15) 0.0251(12) 0.0293(13) 0.0141(10) 0.0130(12) 0.0109(11)
C7 0.0467(16) 0.0367(15) 0.0338(14) 0.0178(12) 0.0207(13) 0.0257(13)
C8 0.0354(14) 0.0480(17) 0.0401(15) 0.0258(13) 0.0236(13) 0.0220(13)
C9 0.0300(12) 0.0330(13) 0.0327(13) 0.0194(11) 0.0181(11) 0.0107(10)
C10 0.0246(11) 0.0257(11) 0.0237(11) 0.0136(9) 0.0117(9) 0.0087(9)
C11 0.0276(11) 0.0207(11) 0.0286(12) 0.0143(9) 0.0141(10) 0.0076(9)
C12 0.0321(13) 0.0308(13) 0.0274(12) 0.0139(10) 0.0131(11) 0.0046(10)
C13 0.0411(15) 0.0368(14) 0.0345(14) 0.0202(12) 0.0229(12) 0.0119(12)
C14 0.0309(13) 0.0353(14) 0.0430(15) 0.0274(12) 0.0197(12) 0.0129(11)
C15 0.0256(12) 0.0282(13) 0.0357(14) 0.0158(11) 0.0104(11) 0.0069(10)
C16 0.0312(13) 0.0256(12) 0.0282(12) 0.0137(10) 0.0129(11) 0.0099(10)
C17 0.0381(16) 0.068(2) 0.062(2) 0.0440(18) 0.0288(16) 0.0143(15)
loop_
_atom_type_symbol
_atom_type_description
_atom_type_scat_dispersion_real
_atom_type_scat_dispersion_imag
_atom_type_scat_source
C C 0.0033 0.0016 'International Tables Vol C Tables 4.2.6.8 and 6.1.1.4'
H H 0.0000 0.0000 'International Tables Vol C Tables 4.2.6.8 and 6.1.1.4'
Br Br -0.2901 2.4595 'International Tables Vol C Tables 4.2.6.8 and 6.1.1.4'
N N 0.0061 0.0033 'International Tables Vol C Tables 4.2.6.8 and 6.1.1.4'
O O 0.0106 0.0060 'International Tables Vol C Tables 4.2.6.8 and 6.1.1.4'
S S 0.1246 0.1234 'International Tables Vol C Tables 4.2.6.8 and 6.1.1.4'
loop_
_geom_angle_atom_site_label_1
_geom_angle_atom_site_label_2
_geom_angle_atom_site_label_3
_geom_angle
O1 S1 O2 119.26(11)
O1 S1 N1 107.36(11)
O1 S1 C11 108.22(11)
O2 S1 N1 106.55(11)
O2 S1 C11 107.58(11)
N1 S1 C11 107.33(11)
S1 N1 H1 111(2)
C1 N1 S1 119.99(17)
C1 N1 H1 122(2)
N1 C1 H1A 108.7
N1 C1 C2 106.05(18)
N1 C1 C10 111.27(19)
C2 C1 H1A 108.7
C10 C1 H1A 108.7
C10 C1 C2 113.25(19)
Br1 C2 H2 108.4
C1 C2 Br1 108.96(15)
C1 C2 H2 108.4
C3 C2 Br1 110.75(16)
C3 C2 C1 111.9(2)
C3 C2 H2 108.4
C2 C3 H3A 109.3
C2 C3 H3B 109.3
C2 C3 C4 111.4(2)
H3A C3 H3B 108.0
C4 C3 H3A 109.3
C4 C3 H3B 109.3
C3 C4 H4A 108.8
C3 C4 H4B 108.8
H4A C4 H4B 107.7
C5 C4 C3 113.6(2)
C5 C4 H4A 108.8
C5 C4 H4B 108.8
C6 C5 C4 119.3(2)
C10 C5 C4 122.2(2)
C10 C5 C6 118.5(2)
C5 C6 H6 119.4
C7 C6 C5 121.1(2)
C7 C6 H6 119.4
C6 C7 H7 119.8
C6 C7 C8 120.4(2)
C8 C7 H7 119.8
C7 C8 H8 120.5
C7 C8 C9 119.1(2)
C9 C8 H8 120.5
C8 C9 H9 119.5
C8 C9 C10 121.0(2)
C10 C9 H9 119.5
C5 C10 C1 121.6(2)
C9 C10 C1 118.5(2)
C9 C10 C5 119.9(2)
C12 C11 S1 119.68(19)
C16 C11 S1 119.44(19)
C16 C11 C12 120.9(2)
C11 C12 H12 120.4
C11 C12 C13 119.2(2)
C13 C12 H12 120.4
C12 C13 H13 119.5
C14 C13 C12 121.0(2)
C14 C13 H13 119.5
C13 C14 C15 118.6(2)
C13 C14 C17 121.2(3)
C15 C14 C17 120.2(3)
C14 C15 H15 119.3
C16 C15 C14 121.3(2)
C16 C15 H15 119.3
C11 C16 C15 119.0(2)
C11 C16 H16 120.5
C15 C16 H16 120.5
C14 C17 H17A 109.5
C14 C17 H17B 109.5
C14 C17 H17C 109.5
H17A C17 H17B 109.5
H17A C17 H17C 109.5
H17B C17 H17C 109.5
loop_
_geom_bond_atom_site_label_1
_geom_bond_atom_site_label_2
_geom_bond_distance
Br1 C2 1.968(2)
S1 O1 1.4332(18)
S1 O2 1.4403(18)
S1 N1 1.617(2)
S1 C11 1.768(2)
N1 C1 1.482(3)
N1 H1 0.74(3)
C1 H1A 0.9800
C1 C2 1.523(3)
C1 C10 1.510(3)
C2 H2 0.9800
C2 C3 1.516(4)
C3 H3A 0.9700
C3 H3B 0.9700
C3 C4 1.527(4)
C4 H4A 0.9700
C4 H4B 0.9700
C4 C5 1.509(3)
C5 C6 1.399(4)
C5 C10 1.395(3)
C6 H6 0.9300
C6 C7 1.378(4)
C7 H7 0.9300
C7 C8 1.383(4)
C8 H8 0.9300
C8 C9 1.388(4)
C9 H9 0.9300
C9 C10 1.393(3)
C11 C12 1.387(3)
C11 C16 1.383(3)
C12 H12 0.9300
C12 C13 1.389(4)
C13 H13 0.9300
C13 C14 1.387(4)
C14 C15 1.389(4)
C14 C17 1.511(4)
C15 H15 0.9300
C15 C16 1.387(4)
C16 H16 0.9300
C17 H17A 0.9600
C17 H17B 0.9600
C17 H17C 0.9600
loop_
_geom_hbond_atom_site_label_D
_geom_hbond_atom_site_label_H
_geom_hbond_atom_site_label_A
_geom_hbond_distance_DH
_geom_hbond_distance_HA
_geom_hbond_distance_DA
_geom_hbond_angle_DHA
_geom_hbond_site_symmetry_A
N1 H1 O2 0.74(3) 2.18(3) 2.895(3) 161(3) 2_565
loop_
_geom_torsion_atom_site_label_1
_geom_torsion_atom_site_label_2
_geom_torsion_atom_site_label_3
_geom_torsion_atom_site_label_4
_geom_torsion
Br1 C2 C3 C4 -62.5(2)
S1 N1 C1 C2 100.3(2)
S1 N1 C1 C10 -136.17(18)
S1 C11 C12 C13 178.1(2)
S1 C11 C16 C15 -176.71(18)
O1 S1 N1 C1 -35.8(2)
O1 S1 C11 C12 -175.34(19)
O1 S1 C11 C16 3.3(2)
O2 S1 N1 C1 -164.59(17)
O2 S1 C11 C12 -45.2(2)
O2 S1 C11 C16 133.43(19)
N1 S1 C11 C12 69.1(2)
N1 S1 C11 C16 -112.3(2)
N1 C1 C2 Br1 -160.28(15)
N1 C1 C2 C3 76.9(2)
N1 C1 C10 C5 -102.4(2)
N1 C1 C10 C9 79.5(3)
C1 C2 C3 C4 59.3(3)
C2 C1 C10 C5 17.0(3)
C2 C1 C10 C9 -161.1(2)
C2 C3 C4 C5 -43.1(3)
C3 C4 C5 C6 -168.2(2)
C3 C4 C5 C10 15.0(3)
C4 C5 C6 C7 -176.3(2)
C4 C5 C10 C1 -1.8(3)
C4 C5 C10 C9 176.3(2)
C5 C6 C7 C8 0.2(4)
C6 C5 C10 C1 -178.6(2)
C6 C5 C10 C9 -0.5(3)
C6 C7 C8 C9 -1.0(4)
C7 C8 C9 C10 1.1(4)
C8 C9 C10 C1 177.8(2)
C8 C9 C10 C5 -0.3(4)
C10 C1 C2 Br1 77.4(2)
C10 C1 C2 C3 -45.4(3)
C10 C5 C6 C7 0.6(4)
C11 S1 N1 C1 80.40(19)
C11 C12 C13 C14 -1.5(4)
C12 C11 C16 C15 1.9(4)
C12 C13 C14 C15 2.1(4)
C12 C13 C14 C17 -177.5(3)
C13 C14 C15 C16 -0.6(4)
C14 C15 C16 C11 -1.3(4)
C16 C11 C12 C13 -0.6(4)
C17 C14 C15 C16 178.9(3)
