#------------------------------------------------------------------------------
#$Date: 2016-02-18 17:37:37 +0200 (Thu, 18 Feb 2016) $
#$Revision: 176729 $
#$URL: svn://www.crystallography.net/cod/cif/1/51/67/1516712.cif $
#------------------------------------------------------------------------------
#
# This file is available in the Crystallography Open Database (COD),
# http://www.crystallography.net/
#
# All data on this site have been placed in the public domain by the
# contributors.
#
data_1516712
loop_
_publ_author_name
'Feng, Xin'
'Wang, Huiqing'
'Yang, Bo'
'Fan, Renhua'
_publ_section_title
;
 One-Pot Synthesis of Highly Substituted 4-Acetonylindoles via Sequential
 Dearomatization and Silver-Catalyzed Domino Reaction.
;
_journal_issue                   13
_journal_name_full               'Organic letters'
_journal_page_first              3600
_journal_page_last               3603
_journal_paper_doi               10.1021/ol501678v
_journal_volume                  16
_journal_year                    2014
_chemical_formula_sum            'C28 H27 N O3 S'
_chemical_formula_weight         457.56
_chemical_name_systematic
; 
 ? 
;
_space_group_crystal_system      monoclinic
_space_group_IT_number           14
_space_group_name_Hall           '-P 2yn'
_space_group_name_H-M_alt        'P 1 21/n 1'
_symmetry_space_group_name_Hall  '-P 2yn'
_symmetry_space_group_name_H-M   'P 1 21/n 1'
_atom_sites_solution_hydrogens   geom
_audit_creation_method           SHELXL-2013
_cell_angle_alpha                90
_cell_angle_beta                 90.843(6)
_cell_angle_gamma                90
_cell_formula_units_Z            4
_cell_length_a                   12.055(5)
_cell_length_b                   8.557(4)
_cell_length_c                   23.454(10)
_cell_measurement_reflns_used    917
_cell_measurement_temperature    293(2)
_cell_measurement_theta_max      26.451
_cell_measurement_theta_min      2.920
_cell_volume                     2419.1(18)
_computing_cell_refinement       'Bruker SMART'
_computing_data_collection       'Bruker SMART'
_computing_data_reduction        'Bruker SHELXTL'
_computing_molecular_graphics    'Bruker SHELXTL'
_computing_publication_material  'Bruker SHELXTL'
_computing_structure_refinement  'SHELXL-2013 (Sheldrick, 2013)'
_computing_structure_solution    'Bruker SHELXTL'
_diffrn_ambient_temperature      293(2)
_diffrn_measured_fraction_theta_full 0.972
_diffrn_measured_fraction_theta_max 0.998
_diffrn_measurement_device_type  'CCD area detector'
_diffrn_measurement_method       'phi and omega scans'
_diffrn_radiation_type           MoK\a
_diffrn_radiation_wavelength     0.71073
_diffrn_reflns_av_R_equivalents  0.0824
_diffrn_reflns_av_unetI/netI     0.0653
_diffrn_reflns_Laue_measured_fraction_full 0.972
_diffrn_reflns_Laue_measured_fraction_max 0.998
_diffrn_reflns_limit_h_max       13
_diffrn_reflns_limit_h_min       -14
_diffrn_reflns_limit_k_max       10
_diffrn_reflns_limit_k_min       -10
_diffrn_reflns_limit_l_max       22
_diffrn_reflns_limit_l_min       -27
_diffrn_reflns_number            9745
_diffrn_reflns_point_group_measured_fraction_full 0.972
_diffrn_reflns_point_group_measured_fraction_max 0.998
_diffrn_reflns_theta_full        25.242
_diffrn_reflns_theta_max         25.010
_diffrn_reflns_theta_min         1.737
_exptl_absorpt_coefficient_mu    0.163
_exptl_absorpt_correction_T_max  1.000
_exptl_absorpt_correction_T_min  -0.092
_exptl_absorpt_correction_type   multi-scan
_exptl_absorpt_process_details   sadabs
_exptl_crystal_colour            colorless
_exptl_crystal_density_diffrn    1.256
_exptl_crystal_description       block
_exptl_crystal_F_000             968
_exptl_crystal_size_max          0.570
_exptl_crystal_size_mid          0.410
_exptl_crystal_size_min          0.400
_refine_diff_density_max         0.508
_refine_diff_density_min         -0.408
_refine_diff_density_rms         0.074
_refine_ls_extinction_method     none
_refine_ls_goodness_of_fit_ref   0.980
_refine_ls_hydrogen_treatment    constr
_refine_ls_matrix_type           full
_refine_ls_number_parameters     301
_refine_ls_number_reflns         4258
_refine_ls_number_restraints     6
_refine_ls_restrained_S_all      0.984
_refine_ls_R_factor_all          0.1101
_refine_ls_R_factor_gt           0.0772
_refine_ls_shift/su_max          0.000
_refine_ls_shift/su_mean         0.000
_refine_ls_structure_factor_coef Fsqd
_refine_ls_weighting_details
; 
 w=1/[\s^2^(Fo^2^)+(0.1549P)^2^] 
 where P=(Fo^2^+2Fc^2^)/3 
;
_refine_ls_weighting_scheme      calc
_refine_ls_wR_factor_gt          0.2028
_refine_ls_wR_factor_ref         0.2410
_reflns_Friedel_coverage         0.000
_reflns_number_gt                2615
_reflns_number_total             4258
_reflns_threshold_expression     'I > 2\s(I)'
_cod_data_source_file            ol501678v_si_002.cif
_cod_data_source_block           a31203a
_cod_depositor_comments          'Adding full bibliography for 1516712.cif.'
_cod_database_code               1516712
#BEGIN Tags that were not found in dictionaries:
_shelx_space_group_comment
; 
The symmetry employed for this shelxl refinement is uniquely defined 
by the following loop, which should always be used as a source of 
symmetry information in preference to the above space-group names. 
They are only intended as comments. 
;
_shelx_estimated_absorpt_t_min   0.913
_shelx_estimated_absorpt_t_max   0.938
_shelxl_version_number           2013-2
_shelx_res_file
; 
TITL a31203a in P2(1)/n 
CELL 0.71073  12.0553   8.5570  23.4536  90.000  90.843  90.000 
ZERR    4.00   0.0053   0.0038   0.0102   0.000   0.006   0.000 
LATT 1 
SYMM 0.5-X, 0.5+Y, 0.5-Z 
SFAC C  H  N  O  S 
UNIT 112 108 4 12 4 
OMIT  -2.00  50.02 
L.S. 20 
ACTA 
BOND 
FMAP 2 
PLAN 1 
SIZE 0.57 0.41 0.40 
ISOR 0.02 C10 
CONF 
TEMP 20 
WGHT    0.154900 
FVAR       0.29016 
MOLE 1 
S1    5   -0.109344    0.154196    0.147157    11.00000    0.06065    0.07207 = 
         0.09311   -0.00408   -0.00570   -0.01049 
N1    3   -0.056914    0.316508    0.119987    11.00000    0.06350    0.06049 = 
         0.07755   -0.00431   -0.00058    0.00039 
O1    4   -0.198869    0.196985    0.182189    11.00000    0.05344    0.10131 = 
         0.11517    0.00303    0.01309   -0.00768 
O2    4   -0.128358    0.053395    0.100096    11.00000    0.09411    0.08747 = 
         0.10422   -0.01775   -0.02250   -0.02195 
O3    4    0.359139    0.544475    0.076439    11.00000    0.08358    0.07576 = 
         0.13283    0.01004   -0.02963    0.01244 
C1    1   -0.048146    0.464296    0.148859    11.00000    0.06439    0.06221 = 
         0.07794   -0.01083    0.00355    0.00121 
C2    1    0.025232    0.550626    0.120683    11.00000    0.06348    0.06313 = 
         0.07518   -0.01240    0.00177    0.00381 
AFIX  43 
H2    2    0.044358    0.652878    0.129991    11.00000   -1.20000 
AFIX   0 
C3    1    0.070082    0.465049    0.074575    11.00000    0.05350    0.06062 = 
         0.06900   -0.00640   -0.00697    0.00780 
C4    1    0.147676    0.502552    0.033331    11.00000    0.05130    0.06458 = 
         0.07666   -0.00442   -0.00590    0.01390 
C5    1    0.174338    0.391289   -0.007500    11.00000    0.05748    0.08383 = 
         0.06542   -0.00559   -0.00307    0.01807 
C6    1    0.120624    0.245519   -0.005683    11.00000    0.07315    0.07572 = 
         0.07553   -0.01838   -0.00975    0.02200 
AFIX  43 
H6    2    0.138627    0.171114   -0.032929    11.00000   -1.20000 
AFIX   0 
C7    1    0.043245    0.207509    0.034101    11.00000    0.06997    0.06391 = 
         0.07880   -0.01353   -0.00946    0.00839 
AFIX  43 
H7    2    0.008337    0.110590    0.033541    11.00000   -1.20000 
AFIX   0 
C8    1    0.018511    0.317689    0.075200    11.00000    0.05540    0.06387 = 
         0.07203   -0.00607   -0.00832    0.01042 
C9    1   -0.115775    0.505978    0.197627    11.00000    0.09218    0.08367 = 
         0.09055   -0.01156    0.01950   -0.00430 
AFIX  13 
H9    2   -0.194406    0.478291    0.193758    11.00000   -1.20000 
AFIX   0 
C10   1   -0.093660    0.652869    0.228665    11.00000    0.18226    0.08724 = 
         0.16185   -0.04539    0.09831   -0.02973 
AFIX  23 
H10A  2   -0.030376    0.714849    0.217258    11.00000   -1.20000 
H10B  2   -0.156835    0.712651    0.241623    11.00000   -1.20000 
AFIX   0 
C11   1   -0.072127    0.502528    0.255497    11.00000    0.16519    0.23200 = 
         0.10697   -0.05586    0.01324    0.02582 
AFIX  23 
H11A  2    0.004667    0.471516    0.261055    11.00000   -1.20000 
H11B  2   -0.121641    0.469321    0.285390    11.00000   -1.20000 
AFIX   0 
C12   1    0.200391    0.660724    0.033911    11.00000    0.05359    0.07407 = 
         0.07809    0.00056   -0.00044    0.01067 
AFIX  23 
H12A  2    0.152796    0.732163    0.054354    11.00000   -1.20000 
H12B  2    0.205253    0.697984   -0.005032    11.00000   -1.20000 
AFIX   0 
C13   1    0.314584    0.664892    0.060925    11.00000    0.06088    0.07084 = 
         0.06566    0.00341    0.00122    0.01294 
C14   1    0.372172    0.816530    0.067980    11.00000    0.05078    0.07456 = 
         0.06517   -0.00021    0.00304    0.01031 
C15   1    0.323651    0.958562    0.055869    11.00000    0.05419    0.07698 = 
         0.09176    0.00477   -0.00691    0.00939 
AFIX  43 
H15   2    0.250813    0.961043    0.042275    11.00000   -1.20000 
AFIX   0 
C16   1    0.380333    1.097448    0.063385    11.00000    0.06948    0.07235 = 
         0.10467    0.00516   -0.00355    0.01137 
AFIX  43 
H16   2    0.344752    1.191704    0.055679    11.00000   -1.20000 
AFIX   0 
C17   1    0.488813    1.097601    0.082143    11.00000    0.06492    0.07961 = 
         0.07848   -0.00509    0.00270    0.00257 
C18   1    0.538450    0.954823    0.093618    11.00000    0.05734    0.09405 = 
         0.09400   -0.00616   -0.00673    0.00836 
AFIX  43 
H18   2    0.611973    0.952061    0.106153    11.00000   -1.20000 
AFIX   0 
C19   1    0.481138    0.817385    0.086832    11.00000    0.06073    0.08128 = 
         0.09145    0.00202   -0.00307    0.01427 
AFIX  43 
H19   2    0.516338    0.723180    0.095081    11.00000   -1.20000 
AFIX   0 
C20   1    0.551977    1.247816    0.089507    11.00000    0.08520    0.08979 = 
         0.12164   -0.00402   -0.00141   -0.00857 
AFIX 137 
H20A  2    0.548338    1.281125    0.128521    11.00000   -1.50000 
H20B  2    0.519901    1.326578    0.065225    11.00000   -1.50000 
H20C  2    0.628046    1.231714    0.079480    11.00000   -1.50000 
AFIX   0 
C21   1    0.259338    0.421751   -0.051732    11.00000    0.07904    0.10739 = 
         0.09237   -0.00830    0.00538    0.02046 
AFIX 137 
H21A  2    0.241885    0.517385   -0.071294    11.00000   -1.50000 
H21B  2    0.259654    0.337038   -0.078565    11.00000   -1.50000 
H21C  2    0.331173    0.430433   -0.033802    11.00000   -1.50000 
AFIX   0 
C22   1   -0.004050    0.074225    0.189885    11.00000    0.06654    0.05739 = 
         0.08590   -0.00606   -0.00169   -0.00849 
C23   1    0.084138   -0.004073    0.165660    11.00000    0.08002    0.07301 = 
         0.08768   -0.00397    0.00644    0.00471 
AFIX  43 
H23   2    0.088939   -0.011872    0.126223    11.00000   -1.20000 
AFIX   0 
C24   1    0.163970   -0.069742    0.199906    11.00000    0.07816    0.07563 = 
         0.11401   -0.00811    0.00295    0.01005 
AFIX  43 
H24   2    0.223522   -0.120526    0.183260    11.00000   -1.20000 
AFIX   0 
C25   1    0.158573   -0.062707    0.258472    11.00000    0.08477    0.06857 = 
         0.10819   -0.00343   -0.01616    0.00396 
C26   1    0.071205    0.016726    0.281957    11.00000    0.09757    0.09113 = 
         0.08813   -0.00581   -0.00633    0.00549 
AFIX  43 
H26   2    0.066808    0.024618    0.321407    11.00000   -1.20000 
AFIX   0 
C27   1   -0.009581    0.084551    0.248412    11.00000    0.07595    0.08681 = 
         0.08790   -0.00515    0.00319    0.00761 
AFIX  43 
H27   2   -0.068071    0.137491    0.265164    11.00000   -1.20000 
AFIX   0 
C28   1    0.244961   -0.140951    0.295810    11.00000    0.11897    0.12376 = 
         0.12933   -0.00075   -0.03168    0.02600 
AFIX 137 
H28A  2    0.304024   -0.179115    0.272590    11.00000   -1.50000 
H28B  2    0.211834   -0.226703    0.315726    11.00000   -1.50000 
H28C  2    0.274035   -0.066860    0.322889    11.00000   -1.50000 
AFIX   0 
HKLF 4 
  
REM  a31203a in P2(1)/n 
REM R1 =  0.0772 for    2615 Fo > 4sig(Fo)  and  0.1101 for all    4258 data 
REM    301 parameters refined using      6 restraints 
  
END 
  
WGHT      0.1558      0.0000 
  
REM Highest difference peak  0.508,  deepest hole -0.408,  1-sigma level  0.074 
Q1    1  -0.0699  0.1521  0.1827  11.00000  0.05    0.51 
;
_shelx_res_checksum              72982
_shelx_hkl_file
; 
  -1  -1 -29   -0.54    0.58 
   0  -1 -29   -0.09    0.61 
   1  -1 -29    0.16    0.63 
   2  -1 -29   -0.02    0.67 
   3  -1 -29   -0.06    0.66 
   4  -1 -29    0.13    0.81 
  -1   0 -29    2.16    0.67 
   0   0 -29   -0.14    0.54 
   1   0 -29    1.27    0.64 
   2   0 -29   -0.37    0.61 
   3   0 -29   -0.05    0.64 
   4   0 -29    0.68    0.74 
  -1   1 -29    0.55    0.60 
   0   1 -29   -0.08    0.56 
   1   1 -29    0.26    0.53 
   2   1 -29   -0.03    0.55 
   3   1 -29    0.12    0.63 
   0   2 -29    0.22    0.61 
   1   2 -29   -0.50    0.51 
   2   2 -29    0.00    0.51 
   3   2 -29    0.22    0.55 
   1   3 -29    0.02    0.67 
   2   3 -29   -0.01    0.61 
   0  -3 -28    0.80    0.73 
   1  -3 -28    0.33    0.58 
  -3  -2 -28    2.50    0.84 
  -2  -2 -28    0.56    0.73 
  -1  -2 -28    0.54    0.60 
   0  -2 -28    0.06    0.60 
   1  -2 -28    0.10    0.63 
   2  -2 -28    0.28    0.66 
   3  -2 -28    0.20    0.69 
   4  -2 -28    0.03    0.82 
   5  -2 -28    0.55    0.87 
  -3  -1 -28    1.41    0.71 
  -2  -1 -28    0.34    0.69 
  -1  -1 -28    0.56    0.59 
   0  -1 -28    0.55    0.62 
   1  -1 -28   -0.13    0.54 
   3  -1 -28    0.60    0.63 
   4  -1 -28    0.65    0.72 
   5  -1 -28   -0.08    0.79 
  -4   0 -28    0.79    0.76 
  -3   0 -28   -0.79    0.64 
  -2   0 -28    0.99    0.60 
  -1   0 -28    0.41    0.53 
   0   0 -28    1.52    0.60 
   1   0 -28   -0.30    0.47 
   2   0 -28    1.23    0.61 
   3   0 -28    0.79    0.64 
   4   0 -28    2.06    0.73 
  -3   1 -28    0.81    0.66 
  -2   1 -28    0.15    0.61 
  -1   1 -28   -0.02    0.54 
   0   1 -28    0.74    0.56 
   1   1 -28    0.04    0.49 
   2   1 -28   -0.57    0.47 
   3   1 -28    0.25    0.52 
   4   1 -28    0.23    0.64 
  -3   2 -28    1.63    0.66 
  -2   2 -28   -0.39    0.48 
  -1   2 -28    0.29    0.57 
   0   2 -28   -0.39    0.55 
   1   2 -28   -0.53    0.52 
   2   2 -28    0.57    0.52 
   3   2 -28   -0.02    0.48 
  -1   3 -28   -0.17    0.57 
   0   3 -28   -0.18    0.52 
   1   3 -28    0.06    0.55 
   2   3 -28   -0.17    0.53 
   4   3 -28   -0.04    0.61 
   0   4 -28    0.06    0.25 
   1   4 -28   -0.10    0.29 
   2   4 -28   -0.14    0.48 
   0  -4 -27    0.71    0.85 
  -4  -3 -27    5.12    1.04 
  -3  -3 -27    1.07    0.75 
  -2  -3 -27    0.69    0.78 
  -1  -3 -27    0.22    0.67 
   0  -3 -27    3.96    0.75 
   1  -3 -27   -0.19    0.66 
   2  -3 -27    1.14    0.75 
   3  -3 -27    0.69    0.82 
   4  -3 -27   -0.41    0.79 
   5  -3 -27    0.17    0.95 
  -5  -2 -27    0.58    0.80 
  -4  -2 -27    0.36    0.73 
  -3  -2 -27    0.82    0.72 
  -2  -2 -27    0.48    0.65 
  -1  -2 -27   -0.08    0.56 
   0  -2 -27   -0.04    0.48 
   1  -2 -27   -0.48    0.57 
   2  -2 -27    0.53    0.59 
   4  -2 -27    0.87    0.75 
   5  -2 -27    1.17    0.82 
   6  -2 -27    0.88    1.05 
  -6  -1 -27    0.62    0.79 
  -5  -1 -27    0.19    0.67 
  -4  -1 -27   -0.03    0.67 
  -3  -1 -27    0.82    0.66 
  -2  -1 -27    2.59    0.66 
  -1  -1 -27    1.79    0.61 
   0  -1 -27    1.10    0.58 
   1  -1 -27   -0.19    0.51 
   2  -1 -27    0.25    0.56 
   3  -1 -27    0.46    0.58 
   4  -1 -27    0.50    0.66 
   5  -1 -27    0.56    0.74 
  -5   0 -27   -0.72    0.68 
  -4   0 -27   -0.37    0.62 
  -3   0 -27   -0.40    0.58 
  -2   0 -27    0.05    0.53 
  -1   0 -27   14.20    0.98 
   0   0 -27    0.41    0.52 
   1   0 -27    1.16    0.56 
   2   0 -27   -0.10    0.46 
   3   0 -27    0.92    0.57 
   4   0 -27    0.09    0.60 
   5   0 -27    1.71    0.70 
  -5   1 -27   -0.42    0.60 
  -4   1 -27    0.04    0.59 
  -3   1 -27    0.13    0.54 
  -2   1 -27    1.68    0.66 
  -1   1 -27    1.00    0.56 
   0   1 -27    0.66    0.54 
   1   1 -27    0.12    0.47 
   2   1 -27   -0.17    0.47 
   3   1 -27    0.22    0.53 
   4   1 -27    0.51    0.61 
  -4   2 -27   -0.83    0.59 
  -3   2 -27   -0.26    0.55 
  -2   2 -27    0.35    0.53 
  -1   2 -27    0.32    0.50 
   0   2 -27   -0.11    0.47 
   1   2 -27   -0.29    0.47 
   2   2 -27   -0.13    0.46 
   3   2 -27    0.23    0.47 
  -3   3 -27    0.78    0.65 
  -2   3 -27   -0.41    0.53 
   0   3 -27    2.95    0.67 
   1   3 -27   -0.20    0.31 
   2   3 -27    0.28    0.37 
   3   3 -27   -0.19    0.46 
   4   3 -27    0.65    0.58 
   5   3 -27   -0.04    0.82 
   6   3 -27   -0.01    0.91 
  -2   4 -27   -0.36    0.58 
  -1   4 -27   -0.04    0.59 
   0   4 -27    0.45    0.20 
   1   4 -27    0.16    0.28 
   2   4 -27   -0.11    0.30 
   3   4 -27   -0.09    0.56 
   4   4 -27    0.39    0.62 
   0   5 -27   -0.20    0.57 
   1   5 -27   -0.38    0.54 
  -5  -4 -26    3.00    0.98 
  -4  -4 -26   -0.19    0.86 
  -3  -4 -26    0.59    0.80 
  -2  -4 -26    0.33    0.75 
  -1  -4 -26    2.11    0.87 
   0  -4 -26    0.48    0.84 
   1  -4 -26    0.67    0.74 
   2  -4 -26    0.38    0.75 
   3  -4 -26    0.49    0.82 
   4  -4 -26    0.37    0.83 
   5  -4 -26    0.53    0.93 
  -6  -3 -26   -0.13    0.91 
  -5  -3 -26    3.86    0.98 
  -4  -3 -26   -0.09    0.78 
  -3  -3 -26    0.57    0.73 
  -2  -3 -26    0.18    0.69 
  -1  -3 -26    0.03    0.63 
   0  -3 -26    1.47    0.66 
   1  -3 -26    0.48    0.63 
   2  -3 -26    0.39    0.64 
   3  -3 -26    0.04    0.70 
   4  -3 -26   -0.27    0.67 
   5  -3 -26    0.45    0.79 
   6  -3 -26    0.45    0.88 
   7  -3 -26    1.22    1.12 
  -7  -2 -26    0.56    0.94 
  -6  -2 -26    0.42    0.81 
  -5  -2 -26    2.35    0.81 
  -4  -2 -26    2.42    0.78 
  -3  -2 -26    0.74    0.64 
  -2  -2 -26   -0.23    0.58 
  -1  -2 -26    0.65    0.60 
   0  -2 -26    0.63    0.58 
   1  -2 -26   -0.31    0.53 
   2  -2 -26   -0.28    0.50 
   3  -2 -26    0.15    0.62 
   4  -2 -26    2.13    0.79 
   5  -2 -26    1.53    0.78 
   6  -2 -26    3.11    1.09 
  -7  -1 -26   -0.34    0.80 
  -6  -1 -26   -0.73    0.67 
  -5  -1 -26   -0.25    0.64 
  -4  -1 -26    0.45    0.59 
  -3  -1 -26    0.54    0.55 
  -2  -1 -26    0.33    0.58 
  -1  -1 -26    4.99    0.74 
   0  -1 -26    1.20    0.54 
   1  -1 -26   -0.17    0.54 
   2  -1 -26    0.01    0.53 
   3  -1 -26    0.32    0.57 
   4  -1 -26    0.68    0.63 
   5  -1 -26    0.72    0.71 
   6  -1 -26    0.45    0.86 
  -7   0 -26   -0.93    0.77 
  -6   0 -26    0.61    0.75 
  -5   0 -26   -0.85    0.65 
  -4   0 -26    0.99    0.68 
  -3   0 -26    0.20    0.55 
  -2   0 -26    0.22    0.53 
  -1   0 -26    0.24    0.51 
   0   0 -26    4.20    0.64 
   1   0 -26    0.12    0.47 
   2   0 -26    4.45    0.68 
   3   0 -26    0.04    0.54 
   5   0 -26    0.04    0.62 
  -6   1 -26   -0.04    0.66 
  -5   1 -26   -0.52    0.55 
  -4   1 -26   -0.03    0.55 
  -3   1 -26   -0.16    0.47 
  -2   1 -26   -0.22    0.40 
  -1   1 -26    5.23    0.74 
   0   1 -26    0.87    0.53 
   1   1 -26    0.19    0.47 
   2   1 -26   -0.08    0.44 
   4   1 -26    0.16    0.55 
  -6   2 -26    0.27    0.71 
  -5   2 -26    1.33    0.71 
  -4   2 -26    1.44    0.64 
  -3   2 -26   -0.02    0.50 
  -2   2 -26   -0.19    0.49 
  -1   2 -26   -0.26    0.43 
   0   2 -26   -0.22    0.42 
   1   2 -26   -0.53    0.48 
   2   2 -26    0.08    0.45 
   3   2 -26    0.07    0.44 
   4   2 -26    0.86    0.62 
   5   2 -26   -0.26    0.76 
   6   2 -26    1.29    1.31 
   7   2 -26   -0.16    1.18 
  -5   3 -26    3.14    0.91 
  -4   3 -26   -0.22    0.60 
  -3   3 -26   -0.16    0.52 
  -2   3 -26   -0.05    0.50 
  -1   3 -26   -0.29    0.43 
   0   3 -26    0.52    0.25 
   1   3 -26    0.32    0.31 
   2   3 -26   -0.07    0.46 
   3   3 -26   -0.11    0.34 
   4   3 -26    0.19    0.58 
   5   3 -26    0.01    0.67 
   6   3 -26   -0.24    0.87 
   7   3 -26    1.32    1.61 
  -3   4 -26    0.73    0.59 
  -2   4 -26   -0.17    0.57 
  -1   4 -26    1.18    0.59 
   0   4 -26    0.00    0.48 
   1   4 -26    0.18    0.25 
   2   4 -26    0.08    0.28 
   3   4 -26    0.01    0.50 
   4   4 -26    0.24    0.56 
   5   4 -26    0.12    0.67 
  -2   5 -26    0.40    0.64 
  -1   5 -26   -0.16    0.55 
   0   5 -26   -0.20    0.59 
   1   5 -26   -0.06    0.21 
   2   5 -26    0.11    0.34 
  -5  -5 -25    0.41    1.12 
  -4  -5 -25    0.10    1.06 
  -3  -5 -25    0.91    1.06 
  -2  -5 -25    0.44    0.94 
  -1  -5 -25   -0.18    0.82 
   0  -5 -25    0.38    0.95 
   1  -5 -25    0.76    0.90 
   2  -5 -25    0.78    0.89 
   3  -5 -25    1.28    0.86 
  -6  -4 -25    1.62    0.97 
  -5  -4 -25    0.92    0.85 
  -4  -4 -25    0.31    0.78 
  -3  -4 -25    1.55    0.83 
  -2  -4 -25    1.13    0.75 
  -1  -4 -25    0.98    0.77 
   0  -4 -25    1.11    0.82 
   1  -4 -25    0.47    0.70 
   2  -4 -25    0.91    0.74 
   3  -4 -25    0.71    0.78 
   4  -4 -25    0.43    0.78 
   5  -4 -25    0.20    0.77 
   6  -4 -25    1.30    1.11 
   7  -4 -25    1.18    1.27 
  -7  -3 -25    0.74    1.02 
  -6  -3 -25    3.71    1.03 
  -5  -3 -25    0.49    0.77 
  -4  -3 -25    0.28    0.70 
  -3  -3 -25   -0.25    0.68 
  -2  -3 -25    1.36    0.70 
  -1  -3 -25    0.07    0.63 
   0  -3 -25    0.11    0.54 
   1  -3 -25    0.32    0.62 
   2  -3 -25   -0.03    0.63 
   3  -3 -25    0.08    0.64 
   4  -3 -25    0.34    0.67 
   5  -3 -25    1.01    0.85 
   7  -3 -25    0.07    0.95 
  -8  -2 -25    0.00    0.87 
  -7  -2 -25    0.30    0.81 
  -6  -2 -25    0.57    0.75 
  -5  -2 -25    0.09    0.67 
  -4  -2 -25    0.43    0.64 
  -3  -2 -25    0.17    0.60 
  -2  -2 -25    0.67    0.59 
  -1  -2 -25    0.05    0.58 
   0  -2 -25    0.07    0.54 
   1  -2 -25    0.13    0.53 
   2  -2 -25    0.62    0.61 
   3  -2 -25   -0.27    0.57 
   4  -2 -25    1.13    0.72 
   5  -2 -25    0.96    0.84 
   6  -2 -25    0.80    0.95 
  -8  -1 -25   -0.28    0.81 
  -7  -1 -25   -0.20    0.73 
  -6  -1 -25   -0.87    0.64 
  -5  -1 -25   -0.48    0.62 
  -4  -1 -25    0.37    0.61 
  -3  -1 -25    0.66    0.58 
  -2  -1 -25    1.47    0.50 
  -1  -1 -25    0.51    0.50 
   0  -1 -25    1.47    0.56 
   1  -1 -25    6.04    0.77 
   2  -1 -25    3.45    0.70 
   3  -1 -25   -0.43    0.55 
   4  -1 -25    1.53    0.61 
   5  -1 -25    2.86    0.77 
   6  -1 -25    1.96    0.90 
  -8   0 -25    0.30    0.77 
  -7   0 -25   -0.20    0.66 
  -6   0 -25   -0.02    0.60 
  -5   0 -25   -0.26    0.58 
  -4   0 -25    0.32    0.61 
  -3   0 -25   -0.01    0.44 
  -2   0 -25   -0.04    0.48 
  -1   0 -25    8.20    0.78 
   0   0 -25    0.53    0.48 
   1   0 -25    0.78    0.52 
   2   0 -25    0.44    0.51 
   3   0 -25    0.20    0.55 
   4   0 -25    0.04    0.59 
   5   0 -25    0.23    0.60 
  -8   1 -25   -0.86    0.71 
  -7   1 -25   -0.15    0.65 
  -6   1 -25   -0.35    0.62 
  -5   1 -25   -0.42    0.57 
  -4   1 -25    0.13    0.53 
  -3   1 -25    0.10    0.46 
  -2   1 -25    1.01    0.46 
  -1   1 -25    0.32    0.43 
   0   1 -25    1.47    0.56 
   1   1 -25    6.54    0.70 
   2   1 -25    2.76    0.55 
   3   1 -25    0.63    0.47 
   4   1 -25    0.64    0.57 
  -7   2 -25    0.08    0.63 
  -6   2 -25   -0.01    0.61 
  -5   2 -25   -0.05    0.57 
  -4   2 -25    0.51    0.58 
  -3   2 -25   -0.23    0.48 
  -2   2 -25    0.44    0.47 
  -1   2 -25   -0.29    0.45 
   0   2 -25   -0.04    0.41 
   1   2 -25    0.18    0.47 
   2   2 -25    0.43    0.35 
   3   2 -25    0.29    0.34 
   4   2 -25    0.90    0.39 
   5   2 -25   -0.13    0.78 
   6   2 -25    0.32    1.25 
   7   2 -25    1.31    1.14 
   8   2 -25    0.62    1.37 
  -6   3 -25    2.15    0.72 
  -5   3 -25   -0.19    0.61 
  -4   3 -25    0.25    0.56 
  -3   3 -25   -0.03    0.41 
  -2   3 -25    1.08    0.55 
  -1   3 -25    0.21    0.49 
   0   3 -25   -0.22    0.40 
   1   3 -25   -0.10    0.28 
   2   3 -25    0.25    0.31 
   3   3 -25   -0.07    0.35 
   4   3 -25    0.17    0.59 
   5   3 -25   -0.28    0.65 
   6   3 -25    0.17    0.84 
   7   3 -25    0.68    1.47 
  -5   4 -25    0.44    0.67 
  -4   4 -25   -0.28    0.56 
  -3   4 -25    1.18    0.59 
  -2   4 -25    0.56    0.49 
  -1   4 -25    0.67    0.55 
   0   4 -25    0.78    0.49 
   1   4 -25    0.08    0.27 
   2   4 -25    0.51    0.31 
   3   4 -25    0.21    0.51 
   4   4 -25    0.46    0.60 
   5   4 -25    0.08    0.61 
   6   4 -25   -0.55    0.79 
  -3   5 -25   -0.20    0.60 
  -2   5 -25   -0.28    0.58 
  -1   5 -25   -0.46    0.49 
   0   5 -25    1.33    0.53 
   1   5 -25   -0.16    0.18 
   2   5 -25    0.01    0.33 
   3   5 -25    0.17    0.49 
   4   5 -25   -0.25    0.56 
  -1   6 -25   -0.14    0.57 
   0   6 -25   -0.45    0.60 
  -4  -6 -24    1.69    1.32 
  -3  -6 -24    0.15    1.09 
  -2  -6 -24    0.07    1.11 
  -1  -6 -24    0.90    1.07 
   0  -6 -24    1.01    1.06 
   1  -6 -24    1.47    1.10 
  -6  -5 -24    0.82    1.11 
  -5  -5 -24    1.10    1.05 
  -4  -5 -24   -0.48    0.88 
  -3  -5 -24    0.95    0.98 
  -2  -5 -24    0.24    0.84 
  -1  -5 -24    0.16    0.77 
   0  -5 -24   -0.10    0.82 
   1  -5 -24   -0.27    0.82 
   2  -5 -24    0.06    0.75 
   3  -5 -24    0.91    0.84 
   4  -5 -24    0.27    0.87 
   5  -5 -24   -0.15    0.99 
  -6  -4 -24    1.77    0.94 
  -5  -4 -24    0.63    0.79 
  -4  -4 -24    0.58    0.73 
  -3  -4 -24    6.63    1.00 
  -2  -4 -24    2.27    0.79 
  -1  -4 -24    0.35    0.67 
   0  -4 -24    1.86    0.81 
   1  -4 -24    0.87    0.72 
   2  -4 -24    0.34    0.67 
   3  -4 -24    0.52    0.77 
   4  -4 -24    6.53    1.07 
   5  -4 -24    0.99    0.78 
   6  -4 -24    1.38    1.04 
   7  -4 -24    0.26    1.00 
   8  -4 -24    1.29    1.41 
  -7  -3 -24    0.63    0.97 
  -6  -3 -24    0.12    0.82 
  -5  -3 -24    0.76    0.76 
  -4  -3 -24    0.14    0.69 
  -3  -3 -24    1.35    0.73 
  -2  -3 -24    1.05    0.65 
  -1  -3 -24    1.51    0.64 
   0  -3 -24    0.37    0.57 
   1  -3 -24    1.66    0.64 
   2  -3 -24   -0.20    0.59 
   3  -3 -24   -0.64    0.65 
   4  -3 -24   -0.21    0.62 
   5  -3 -24    0.17    0.70 
   6  -3 -24    0.78    0.83 
   7  -3 -24    1.12    1.11 
  -8  -2 -24   -0.84    0.83 
  -7  -2 -24    0.91    0.77 
  -6  -2 -24   -0.12    0.73 
  -5  -2 -24    0.55    0.65 
  -4  -2 -24    0.09    0.58 
  -3  -2 -24    3.46    0.73 
  -2  -2 -24   -0.01    0.53 
  -1  -2 -24    0.59    0.58 
   0  -2 -24    0.14    0.52 
   1  -2 -24    0.01    0.55 
   2  -2 -24    0.63    0.55 
   3  -2 -24    1.46    0.70 
   4  -2 -24    1.35    0.70 
   5  -2 -24    0.41    0.78 
   6  -2 -24    0.67    0.80 
   7  -2 -24    0.72    0.87 
  -9  -1 -24    0.91    0.89 
  -8  -1 -24    0.04    0.76 
  -7  -1 -24    0.50    0.68 
  -6  -1 -24    1.23    0.69 
  -5  -1 -24   -0.35    0.56 
  -4  -1 -24   -0.25    0.57 
  -3  -1 -24    0.38    0.53 
  -2  -1 -24    0.34    0.52 
  -1  -1 -24    4.14    0.63 
   0  -1 -24    2.78    0.61 
   1  -1 -24   -0.16    0.49 
   2  -1 -24    4.15    0.70 
   3  -1 -24    0.59    0.61 
   4  -1 -24    1.50    0.63 
   5  -1 -24    0.79    0.68 
   6  -1 -24    0.75    0.81 
  -9   0 -24   -0.19    0.78 
  -8   0 -24   -0.08    0.62 
  -7   0 -24   -0.46    0.57 
  -6   0 -24    3.01    0.65 
  -5   0 -24   -0.27    0.51 
  -4   0 -24    3.34    0.65 
  -3   0 -24   -0.22    0.55 
  -2   0 -24    8.11    0.79 
  -1   0 -24    0.00    0.44 
   0   0 -24   -0.09    0.44 
   1   0 -24    0.65    0.49 
   2   0 -24    0.33    0.52 
   3   0 -24    0.52    0.55 
   4   0 -24    8.39    0.89 
   5   0 -24    0.10    0.58 
  -9   1 -24    0.76    0.77 
  -8   1 -24   -0.06    0.66 
  -7   1 -24    0.43    0.62 
  -6   1 -24    0.91    0.57 
  -5   1 -24   -0.30    0.50 
  -4   1 -24   -0.28    0.50 
  -3   1 -24    0.15    0.38 
  -2   1 -24    0.01    0.42 
  -1   1 -24    3.87    0.56 
   0   1 -24    2.79    0.62 
   1   1 -24    0.02    0.44 
   2   1 -24    3.76    0.56 
   3   1 -24    0.23    0.45 
   4   1 -24    1.01    0.57 
   5   1 -24    0.29    0.98 
   6   1 -24    0.86    1.10 
   7   1 -24    0.29    1.13 
   8   1 -24   -0.83    1.21 
   9   1 -24    1.27    1.36 
  -8   2 -24   -0.39    0.72 
  -7   2 -24    0.28    0.69 
  -6   2 -24   -0.29    0.58 
  -5   2 -24    0.06    0.43 
  -4   2 -24   -0.18    0.52 
  -3   2 -24    2.06    0.56 
  -2   2 -24   -0.07    0.44 
  -1   2 -24    0.89    0.49 
   0   2 -24    0.33    0.28 
   1   2 -24    0.15    0.30 
   2   2 -24    0.26    0.33 
   3   2 -24    0.76    0.34 
   4   2 -24    0.90    0.37 
   5   2 -24   -0.07    0.72 
   6   2 -24    0.08    1.11 
   7   2 -24    2.51    1.19 
   8   2 -24    0.34    1.42 
   9   2 -24    2.25    1.67 
  -7   3 -24    0.19    0.68 
  -6   3 -24    0.02    0.62 
  -5   3 -24    0.20    0.57 
  -4   3 -24    0.22    0.48 
  -3   3 -24    0.87    0.53 
  -2   3 -24    0.21    0.52 
  -1   3 -24    1.15    0.51 
   0   3 -24    0.55    0.45 
   1   3 -24    1.17    0.33 
   2   3 -24   -0.19    0.27 
   3   3 -24   -0.39    0.32 
   4   3 -24   -0.27    0.54 
   5   3 -24   -0.25    0.61 
   6   3 -24    0.10    0.83 
   7   3 -24   -0.05    1.43 
   8   3 -24    1.10    1.43 
  -6   4 -24    1.47    0.68 
  -5   4 -24    0.24    0.54 
  -4   4 -24   -0.06    0.49 
  -3   4 -24    5.70    0.80 
  -2   4 -24    1.21    0.51 
  -1   4 -24    0.16    0.41 
   0   4 -24    0.85    0.54 
   1   4 -24    0.20    0.21 
   2   4 -24    0.14    0.28 
   3   4 -24   -0.50    0.45 
   4   4 -24    3.64    0.71 
   5   4 -24   -0.05    0.67 
   6   4 -24    0.53    0.81 
   7   4 -24    0.34    0.98 
  -4   5 -24    0.12    0.59 
  -3   5 -24    0.20    0.51 
  -2   5 -24    1.06    0.55 
  -1   5 -24   -0.37    0.49 
   0   5 -24    0.44    0.48 
   1   5 -24    0.23    0.18 
   2   5 -24   -0.08    0.31 
   3   5 -24   -0.10    0.42 
   4   5 -24   -0.28    0.57 
   5   5 -24    0.38    0.71 
  -2   6 -24   -0.36    0.55 
  -1   6 -24    0.36    0.50 
   0   6 -24    0.12    0.49 
   1   6 -24    0.05    0.13 
   2   6 -24    0.17    0.27 
  -2  -7 -23    0.05    0.48 
  -5  -6 -23    1.17    1.28 
  -4  -6 -23    0.02    1.11 
  -3  -6 -23    0.70    1.05 
  -2  -6 -23    0.54    0.96 
  -1  -6 -23    0.14    0.95 
   0  -6 -23    0.29    0.91 
   1  -6 -23    0.94    0.95 
   2  -6 -23   -0.55    0.96 
   3  -6 -23    1.73    1.10 
  -6  -5 -23    0.79    1.02 
  -5  -5 -23    3.52    1.10 
  -4  -5 -23    0.14    0.85 
  -3  -5 -23   -0.27    0.85 
  -2  -5 -23   -0.39    0.77 
  -1  -5 -23    1.05    0.77 
   0  -5 -23    0.37    0.81 
   1  -5 -23    0.83    0.86 
   2  -5 -23    0.32    0.53 
   3  -5 -23    2.93    0.83 
   4  -5 -23    0.81    0.90 
   5  -5 -23    0.32    0.94 
   6  -5 -23    0.55    0.99 
   7  -5 -23    0.22    1.01 
  -6  -4 -23    1.74    0.88 
  -5  -4 -23    0.43    0.77 
  -4  -4 -23    0.43    0.69 
  -3  -4 -23    1.34    0.73 
  -2  -4 -23    5.01    0.89 
  -1  -4 -23    0.33    0.61 
   0  -4 -23    2.27    0.80 
   1  -4 -23   -0.34    0.63 
   2  -4 -23    0.19    0.64 
   3  -4 -23   -0.20    0.63 
   4  -4 -23    0.88    0.75 
   5  -4 -23    0.58    0.69 
   6  -4 -23    0.47    0.90 
   7  -4 -23    1.76    1.01 
   8  -4 -23    0.40    1.06 
  -7  -3 -23    2.19    0.97 
  -6  -3 -23    0.65    0.76 
  -5  -3 -23    1.76    0.77 
  -4  -3 -23   13.91    1.17 
  -3  -3 -23   -0.08    0.61 
  -2  -3 -23    0.30    0.64 
  -1  -3 -23    2.56    0.72 
   0  -3 -23    0.44    0.47 
   1  -3 -23    2.35    0.67 
   2  -3 -23    0.31    0.61 
   3  -3 -23    1.55    0.72 
   4  -3 -23   -0.02    0.65 
   5  -3 -23    0.20    0.71 
   6  -3 -23    0.02    0.72 
   7  -3 -23    0.03    0.92 
  -8  -2 -23   -0.50    0.74 
  -7  -2 -23   -0.29    0.67 
  -6  -2 -23    1.80    0.73 
  -5  -2 -23    0.09    0.66 
  -4  -2 -23    1.46    0.65 
  -3  -2 -23    0.94    0.51 
  -2  -2 -23   -0.13    0.53 
  -1  -2 -23    0.42    0.47 
   0  -2 -23    4.02    0.67 
   1  -2 -23    1.42    0.60 
   2  -2 -23    2.44    0.65 
   3  -2 -23   -0.26    0.63 
   4  -2 -23    3.06    0.77 
   5  -2 -23    0.58    0.67 
   6  -2 -23    0.54    0.80 
   7  -2 -23    0.98    0.84 
  -9  -1 -23    0.55    0.91 
  -8  -1 -23    3.55    0.92 
  -7  -1 -23    1.02    0.72 
  -6  -1 -23    0.98    0.72 
  -5  -1 -23    0.67    0.61 
  -4  -1 -23    1.31    0.59 
  -3  -1 -23    0.12    0.54 
  -2  -1 -23    0.39    0.50 
  -1  -1 -23    0.36    0.47 
   0  -1 -23    0.48    0.49 
   1  -1 -23    3.38    0.62 
   2  -1 -23    0.12    0.54 
   3  -1 -23    4.02    0.75 
   4  -1 -23    1.19    0.68 
   5  -1 -23    3.20    0.79 
   6  -1 -23    2.34    0.88 
  -9   0 -23    0.35    0.80 
  -8   0 -23   -0.91    0.60 
  -7   0 -23   -0.54    0.55 
  -6   0 -23   -0.16    0.52 
  -5   0 -23   -0.21    0.50 
  -4   0 -23   -0.41    0.43 
  -3   0 -23   -0.40    0.50 
  -2   0 -23   -0.06    0.38 
  -1   0 -23    3.83    0.60 
   0   0 -23    0.47    0.47 
   1   0 -23   26.41    1.13 
   2   0 -23    1.00    0.51 
   3   0 -23   16.36    1.02 
   4   0 -23    0.08    0.56 
   5   0 -23    0.31    0.62 
 -10   1 -23   -0.08    0.76 
  -9   1 -23    0.40    0.74 
  -8   1 -23    2.83    0.73 
  -7   1 -23    1.18    0.60 
  -6   1 -23    0.79    0.59 
  -5   1 -23    0.51    0.54 
  -4   1 -23    0.20    0.50 
  -3   1 -23    0.03    0.48 
  -2   1 -23    0.20    0.44 
  -1   1 -23    0.09    0.40 
   0   1 -23    0.42    0.46 
   1   1 -23    3.82    0.59 
   2   1 -23    0.51    0.37 
   3   1 -23    3.71    0.44 
   4   1 -23    1.05    0.42 
   5   1 -23    4.14    0.66 
   6   1 -23    1.85    1.00 
   7   1 -23    0.49    1.05 
   8   1 -23    2.89    1.29 
   9   1 -23    0.86    1.31 
  10   1 -23    0.76    1.36 
  -9   2 -23   -0.26    0.63 
  -8   2 -23    0.21    0.62 
  -7   2 -23    0.11    0.55 
  -6   2 -23    1.04    0.61 
  -5   2 -23   -0.18    0.55 
  -4   2 -23    0.37    0.56 
  -3   2 -23    0.70    0.38 
  -2   2 -23    0.04    0.43 
  -1   2 -23    0.56    0.42 
   0   2 -23    2.98    0.56 
   1   2 -23    1.11    0.33 
   2   2 -23    2.44    0.40 
   3   2 -23   -0.09    0.34 
   4   2 -23    2.57    0.42 
   5   2 -23    0.03    0.72 
   6   2 -23   -0.01    1.11 
   7   2 -23    0.62    1.12 
   8   2 -23    1.21    1.30 
   9   2 -23   -0.39    1.41 
  -8   3 -23    0.55    0.70 
  -7   3 -23    0.82    0.66 
  -6   3 -23    0.04    0.55 
  -5   3 -23    1.33    0.61 
  -4   3 -23   11.53    0.93 
  -3   3 -23    0.06    0.43 
  -2   3 -23    0.40    0.43 
  -1   3 -23    3.11    0.59 
   0   3 -23    0.23    0.43 
   1   3 -23    1.16    0.29 
   2   3 -23   -0.16    0.28 
   3   3 -23    0.79    0.34 
   4   3 -23    0.37    0.53 
   5   3 -23   -0.33    0.57 
   6   3 -23    0.86    0.83 
   7   3 -23   -1.27    1.29 
   8   3 -23    1.36    1.40 
  -7   4 -23    0.60    0.69 
  -6   4 -23    1.45    0.69 
  -5   4 -23    0.39    0.51 
  -4   4 -23    0.30    0.46 
  -3   4 -23    1.49    0.53 
  -2   4 -23    3.68    0.64 
  -1   4 -23   -0.25    0.42 
   0   4 -23    1.94    0.50 
   1   4 -23    0.17    0.23 
   2   4 -23    0.19    0.28 
   3   4 -23   -0.09    0.45 
   4   4 -23   -0.06    0.55 
   5   4 -23    0.15    0.60 
   6   4 -23   -0.05    0.78 
   7   4 -23    0.73    1.02 
  -5   5 -23    2.71    0.70 
  -4   5 -23    0.12    0.57 
  -3   5 -23   -0.25    0.48 
  -2   5 -23   -0.10    0.43 
  -1   5 -23   -0.16    0.43 
   0   5 -23    0.00    0.47 
   1   5 -23    0.90    0.44 
   2   5 -23    0.23    0.31 
   3   5 -23    1.42    0.48 
   4   5 -23   -0.20    0.56 
   5   5 -23    0.04    0.65 
   6   5 -23    0.02    0.80 
  -4   6 -23   -0.53    0.58 
  -3   6 -23    0.66    0.63 
  -2   6 -23    0.20    0.55 
  -1   6 -23    0.18    0.50 
   0   6 -23    0.09    0.42 
   1   6 -23   -0.11    0.44 
   2   6 -23   -0.02    0.25 
   3   6 -23    0.21    0.39 
   4   6 -23   -0.37    0.55 
  -1   7 -23   -0.18    0.56 
   0   7 -23    0.58    0.56 
  -4  -7 -22    0.33    0.58 
  -3  -7 -22    0.28    0.54 
  -2  -7 -22    0.54    0.43 
  -1  -7 -22    0.48    1.34 
   0  -7 -22    0.73    1.25 
   1  -7 -22    1.08    1.29 
  -6  -6 -22    1.22    0.73 
  -5  -6 -22    0.20    0.52 
  -4  -6 -22   -0.08    0.43 
  -3  -6 -22   -0.18    0.38 
  -2  -6 -22    0.97    0.34 
  -1  -6 -22   -0.22    0.23 
   0  -6 -22    1.53    0.93 
   1  -6 -22    0.55    0.91 
   2  -6 -22    1.01    1.10 
   3  -6 -22    0.61    0.95 
   4  -6 -22    0.12    0.92 
   5  -6 -22    0.38    1.00 
  -6  -5 -22    0.93    0.98 
  -5  -5 -22    1.16    0.94 
  -4  -5 -22    0.67    0.82 
  -3  -5 -22    0.08    0.82 
  -2  -5 -22    1.09    0.81 
  -1  -5 -22    1.09    0.79 
   0  -5 -22    1.08    0.86 
   1  -5 -22    0.28    0.75 
   2  -5 -22    0.46    0.70 
   3  -5 -22    0.87    0.71 
   4  -5 -22    3.75    1.01 
   5  -5 -22    1.30    0.96 
   6  -5 -22    2.10    1.03 
   7  -5 -22    0.50    0.97 
   8  -5 -22    0.37    1.11 
  -6  -4 -22    0.44    0.77 
  -5  -4 -22    4.80    1.00 
  -4  -4 -22    0.86    0.71 
  -3  -4 -22    0.06    0.67 
  -2  -4 -22   -0.15    0.52 
  -1  -4 -22   -0.25    0.57 
   0  -4 -22    0.15    0.68 
   1  -4 -22   -0.23    0.58 
   2  -4 -22   -0.56    0.47 
   3  -4 -22    0.83    0.70 
   4  -4 -22   -0.07    0.72 
   5  -4 -22    0.40    0.71 
   6  -4 -22    0.59    0.83 
   7  -4 -22    1.17    0.91 
   8  -4 -22    1.16    0.98 
  -7  -3 -22    0.48    0.80 
  -6  -3 -22    0.33    0.81 
  -5  -3 -22    0.47    0.74 
  -4  -3 -22    4.25    0.80 
  -3  -3 -22    5.59    0.85 
  -2  -3 -22    3.36    0.73 
  -1  -3 -22    5.60    0.81 
   0  -3 -22    1.95    0.64 
   1  -3 -22    2.85    0.70 
   2  -3 -22    1.39    0.67 
   3  -3 -22    5.50    0.90 
   4  -3 -22   -0.38    0.71 
   5  -3 -22    0.15    0.67 
   6  -3 -22    0.21    0.68 
   7  -3 -22    1.05    0.97 
  -8  -2 -22    1.03    0.77 
  -7  -2 -22    0.58    0.70 
  -6  -2 -22   -0.03    0.65 
  -5  -2 -22    1.76    0.67 
  -4  -2 -22    0.67    0.61 
  -3  -2 -22    0.27    0.54 
  -2  -2 -22   -0.33    0.52 
  -1  -2 -22    4.47    0.72 
   0  -2 -22    1.97    0.50 
   1  -2 -22   13.92    1.00 
   2  -2 -22    1.02    0.56 
   3  -2 -22   -0.27    0.62 
   4  -2 -22    0.04    0.68 
   5  -2 -22    1.55    0.74 
   6  -2 -22    0.86    0.84 
   7  -2 -22    1.56    0.92 
  -9  -1 -22   -0.66    0.84 
  -8  -1 -22    2.01    0.89 
  -7  -1 -22    3.47    0.88 
  -6  -1 -22   -0.06    0.67 
  -5  -1 -22    1.24    0.68 
  -4  -1 -22    0.66    0.57 
  -3  -1 -22   -0.14    0.51 
  -2  -1 -22    0.40    0.51 
  -1  -1 -22    0.24    0.46 
   0  -1 -22    0.44    0.48 
   1  -1 -22    3.74    0.62 
   2  -1 -22    0.13    0.53 
   3  -1 -22    0.28    0.62 
   4  -1 -22    4.71    0.77 
   5  -1 -22    0.38    0.66 
   6  -1 -22    1.16    0.81 
  -9   0 -22    0.35    0.69 
  -8   0 -22   -0.31    0.64 
  -7   0 -22   -0.10    0.63 
  -6   0 -22   -0.20    0.55 
  -5   0 -22   -0.51    0.47 
  -4   0 -22   -0.10    0.45 
  -3   0 -22   -0.22    0.46 
  -2   0 -22   27.83    1.26 
  -1   0 -22   -0.03    0.46 
   0   0 -22    1.68    0.52 
   1   0 -22    0.10    0.44 
   2   0 -22   38.34    1.35 
   3   0 -22    0.33    0.53 
   4   0 -22    2.97    0.66 
   5   0 -22    1.14    0.66 
   7   0 -22   -0.37    1.21 
   8   0 -22    0.45    1.04 
   9   0 -22   -0.35    0.98 
  10   0 -22    0.99    1.09 
  11   0 -22   -0.28    1.26 
 -10   1 -22    0.46    0.67 
  -9   1 -22   -0.55    0.59 
  -8   1 -22    1.52    0.62 
  -7   1 -22    3.37    0.67 
  -6   1 -22   -0.24    0.50 
  -5   1 -22    1.15    0.56 
  -4   1 -22    0.43    0.41 
  -3   1 -22   -0.14    0.45 
  -2   1 -22    0.05    0.43 
  -1   1 -22    0.25    0.42 
   0   1 -22    0.45    0.28 
   1   1 -22    3.25    0.41 
   2   1 -22    0.55    0.33 
   3   1 -22    0.30    0.34 
   4   1 -22    4.62    0.50 
   5   1 -22    0.38    0.45 
   6   1 -22   -0.28    1.03 
   7   1 -22    0.78    1.05 
   8   1 -22    1.18    1.20 
   9   1 -22    0.58    1.28 
  10   1 -22    1.73    1.31 
 -10   2 -22    0.43    0.64 
  -9   2 -22    1.77    0.64 
  -8   2 -22    0.59    0.59 
  -7   2 -22    0.43    0.54 
  -6   2 -22    0.07    0.51 
  -5   2 -22    1.49    0.54 
  -4   2 -22    0.21    0.49 
  -3   2 -22   -0.63    0.44 
  -2   2 -22   -0.31    0.28 
  -1   2 -22    3.69    0.57 
   0   2 -22    1.88    0.48 
   1   2 -22    8.24    0.50 
   2   2 -22    0.84    0.35 
   3   2 -22    0.36    0.35 
   4   2 -22    0.22    0.35 
   5   2 -22    1.70    0.73 
   6   2 -22    0.05    1.24 
   7   2 -22    1.77    1.15 
   8   2 -22    0.10    1.21 
   9   2 -22    0.06    1.43 
  10   2 -22    0.42    1.57 
  -9   3 -22    0.23    0.59 
  -8   3 -22    1.74    0.63 
  -7   3 -22    0.29    0.52 
  -6   3 -22    0.22    0.48 
  -5   3 -22    0.04    0.48 
  -4   3 -22    3.76    0.64 
  -3   3 -22    4.99    0.68 
  -2   3 -22    2.90    0.56 
  -1   3 -22    4.48    0.59 
   0   3 -22    1.38    0.49 
   1   3 -22    1.76    0.31 
   2   3 -22    0.71    0.32 
   3   3 -22    4.63    0.43 
   4   3 -22   -0.05    0.49 
   5   3 -22    0.08    0.66 
   6   3 -22    0.06    0.74 
   7   3 -22    0.27    1.21 
   8   3 -22    0.17    1.21 
   9   3 -22    0.42    1.54 
  -8   4 -22    1.06    0.71 
  -7   4 -22    0.62    0.67 
  -6   4 -22    0.20    0.61 
  -5   4 -22    4.03    0.72 
  -4   4 -22    0.46    0.52 
  -3   4 -22   -0.46    0.40 
  -2   4 -22    0.00    0.40 
  -1   4 -22    0.23    0.47 
   0   4 -22   -0.19    0.39 
   1   4 -22   -0.18    0.39 
   2   4 -22    0.26    0.28 
   3   4 -22    0.67    0.46 
   4   4 -22   -0.10    0.57 
   5   4 -22    0.22    0.65 
   6   4 -22   -0.52    0.73 
   7   4 -22   -0.02    0.93 
   8   4 -22   -0.04    1.58 
  -6   5 -22    0.96    0.72 
  -5   5 -22    0.53    0.55 
  -4   5 -22    0.43    0.52 
  -3   5 -22    0.21    0.51 
  -2   5 -22    0.89    0.48 
  -1   5 -22    0.87    0.48 
   0   5 -22    0.18    0.39 
   1   5 -22    0.17    0.44 
   2   5 -22    0.38    0.25 
   3   5 -22    0.10    0.38 
   4   5 -22    1.78    0.65 
   5   5 -22    0.48    0.61 
   6   5 -22    1.37    0.76 
   7   5 -22   -0.60    0.92 
  -5   6 -22    0.41    0.66 
  -4   6 -22    0.35    0.61 
  -3   6 -22   -0.12    0.50 
  -2   6 -22    1.39    0.58 
  -1   6 -22   -0.02    0.45 
   0   6 -22    0.56    0.52 
   1   6 -22   -0.04    0.41 
   2   6 -22    0.30    0.27 
   3   6 -22    0.29    0.39 
   4   6 -22    0.09    0.55 
   5   6 -22    0.34    0.66 
  -2   7 -22    0.63    0.62 
  -1   7 -22   -0.20    0.56 
   0   7 -22    0.33    0.52 
  -5  -7 -21    0.06    0.64 
  -4  -7 -21    0.25    0.54 
  -3  -7 -21    2.44    0.63 
  -2  -7 -21    0.68    0.44 
  -1  -7 -21    0.87    1.24 
   0  -7 -21   -0.53    1.10 
   1  -7 -21    1.50    1.19 
   2  -7 -21    0.84    1.26 
   3  -7 -21    2.81    1.31 
  -7  -6 -21    0.11    0.89 
  -6  -6 -21    0.10    0.57 
  -5  -6 -21    0.97    0.54 
  -4  -6 -21    0.66    0.46 
  -3  -6 -21   -0.20    0.37 
  -2  -6 -21    0.96    0.38 
  -1  -6 -21   -0.21    0.29 
   0  -6 -21    1.80    0.84 
   1  -6 -21   -0.30    0.82 
   2  -6 -21    0.28    1.01 
   3  -6 -21    3.05    0.97 
   4  -6 -21    0.13    0.86 
   5  -6 -21    1.03    0.97 
   6  -6 -21    0.39    1.03 
  -6  -5 -21    0.29    0.52 
  -5  -5 -21    0.38    0.41 
  -4  -5 -21    0.16    0.38 
  -3  -5 -21    3.95    0.51 
  -2  -5 -21   -0.16    0.29 
  -1  -5 -21    0.03    0.19 
   0  -5 -21    2.97    0.87 
   1  -5 -21    2.24    0.88 
   2  -5 -21    0.40    0.67 
   3  -5 -21    1.43    0.75 
   4  -5 -21    0.64    0.84 
   5  -5 -21    3.16    0.99 
   6  -5 -21    0.46    0.90 
   7  -5 -21    2.74    1.07 
   8  -5 -21    1.06    1.14 
  -6  -4 -21    6.05    1.03 
  -5  -4 -21    0.78    0.76 
  -4  -4 -21    0.61    0.69 
  -3  -4 -21    1.39    0.72 
  -2  -4 -21    2.00    0.71 
  -1  -4 -21    1.37    0.59 
   0  -4 -21    0.55    0.70 
   1  -4 -21    4.81    0.86 
   2  -4 -21    5.41    0.90 
   3  -4 -21    0.38    0.64 
   4  -4 -21   -0.60    0.57 
   5  -4 -21    0.59    0.72 
   6  -4 -21    0.38    0.82 
   7  -4 -21    1.89    0.93 
   8  -4 -21    1.51    1.14 
  -7  -3 -21    2.34    0.83 
  -6  -3 -21    6.50    0.97 
  -5  -3 -21    2.17    0.78 
  -4  -3 -21    6.66    0.93 
  -3  -3 -21    0.55    0.62 
  -2  -3 -21    2.92    0.73 
  -1  -3 -21    3.00    0.71 
   0  -3 -21    1.06    0.62 
   1  -3 -21    2.07    0.66 
   3  -3 -21    5.93    0.92 
   4  -3 -21    6.23    0.93 
   5  -3 -21   -0.11    0.68 
   6  -3 -21    3.16    0.84 
   7  -3 -21    1.52    0.97 
   8  -3 -21    0.87    0.97 
  -8  -2 -21    1.20    0.79 
  -7  -2 -21   -0.47    0.66 
  -6  -2 -21    0.40    0.63 
  -5  -2 -21    0.22    0.60 
  -4  -2 -21    3.30    0.70 
  -3  -2 -21    6.00    0.70 
  -2  -2 -21    3.23    0.58 
  -1  -2 -21    0.98    0.58 
   0  -2 -21    0.96    0.55 
   1  -2 -21    2.44    0.55 
   2  -2 -21    5.26    0.64 
   3  -2 -21   -0.10    0.62 
   4  -2 -21    0.12    0.67 
   5  -2 -21    0.78    0.71 
   6  -2 -21    1.62    0.82 
   7  -2 -21    0.19    0.74 
  -9  -1 -21    0.24    0.79 
  -8  -1 -21   -0.72    0.70 
  -7  -1 -21   -0.10    0.65 
  -6  -1 -21    1.34    0.72 
  -5  -1 -21   -0.27    0.59 
  -4  -1 -21    1.00    0.58 
  -3  -1 -21    1.68    0.61 
  -2  -1 -21    3.36    0.66 
  -1  -1 -21   -0.13    0.42 
   0  -1 -21   10.06    0.79 
   1  -1 -21    0.07    0.37 
   2  -1 -21   10.57    0.88 
   3  -1 -21   -0.58    0.55 
   4  -1 -21    0.51    0.62 
   5  -1 -21   -0.35    0.63 
   6  -1 -21    5.54    1.03 
  -9   0 -21   14.51    1.07 
  -8   0 -21   -0.14    0.60 
  -7   0 -21    2.31    0.64 
  -6   0 -21   -0.34    0.55 
  -5   0 -21    2.89    0.63 
  -4   0 -21   -0.16    0.48 
  -3   0 -21    0.08    0.47 
  -2   0 -21   -0.07    0.46 
  -1   0 -21    3.39    0.53 
   0   0 -21   -0.33    0.43 
   1   0 -21    1.61    0.48 
   2   0 -21    0.59    0.48 
   3   0 -21   35.53    1.33 
   4   0 -21   -0.16    0.49 
   5   0 -21    9.59    0.71 
   6   0 -21    0.54    0.59 
   7   0 -21    5.33    1.31 
   8   0 -21    0.71    1.01 
   9   0 -21    0.68    0.97 
  10   0 -21    0.53    1.06 
  11   0 -21    0.67    1.36 
 -10   1 -21    0.79    0.70 
  -9   1 -21   -0.07    0.72 
  -8   1 -21   -0.07    0.61 
  -7   1 -21    0.08    0.57 
  -6   1 -21    1.19    0.60 
  -5   1 -21    0.35    0.51 
  -4   1 -21    0.38    0.48 
  -3   1 -21    1.33    0.51 
  -2   1 -21    3.16    0.53 
  -1   1 -21   -0.33    0.41 
   0   1 -21    8.57    0.67 
   1   1 -21    0.10    0.34 
   2   1 -21    9.20    0.54 
   3   1 -21    0.12    0.33 
   4   1 -21    0.26    0.38 
   5   1 -21    0.25    0.43 
   6   1 -21    3.98    1.07 
   7   1 -21    0.42    1.01 
   8   1 -21    0.02    1.28 
   9   1 -21   -0.33    1.21 
  10   1 -21    0.41    1.16 
  11   1 -21    1.33    1.37 
 -10   2 -21    0.06    0.66 
  -9   2 -21   -0.42    0.60 
  -8   2 -21    1.56    0.62 
  -7   2 -21    0.17    0.55 
  -6   2 -21    0.31    0.56 
  -5   2 -21    1.34    0.56 
  -4   2 -21    2.42    0.55 
  -3   2 -21    5.50    0.62 
  -2   2 -21    2.95    0.58 
  -1   2 -21    0.71    0.43 
   0   2 -21    0.39    0.42 
   1   2 -21    2.17    0.33 
   2   2 -21    3.79    0.39 
   3   2 -21    0.09    0.36 
   4   2 -21    0.06    0.38 
   5   2 -21    0.05    0.68 
   6   2 -21    1.52    1.22 
   7   2 -21    0.59    1.07 
   8   2 -21    0.49    1.19 
   9   2 -21    0.13    1.20 
  10   2 -21    0.73    1.48 
 -10   3 -21    1.52    0.65 
  -9   3 -21    1.41    0.62 
  -8   3 -21    0.18    0.55 
  -7   3 -21    1.77    0.60 
  -6   3 -21    5.47    0.72 
  -5   3 -21    2.01    0.56 
  -4   3 -21    4.56    0.60 
  -3   3 -21    0.48    0.43 
  -2   3 -21    2.30    0.54 
  -1   3 -21    2.05    0.45 
   0   3 -21    1.02    0.43 
   1   3 -21    1.24    0.45 
   2   3 -21    0.49    0.29 
   3   3 -21    3.81    0.41 
   4   3 -21    5.05    0.73 
   5   3 -21   -0.13    0.57 
   6   3 -21    2.45    0.82 
   7   3 -21    0.74    1.27 
   8   3 -21    1.45    1.27 
   9   3 -21    1.67    1.50 
  -9   4 -21    0.10    0.66 
  -8   4 -21    1.32    0.66 
  -7   4 -21    0.44    0.56 
  -6   4 -21    4.69    0.77 
  -5   4 -21    0.40    0.50 
  -4   4 -21    0.54    0.49 
  -3   4 -21    0.47    0.47 
  -2   4 -21    1.71    0.49 
  -1   4 -21    0.92    0.43 
   0   4 -21   -0.24    0.42 
   1   4 -21    3.34    0.51 
   2   4 -21    3.59    0.39 
   3   4 -21    0.38    0.32 
   4   4 -21   -0.22    0.58 
   5   4 -21    0.72    0.70 
   6   4 -21   -0.14    0.72 
   7   4 -21    0.25    0.98 
   8   4 -21    0.20    1.58 
   9   4 -21   -0.35    1.66 
  -7   5 -21    0.60    0.68 
  -6   5 -21    0.48    0.62 
  -5   5 -21    0.54    0.56 
  -4   5 -21    0.13    0.51 
  -3   5 -21    4.93    0.73 
  -2   5 -21    0.06    0.47 
  -1   5 -21   -0.14    0.42 
   0   5 -21    1.84    0.49 
   1   5 -21    0.81    0.44 
   2   5 -21   -0.10    0.24 
   3   5 -21    0.28    0.42 
   4   5 -21    0.58    0.58 
   5   5 -21    0.86    0.60 
   6   5 -21    0.14    0.72 
   7   5 -21    0.90    1.04 
  -5   6 -21    1.37    0.63 
  -4   6 -21    0.62    0.55 
  -3   6 -21    0.35    0.53 
  -2   6 -21    0.69    0.54 
  -1   6 -21   -0.01    0.47 
   0   6 -21    0.90    0.47 
   1   6 -21   -0.31    0.40 
   2   6 -21    0.04    0.23 
   3   6 -21    0.96    0.44 
   4   6 -21   -0.06    0.54 
   5   6 -21    0.16    0.68 
   6   6 -21    0.23    0.81 
  -3   7 -21    1.94    0.67 
  -2   7 -21    0.09    0.58 
  -1   7 -21    1.61    0.60 
   0   7 -21   -0.14    0.45 
   2   7 -21    0.09    0.23 
   3   7 -21    0.81    0.43 
  -1   8 -21    0.20    0.57 
  -3  -8 -20   -0.19    1.44 
  -2  -8 -20    1.41    1.47 
  -1  -8 -20    0.75    0.54 
  -6  -7 -20    0.25    0.79 
  -5  -7 -20    0.12    0.71 
  -4  -7 -20    0.07    0.57 
  -3  -7 -20    0.87    0.51 
  -2  -7 -20    1.08    0.47 
  -1  -7 -20    0.02    0.42 
   0  -7 -20    0.34    1.01 
   1  -7 -20    1.03    1.09 
   2  -7 -20    3.60    1.30 
   3  -7 -20    0.20    1.09 
   4  -7 -20    2.68    1.23 
  -8  -6 -20    1.15    1.07 
  -7  -6 -20   -0.34    0.73 
  -6  -6 -20   -0.22    0.55 
  -5  -6 -20   -0.37    0.44 
  -4  -6 -20    3.16    1.04 
  -3  -6 -20   -0.19    0.38 
  -2  -6 -20   -0.15    0.38 
  -1  -6 -20    0.13    0.30 
   0  -6 -20    1.29    0.79 
   1  -6 -20    0.35    0.89 
   2  -6 -20    0.96    1.02 
   3  -6 -20    2.30    0.92 
   4  -6 -20    0.08    0.82 
   5  -6 -20    1.50    0.94 
   6  -6 -20    2.40    1.06 
  -9  -5 -20    0.52    0.91 
  -8  -5 -20    0.68    0.77 
  -7  -5 -20    0.28    0.79 
  -6  -5 -20    3.04    0.61 
  -5  -5 -20    0.00    0.43 
  -4  -5 -20    0.43    0.41 
  -3  -5 -20   -0.06    0.31 
  -2  -5 -20   -0.03    0.29 
  -1  -5 -20    0.08    0.22 
   0  -5 -20    1.48    0.80 
   1  -5 -20    0.38    0.76 
   2  -5 -20    1.24    0.58 
   3  -5 -20   -0.34    0.61 
   4  -5 -20    2.98    0.95 
   5  -5 -20    0.11    0.81 
   6  -5 -20    3.48    1.00 
   7  -5 -20    0.52    1.01 
  -6  -4 -20    0.32    0.77 
  -5  -4 -20    7.99    0.76 
  -4  -4 -20    2.50    0.38 
  -3  -4 -20    0.82    0.27 
  -2  -4 -20    0.38    0.21 
  -1  -4 -20    0.12    0.15 
   0  -4 -20    2.25    0.75 
   1  -4 -20    3.92    0.84 
   2  -4 -20   -0.31    0.60 
   3  -4 -20    1.37    0.70 
   4  -4 -20    0.89    0.66 
   5  -4 -20    0.21    0.78 
   6  -4 -20    0.49    0.84 
   7  -4 -20   -0.03    0.85 
   8  -4 -20    1.54    1.07 
  -7  -3 -20    2.84    0.84 
  -6  -3 -20    0.58    0.72 
  -5  -3 -20    2.61    0.77 
  -4  -3 -20    6.33    0.87 
  -3  -3 -20    1.08    0.64 
  -2  -3 -20    6.38    0.86 
  -1  -3 -20   11.59    1.00 
   0  -3 -20    0.29    0.59 
   1  -3 -20   18.08    1.15 
   2  -3 -20    2.51    0.71 
   3  -3 -20    0.00    0.63 
   4  -3 -20    0.86    0.76 
   5  -3 -20    8.32    1.13 
   6  -3 -20    4.50    0.88 
   7  -3 -20    2.53    1.01 
   8  -3 -20    0.93    0.96 
  -8  -2 -20    0.76    0.73 
  -7  -2 -20    2.40    0.75 
  -6  -2 -20    0.84    0.71 
  -5  -2 -20    0.67    0.61 
  -4  -2 -20    0.84    0.59 
  -3  -2 -20    0.82    0.56 
  -2  -2 -20    0.18    0.55 
  -1  -2 -20   28.86    1.26 
   0  -2 -20    2.60    0.52 
   1  -2 -20    0.85    0.57 
   2  -2 -20    0.84    0.56 
   3  -2 -20    0.87    0.65 
   4  -2 -20    4.57    0.83 
   5  -2 -20    0.98    0.76 
   6  -2 -20    0.80    0.77 
   7  -2 -20    0.13    0.82 
  -9  -1 -20    2.61    0.76 
  -8  -1 -20   -0.42    0.62 
  -7  -1 -20    1.57    0.67 
  -6  -1 -20    0.72    0.59 
  -5  -1 -20    4.09    0.77 
  -4  -1 -20   -0.28    0.58 
  -3  -1 -20    0.34    0.53 
  -2  -1 -20    3.70    0.65 
  -1  -1 -20   -0.07    0.44 
   0  -1 -20    8.88    0.75 
   1  -1 -20   21.43    1.06 
   2  -1 -20    3.15    0.63 
   3  -1 -20    1.13    0.60 
   4  -1 -20    4.59    0.76 
   5  -1 -20    1.09    0.69 
   6  -1 -20    8.55    1.05 
   9  -1 -20    2.75    0.98 
  10  -1 -20    0.80    0.91 
  11  -1 -20    0.17    1.00 
  -9   0 -20    0.15    0.63 
  -8   0 -20    6.42    0.81 
  -7   0 -20    0.30    0.57 
  -6   0 -20   -0.51    0.50 
  -5   0 -20   -0.04    0.49 
  -4   0 -20   12.34    0.89 
  -3   0 -20    0.34    0.49 
  -2   0 -20   -0.06    0.45 
  -1   0 -20    0.33    0.50 
   0   0 -20    4.44    0.61 
   1   0 -20    0.09    0.30 
   2   0 -20   23.34    1.03 
   3   0 -20    1.27    0.65 
   4   0 -20    2.10    0.50 
   5   0 -20    0.25    0.54 
   6   0 -20    0.91    0.56 
   7   0 -20    0.66    1.20 
   8   0 -20    0.63    0.98 
   9   0 -20    0.23    1.01 
  10   0 -20    0.19    0.97 
  11   0 -20    0.25    1.15 
 -10   1 -20    1.60    0.72 
  -9   1 -20    2.27    0.69 
  -8   1 -20   -0.11    0.54 
  -7   1 -20    1.83    0.60 
  -6   1 -20    0.11    0.49 
  -5   1 -20    3.71    0.67 
  -4   1 -20    0.04    0.37 
  -3   1 -20    0.68    0.49 
  -2   1 -20    3.09    0.55 
  -1   1 -20   -0.26    0.40 
   0   1 -20    8.02    0.65 
   1   1 -20   18.41    0.65 
   2   1 -20    2.40    0.38 
   3   1 -20    0.92    0.34 
   4   1 -20    4.88    0.49 
   5   1 -20    0.88    0.48 
   6   1 -20    8.09    1.22 
   7   1 -20    1.44    1.03 
   8   1 -20    0.48    1.12 
   9   1 -20    2.13    1.21 
  10   1 -20    1.03    1.21 
  11   1 -20    1.46    1.38 
 -11   2 -20   -0.08    0.69 
 -10   2 -20   -0.59    0.60 
  -9   2 -20    0.28    0.56 
  -8   2 -20    0.11    0.51 
  -7   2 -20    2.77    0.61 
  -6   2 -20    0.24    0.50 
  -5   2 -20    0.56    0.53 
  -4   2 -20    1.43    0.56 
  -3   2 -20    1.16    0.47 
  -2   2 -20    0.25    0.42 
  -1   2 -20   26.03    1.04 
   0   2 -20    1.94    0.47 
   1   2 -20    0.43    0.28 
   2   2 -20    0.15    0.31 
   3   2 -20    0.64    0.38 
   4   2 -20    4.06    0.47 
   5   2 -20    0.86    0.69 
   6   2 -20    0.84    0.73 
   7   2 -20   -0.14    1.03 
   8   2 -20    0.72    1.17 
   9   2 -20    0.47    1.29 
  10   2 -20   -0.22    1.35 
  11   2 -20    0.15    1.42 
 -10   3 -20    0.53    0.70 
  -9   3 -20    2.80    0.65 
  -8   3 -20   -0.11    0.56 
  -7   3 -20    2.24    0.64 
  -6   3 -20    0.56    0.54 
  -5   3 -20    2.23    0.62 
  -4   3 -20    5.44    0.58 
  -3   3 -20    0.72    0.33 
  -2   3 -20    5.33    0.60 
  -1   3 -20   11.19    0.78 
   0   3 -20   -0.01    0.35 
   1   3 -20   16.47    0.89 
   2   3 -20    1.36    0.34 
   3   3 -20   -0.03    0.34 
   4   3 -20    0.62    0.62 
   5   3 -20    6.39    0.86 
   6   3 -20    3.26    0.89 
   7   3 -20    1.63    1.28 
   8   3 -20   -0.48    1.22 
   9   3 -20    2.66    1.47 
  10   3 -20   -0.16    1.41 
  -9   4 -20    1.65    0.71 
  -8   4 -20    0.07    0.54 
  -7   4 -20    2.32    0.66 
  -6   4 -20   -0.46    0.48 
  -5   4 -20    7.73    0.83 
  -4   4 -20    3.32    0.61 
  -3   4 -20    1.50    0.52 
  -2   4 -20    0.43    0.42 
  -1   4 -20   -0.42    0.36 
   0   4 -20    1.65    0.43 
   1   4 -20    4.15    0.57 
   2   4 -20   -0.20    0.27 
   3   4 -20    1.10    0.32 
   4   4 -20    0.21    0.58 
   5   4 -20    0.41    0.65 
   6   4 -20    0.24    0.77 
   7   4 -20   -0.14    0.87 
   8   4 -20   -0.27    1.47 
   9   4 -20   -0.31    1.57 
  -8   5 -20    0.57    0.64 
  -7   5 -20    0.43    0.62 
  -6   5 -20    2.15    0.68 
  -5   5 -20    0.06    0.49 
  -4   5 -20    1.13    0.54 
  -3   5 -20    0.62    0.51 
  -2   5 -20    0.35    0.46 
  -1   5 -20    0.62    0.47 
   0   5 -20    1.19    0.47 
   1   5 -20    0.01    0.36 
   2   5 -20    0.64    0.25 
   3   5 -20   -0.05    0.45 
   4   5 -20    1.92    0.66 
   5   5 -20   -0.17    0.59 
   6   5 -20    1.83    0.79 
   7   5 -20    0.59    0.94 
   8   5 -20    0.87    1.54 
  -6   6 -20    0.06    0.62 
  -5   6 -20    0.09    0.59 
  -4   6 -20    3.44    0.77 
  -3   6 -20   -0.14    0.46 
  -2   6 -20   -0.26    0.43 
  -1   6 -20   -0.10    0.47 
   0   6 -20    1.25    0.48 
   1   6 -20    0.18    0.45 
   2   6 -20    0.24    0.27 
   3   6 -20    0.81    0.47 
   4   6 -20   -0.24    0.55 
   5   6 -20    0.18    0.66 
   6   6 -20    0.84    0.77 
   7   6 -20    0.06    1.05 
  -4   7 -20    0.11    0.64 
  -3   7 -20    1.98    0.72 
  -2   7 -20    0.95    0.61 
  -1   7 -20    0.08    0.48 
   0   7 -20    0.08    0.46 
   2   7 -20    0.77    0.27 
   3   7 -20    0.02    0.38 
   4   7 -20    1.38    0.55 
  -2   8 -20    0.63    0.65 
  -1   8 -20    0.48    0.66 
  -3  -8 -19    0.68    0.73 
  -2  -8 -19    0.56    0.58 
  -1  -8 -19    0.67    0.58 
   0  -8 -19    0.41    1.39 
   1  -8 -19    1.62    1.37 
   2  -8 -19    0.84    1.31 
  -6  -7 -19    0.10    0.69 
  -5  -7 -19   -0.03    0.71 
  -4  -7 -19    0.14    0.46 
  -3  -7 -19    3.71    0.62 
  -2  -7 -19    1.76    0.58 
  -1  -7 -19    0.07    0.39 
   0  -7 -19    1.06    0.96 
   1  -7 -19    1.38    1.04 
   2  -7 -19    5.30    1.26 
   3  -7 -19    1.55    1.22 
   4  -7 -19    0.61    0.90 
  -8  -6 -19    0.24    0.78 
  -7  -6 -19    1.09    0.92 
  -6  -6 -19   -0.05    0.64 
  -5  -6 -19    0.69    0.49 
  -4  -6 -19   -0.34    0.45 
  -3  -6 -19    0.21    0.41 
  -2  -6 -19    1.89    0.49 
  -1  -6 -19    2.83    0.42 
   0  -6 -19    0.12    0.71 
   1  -6 -19    0.15    0.89 
   2  -6 -19    0.54    0.96 
   3  -6 -19    3.61    0.98 
   4  -6 -19    1.53    0.87 
   5  -6 -19    5.15    1.13 
   6  -6 -19   -0.14    0.76 
  -9  -5 -19    0.72    0.80 
  -8  -5 -19    1.11    0.78 
  -7  -5 -19    0.48    0.61 
  -6  -5 -19    2.08    0.57 
  -5  -5 -19    5.75    0.60 
  -4  -5 -19    0.65    0.40 
  -3  -5 -19    1.20    0.35 
  -2  -5 -19    0.01    0.30 
  -1  -5 -19    0.12    0.28 
   0  -5 -19    0.70    0.24 
   1  -5 -19   -0.31    0.69 
   2  -5 -19    0.70    0.54 
   3  -5 -19    2.95    0.84 
   4  -5 -19    0.37    0.64 
   5  -5 -19    5.30    1.03 
   6  -5 -19   -0.28    0.72 
   7  -5 -19    0.68    0.93 
  -9  -4 -19    0.58    0.90 
  -8  -4 -19    0.27    0.67 
  -7  -4 -19    3.55    0.78 
  -6  -4 -19    0.27    0.45 
  -5  -4 -19    4.80    0.53 
  -4  -4 -19    0.57    0.33 
  -3  -4 -19   -0.14    0.31 
  -2  -4 -19    2.30    0.34 
  -1  -4 -19    0.10    0.20 
   0  -4 -19    3.76    0.69 
   1  -4 -19    0.42    0.70 
   2  -4 -19   -0.02    0.62 
   3  -4 -19    1.42    0.74 
   4  -4 -19    4.29    0.81 
   5  -4 -19    0.98    0.84 
   6  -4 -19    1.88    0.87 
   7  -4 -19    0.06    0.84 
   8  -4 -19    0.43    1.06 
  -7  -3 -19    0.95    0.76 
  -6  -3 -19    6.17    0.90 
  -5  -3 -19    0.19    0.68 
  -4  -3 -19   -0.12    0.29 
  -3  -3 -19    5.77    0.89 
  -2  -3 -19    1.53    0.27 
  -1  -3 -19    3.04    0.59 
   0  -3 -19    3.30    0.70 
   1  -3 -19    1.92    0.67 
   2  -3 -19   21.43    1.26 
   3  -3 -19    1.05    0.69 
   4  -3 -19    2.16    0.80 
   5  -3 -19    1.73    0.81 
   6  -3 -19    0.90    0.74 
   7  -3 -19   -0.07    0.86 
   8  -3 -19    1.12    0.90 
  -8  -2 -19    2.54    0.81 
  -7  -2 -19    0.70    0.76 
  -6  -2 -19    6.51    0.85 
  -5  -2 -19    8.91    0.88 
  -4  -2 -19    5.55    0.76 
  -3  -2 -19    9.09    0.85 
  -2  -2 -19   12.53    0.96 
  -1  -2 -19    0.75    0.57 
   0  -2 -19    7.22    0.79 
   1  -2 -19    1.70    0.61 
   2  -2 -19    0.41    0.43 
   3  -2 -19   10.84    0.94 
   4  -2 -19   -0.21    0.66 
   5  -2 -19   20.11    1.33 
   6  -2 -19   -0.16    0.74 
   7  -2 -19    0.46    0.81 
  -8  -1 -19    1.35    0.64 
  -7  -1 -19    4.05    0.71 
  -6  -1 -19    4.04    0.70 
  -5  -1 -19    3.50    0.68 
  -4  -1 -19   10.28    0.91 
  -3  -1 -19    4.68    0.75 
  -2  -1 -19    2.12    0.60 
  -1  -1 -19    0.46    0.47 
   0  -1 -19    2.46    0.54 
   1  -1 -19    8.79    0.76 
   2  -1 -19    0.35    0.53 
   3  -1 -19    0.47    0.58 
   4  -1 -19   22.64    1.17 
   5  -1 -19    3.47    0.56 
   6  -1 -19    1.24    0.59 
   7  -1 -19    2.13    0.64 
   8  -1 -19    2.89    0.90 
   9  -1 -19    2.31    1.02 
  10  -1 -19    1.26    0.91 
  11  -1 -19   -0.09    0.98 
  12  -1 -19   -0.06    1.18 
  -9   0 -19    0.55    0.63 
  -8   0 -19    0.44    0.64 
  -7   0 -19   25.12    1.21 
  -6   0 -19   -0.14    0.51 
  -5   0 -19   13.56    0.90 
  -4   0 -19    0.20    0.52 
  -3   0 -19   60.96    1.63 
  -2   0 -19   -0.13    0.45 
  -1   0 -19    6.90    0.67 
   0   0 -19    0.10    0.27 
   1   0 -19    4.79    0.38 
   2   0 -19    0.19    0.21 
   3   0 -19   21.64    0.73 
   4   0 -19    0.54    0.40 
   5   0 -19    5.02    0.64 
   6   0 -19   -0.20    0.56 
   7   0 -19   -0.60    1.01 
   8   0 -19    1.01    1.11 
   9   0 -19    1.52    0.96 
  10   0 -19   -0.69    0.90 
  11   0 -19    2.59    1.16 
  12   0 -19    0.28    1.32 
 -10   1 -19    0.45    0.56 
  -9   1 -19    3.52    0.66 
  -8   1 -19    1.56    0.57 
  -7   1 -19    4.04    0.64 
  -6   1 -19    3.65    0.59 
  -5   1 -19    3.02    0.58 
  -4   1 -19    9.20    0.81 
  -3   1 -19    5.00    0.66 
  -2   1 -19    1.94    0.41 
  -1   1 -19    0.57    0.40 
   0   1 -19    2.40    0.49 
   1   1 -19    6.91    0.43 
   2   1 -19    0.43    0.33 
   3   1 -19    0.97    0.36 
   4   1 -19   22.71    0.78 
   5   1 -19    4.23    0.53 
   6   1 -19    1.03    1.01 
   7   1 -19    0.63    1.05 
   8   1 -19    3.13    1.22 
   9   1 -19    3.13    1.17 
  10   1 -19    1.11    1.10 
  11   1 -19   -0.15    1.14 
 -10   2 -19    0.78    0.55 
  -9   2 -19    0.16    0.48 
  -8   2 -19    2.22    0.53 
  -7   2 -19    0.75    0.47 
  -6   2 -19    4.82    0.62 
  -5   2 -19    6.38    0.66 
  -4   2 -19    4.85    0.64 
  -3   2 -19    8.72    0.74 
  -2   2 -19   12.04    0.77 
  -1   2 -19    0.39    0.42 
   0   2 -19    5.54    0.58 
   1   2 -19    1.19    0.42 
   2   2 -19    0.19    0.31 
   3   2 -19    9.44    0.57 
   4   2 -19   -0.17    0.37 
   5   2 -19   18.96    1.27 
   6   2 -19    0.01    0.68 
   7   2 -19   -0.25    1.03 
   8   2 -19    2.73    1.27 
   9   2 -19    0.91    1.20 
  10   2 -19    1.65    1.29 
  11   2 -19    1.01    1.24 
 -11   3 -19   -0.33    0.64 
 -10   3 -19    1.02    0.65 
  -9   3 -19   -0.35    0.52 
  -8   3 -19    0.74    0.57 
  -7   3 -19    0.78    0.55 
  -6   3 -19    4.22    0.70 
  -5   3 -19    0.23    0.52 
  -4   3 -19    0.12    0.45 
  -3   3 -19    8.30    0.75 
  -2   3 -19    2.70    0.50 
  -1   3 -19    8.83    0.68 
   0   3 -19    2.86    0.51 
   1   3 -19    1.78    0.43 
   2   3 -19   15.80    0.60 
   3   3 -19    0.61    0.33 
   4   3 -19    1.39    0.37 
   5   3 -19    1.52    0.69 
   6   3 -19    0.54    0.79 
   7   3 -19    0.07    1.24 
   8   3 -19   -0.06    1.21 
   9   3 -19    1.57    1.39 
  10   3 -19    0.80    1.39 
 -10   4 -19    1.18    0.71 
  -9   4 -19    0.95    0.65 
  -8   4 -19   -0.47    0.56 
  -7   4 -19    3.72    0.72 
  -6   4 -19    0.53    0.56 
  -5   4 -19    4.98    0.74 
  -4   4 -19    0.60    0.50 
  -2   4 -19    3.56    0.59 
  -1   4 -19    0.06    0.40 
   0   4 -19    8.73    0.68 
   1   4 -19   -0.03    0.38 
   2   4 -19   -0.34    0.24 
   3   4 -19    0.02    0.31 
   4   4 -19    3.68    0.72 
   5   4 -19    1.11    0.70 
   6   4 -19    0.84    0.81 
   7   4 -19    0.50    0.91 
   8   4 -19   -0.17    1.42 
   9   4 -19    0.37    1.49 
  10   4 -19    0.35    1.40 
  -9   5 -19    0.79    0.70 
  -8   5 -19    1.01    0.71 
  -7   5 -19    0.42    0.52 
  -6   5 -19    2.27    0.69 
  -5   5 -19    6.14    0.84 
  -4   5 -19    0.89    0.56 
  -3   5 -19    1.67    0.51 
  -2   5 -19    0.11    0.44 
  -1   5 -19    0.54    0.45 
   0   5 -19    1.58    0.51 
   1   5 -19    0.07    0.42 
   2   5 -19    0.32    0.25 
   3   5 -19    1.54    0.56 
   4   5 -19    0.39    0.58 
   5   5 -19    3.33    0.78 
   6   5 -19    0.20    0.74 
   7   5 -19    0.32    0.92 
   8   5 -19    0.32    1.39 
   9   5 -19    0.23    1.49 
  -7   6 -19    1.29    0.78 
  -6   6 -19   -0.23    0.58 
  -5   6 -19    0.36    0.58 
  -4   6 -19   -0.10    0.50 
  -3   6 -19    0.12    0.56 
  -2   6 -19    1.62    0.59 
  -1   6 -19    3.02    0.60 
   0   6 -19    0.09    0.43 
   1   6 -19   -0.27    0.40 
   2   6 -19    0.42    0.31 
   3   6 -19    2.14    0.54 
   4   6 -19    0.42    0.59 
   5   6 -19    3.33    0.83 
   6   6 -19    0.18    0.79 
   7   6 -19    2.40    1.03 
  -5   7 -19    0.38    0.59 
  -4   7 -19    0.20    0.62 
  -3   7 -19    4.36    0.81 
  -2   7 -19    1.10    0.63 
  -1   7 -19    0.72    0.59 
   0   7 -19    0.55    0.55 
   2   7 -19    1.22    0.26 
   3   7 -19    0.67    0.40 
   4   7 -19    0.02    0.50 
   5   7 -19    0.04    0.63 
  -3   8 -19   -0.22    0.63 
  -2   8 -19    0.69    0.63 
  -1   8 -19    0.44    0.57 
   2   8 -19    0.17    0.18 
  -4  -8 -18   -0.50    0.76 
  -3  -8 -18    1.76    0.69 
  -2  -8 -18   -0.12    0.57 
  -1  -8 -18    1.44    1.21 
   0  -8 -18    2.28    1.28 
   1  -8 -18    1.58    1.15 
   2  -8 -18    1.42    1.19 
  -7  -7 -18    0.42    0.89 
  -6  -7 -18   -0.22    0.61 
  -5  -7 -18    0.46    0.64 
  -4  -7 -18   -0.26    0.47 
  -3  -7 -18    0.62    0.52 
  -2  -7 -18    0.45    0.55 
  -1  -7 -18   -0.07    0.42 
   0  -7 -18    0.45    0.95 
   1  -7 -18    6.99    1.29 
   2  -7 -18    0.80    1.02 
   3  -7 -18    1.16    1.13 
   4  -7 -18    1.85    0.91 
  -8  -6 -18    0.07    0.76 
  -7  -6 -18   -0.32    0.68 
  -6  -6 -18    0.84    0.66 
  -5  -6 -18    0.08    0.43 
  -4  -6 -18   -0.34    0.48 
  -3  -6 -18   -0.22    0.38 
  -2  -6 -18   -0.06    0.37 
  -1  -6 -18   -0.06    0.37 
   0  -6 -18    0.31    0.35 
   1  -6 -18   -0.07    0.89 
   2  -6 -18    4.89    0.96 
   3  -6 -18    0.45    0.72 
   4  -6 -18    4.87    1.01 
   5  -6 -18    0.20    0.91 
   6  -6 -18    1.18    0.92 
 -10  -5 -18    0.32    1.18 
  -9  -5 -18    0.44    0.75 
  -8  -5 -18    1.59    0.73 
  -7  -5 -18    1.06    0.71 
  -6  -5 -18   -0.20    0.55 
  -5  -5 -18    0.42    0.45 
  -4  -5 -18    1.98    0.44 
  -3  -5 -18   -0.22    0.38 
  -2  -5 -18    4.96    0.53 
  -1  -5 -18    5.39    0.67 
   0  -5 -18    0.62    0.32 
   1  -5 -18    5.14    0.92 
   2  -5 -18    0.67    0.68 
   3  -5 -18    1.16    0.78 
   4  -5 -18    1.97    0.88 
   5  -5 -18    0.41    0.78 
   6  -5 -18    1.96    0.87 
   7  -5 -18    0.49    0.75 
 -11  -4 -18    0.47    0.85 
 -10  -4 -18    6.42    1.08 
  -9  -4 -18    0.49    0.83 
  -8  -4 -18    1.12    0.82 
  -7  -4 -18    0.35    0.63 
  -6  -4 -18    5.74    0.61 
  -5  -4 -18    3.89    0.52 
  -4  -4 -18   -0.14    0.36 
  -3  -4 -18    1.87    0.35 
  -2  -4 -18    1.31    0.31 
  -1  -4 -18    0.69    0.29 
   0  -4 -18    0.03    0.23 
   1  -4 -18   14.56    1.15 
   2  -4 -18    0.13    0.65 
   3  -4 -18    2.35    0.77 
   4  -4 -18    1.06    0.68 
   5  -4 -18    2.58    0.88 
   6  -4 -18    1.36    0.84 
   7  -4 -18   -0.49    0.69 
   8  -4 -18    1.69    0.92 
 -10  -3 -18    1.56    0.83 
  -9  -3 -18   -0.38    0.58 
  -8  -3 -18    1.83    0.70 
  -7  -3 -18   14.67    0.83 
  -6  -3 -18    6.05    0.55 
  -5  -3 -18   22.74    1.75 
  -4  -3 -18   -0.09    0.32 
  -3  -3 -18    4.14    0.44 
  -2  -3 -18    0.38    0.21 
  -1  -3 -18   17.04    2.80 
   0  -3 -18    0.03    0.12 
   1  -3 -18    0.25    0.59 
   2  -3 -18    1.17    0.64 
   3  -3 -18   21.27    1.26 
   4  -3 -18    0.37    0.72 
   5  -3 -18   23.36    1.45 
   6  -3 -18    2.90    0.93 
   7  -3 -18    2.25    0.94 
   8  -3 -18    2.26    1.04 
  -8  -2 -18   -0.21    0.70 
  -7  -2 -18    0.24    0.67 
  -6  -2 -18   11.94    1.00 
  -5  -2 -18    6.53    0.82 
  -4  -2 -18    0.59    0.58 
  -3  -2 -18    7.64    0.81 
  -2  -2 -18    4.57    0.69 
  -1  -2 -18    3.16    0.64 
   0  -2 -18    0.96    0.55 
   1  -2 -18    9.15    0.83 
   2  -2 -18    3.16    0.63 
   3  -2 -18    7.10    0.83 
   4  -2 -18   13.69    1.10 
   5  -2 -18    3.60    0.88 
   6  -2 -18    0.19    0.79 
   7  -2 -18    0.18    0.75 
  10  -2 -18    0.13    0.83 
  -8  -1 -18   10.02    0.94 
  -7  -1 -18    0.21    0.57 
  -6  -1 -18    0.22    0.54 
  -5  -1 -18    1.40    0.57 
  -4  -1 -18    1.75    0.65 
  -3  -1 -18    0.01    0.58 
  -2  -1 -18    7.16    0.74 
  -1  -1 -18    0.05    0.47 
   0  -1 -18    4.49    0.59 
   1  -1 -18    5.57    0.58 
   2  -1 -18    7.58    0.74 
   3  -1 -18    4.15    0.50 
   4  -1 -18   41.51    1.03 
   5  -1 -18   13.07    0.81 
   6  -1 -18    8.00    0.71 
   7  -1 -18   18.33    0.96 
   8  -1 -18    0.59    0.90 
   9  -1 -18    0.30    0.84 
  10  -1 -18   -0.68    0.88 
  11  -1 -18    0.38    1.05 
  12  -1 -18    0.20    1.01 
  -9   0 -18   -0.15    0.62 
  -8   0 -18    0.11    0.53 
  -7   0 -18    0.06    0.56 
  -6   0 -18    0.37    0.48 
  -5   0 -18    0.20    0.53 
  -4   0 -18   44.37    1.39 
  -3   0 -18    0.74    0.54 
  -2   0 -18   10.71    0.76 
  -1   0 -18    0.07    0.38 
   0   0 -18   29.76    1.16 
   1   0 -18    0.05    0.27 
   2   0 -18   41.35    1.24 
   3   0 -18    0.23    0.35 
   4   0 -18    7.46    0.54 
   5   0 -18   -0.26    0.48 
   6   0 -18   14.63    0.80 
   7   0 -18   -0.76    0.96 
   8   0 -18    8.85    1.24 
   9   0 -18   -0.19    0.82 
  10   0 -18   -0.07    0.87 
  11   0 -18   -0.37    1.00 
  12   0 -18    2.17    1.21 
 -10   1 -18    0.28    0.65 
  -9   1 -18    0.07    0.61 
  -8   1 -18   10.23    0.88 
  -7   1 -18    0.45    0.54 
  -6   1 -18   -0.35    0.51 
  -5   1 -18    0.93    0.51 
  -4   1 -18    1.46    0.50 
  -3   1 -18    0.42    0.49 
  -2   1 -18    7.29    0.63 
  -1   1 -18    0.01    0.39 
   0   1 -18    4.10    0.52 
   1   1 -18    4.20    0.35 
   2   1 -18    6.75    0.48 
   3   1 -18    3.52    0.41 
   4   1 -18   44.49    1.04 
   5   1 -18   13.66    0.74 
   6   1 -18    8.77    1.24 
   7   1 -18   20.29    1.58 
   8   1 -18    0.29    1.04 
   9   1 -18    0.36    1.06 
  10   1 -18   -0.09    0.94 
  11   1 -18    0.35    1.02 
  12   1 -18    0.44    1.29 
 -10   2 -18    1.41    0.59 
  -9   2 -18    1.61    0.58 
  -8   2 -18    0.10    0.48 
  -7   2 -18    0.42    0.42 
  -6   2 -18   11.25    0.85 
  -5   2 -18    4.49    0.63 
  -4   2 -18    0.60    0.43 
  -3   2 -18    7.14    0.63 
  -2   2 -18    5.05    0.60 
  -1   2 -18    3.36    0.47 
   0   2 -18    0.29    0.41 
   1   2 -18    7.17    0.59 
   2   2 -18    3.37    0.38 
   3   2 -18    5.99    0.47 
   4   2 -18   12.07    0.61 
   5   2 -18    3.95    0.86 
   6   2 -18    0.03    0.70 
   7   2 -18    0.12    1.03 
   8   2 -18    1.11    1.20 
   9   2 -18    2.69    1.23 
  10   2 -18    1.22    1.21 
  11   2 -18    0.91    1.25 
 -11   3 -18    0.89    0.64 
 -10   3 -18    0.97    0.60 
  -9   3 -18   -0.47    0.51 
  -8   3 -18    1.37    0.56 
  -7   3 -18   12.66    0.94 
  -6   3 -18    5.27    0.64 
  -5   3 -18   23.91    1.16 
  -4   3 -18   -0.11    0.45 
  -3   3 -18    6.97    0.67 
  -2   3 -18    0.61    0.44 
  -1   3 -18   31.15    1.07 
   0   3 -18    0.50    0.41 
   1   3 -18    0.65    0.39 
   2   3 -18    0.37    0.30 
   3   3 -18   15.64    0.62 
   4   3 -18   -0.35    0.31 
   5   3 -18   21.93    1.36 
   6   3 -18    3.13    0.90 
   7   3 -18    1.90    1.27 
   8   3 -18    0.54    1.19 
   9   3 -18   -0.49    1.20 
  10   3 -18    0.96    1.33 
  11   3 -18    2.43    1.57 
 -11   4 -18    0.43    0.75 
 -10   4 -18    4.92    0.79 
  -9   4 -18   -0.02    0.53 
  -8   4 -18    1.30    0.62 
  -7   4 -18   -0.57    0.51 
  -6   4 -18    3.26    0.57 
  -5   4 -18    4.87    0.74 
  -4   4 -18    0.02    0.46 
  -3   4 -18    2.29    0.56 
  -2   4 -18    1.95    0.51 
  -1   4 -18    0.66    0.43 
   0   4 -18    0.40    0.39 
   1   4 -18   11.43    0.68 
   2   4 -18    0.36    0.30 
   3   4 -18    1.63    0.35 
   4   4 -18    0.92    0.65 
   5   4 -18    1.93    0.72 
   6   4 -18    2.24    0.81 
   7   4 -18   -0.24    0.88 
   8   4 -18    0.90    1.44 
   9   4 -18    0.15    1.39 
  10   4 -18    0.89    1.46 
  -9   5 -18    0.20    0.62 
  -8   5 -18    1.09    0.55 
  -7   5 -18    1.09    0.69 
  -6   5 -18   -0.31    0.60 
  -5   5 -18    1.17    0.57 
  -4   5 -18    2.44    0.62 
  -3   5 -18   -0.03    0.51 
  -2   5 -18    4.96    0.70 
  -1   5 -18    5.41    0.65 
   0   5 -18    0.80    0.48 
   1   5 -18    3.85    0.53 
   2   5 -18    0.44    0.29 
   3   5 -18    0.91    0.54 
   4   5 -18    1.57    0.56 
   5   5 -18    0.33    0.67 
   6   5 -18    1.11    0.74 
   7   5 -18    0.00    0.91 
   8   5 -18    0.27    1.27 
   9   5 -18    0.42    1.43 
  -8   6 -18    0.04    0.64 
  -7   6 -18    0.71    0.67 
  -6   6 -18    1.21    0.60 
  -5   6 -18   -0.15    0.52 
  -4   6 -18    0.17    0.54 
  -3   6 -18    0.29    0.61 
  -2   6 -18    0.40    0.59 
  -1   6 -18   -0.02    0.53 
   0   6 -18    0.04    0.43 
   1   6 -18   -0.29    0.41 
   2   6 -18    2.27    0.46 
   3   6 -18    0.46    0.48 
   4   6 -18    2.52    0.60 
   5   6 -18   -0.35    0.62 
   6   6 -18    0.31    0.70 
   7   6 -18   -0.32    0.85 
   8   6 -18    2.01    1.17 
  -6   7 -18    0.29    0.59 
  -5   7 -18    0.34    0.58 
  -4   7 -18    0.31    0.51 
  -3   7 -18    0.89    0.52 
  -2   7 -18    0.66    0.54 
  -1   7 -18    0.60    0.56 
   0   7 -18    0.17    0.47 
   2   7 -18    0.18    0.24 
   3   7 -18    0.40    0.40 
   4   7 -18    0.38    0.51 
   5   7 -18    0.62    0.70 
   6   7 -18    0.68    0.81 
  -4   8 -18   -0.10    0.60 
  -3   8 -18    1.27    0.64 
  -2   8 -18    0.80    0.54 
  -1   8 -18    0.45    0.53 
   0   8 -18    0.18    0.53 
   2   8 -18    0.16    0.20 
   3   8 -18    0.34    0.40 
  -5  -8 -17   -0.28    0.85 
  -4  -8 -17    0.48    0.67 
  -3  -8 -17    0.19    0.59 
  -2  -8 -17    0.19    0.62 
  -1  -8 -17    1.05    0.53 
   0  -8 -17    0.85    1.06 
   1  -8 -17    1.94    1.15 
  -7  -7 -17    0.21    0.79 
  -6  -7 -17   -0.20    0.63 
  -5  -7 -17   -0.30    0.56 
  -4  -7 -17    1.14    0.57 
  -3  -7 -17    0.79    0.50 
  -2  -7 -17    0.60    0.50 
  -1  -7 -17    0.61    0.47 
   0  -7 -17    0.37    0.39 
   1  -7 -17    4.76    1.15 
   2  -7 -17    0.53    0.98 
   3  -7 -17    0.80    1.00 
   4  -7 -17    2.00    0.91 
  -9  -6 -17    2.05    0.94 
  -8  -6 -17    1.63    0.88 
  -7  -6 -17    0.55    0.65 
  -6  -6 -17   -0.64    0.58 
  -5  -6 -17    0.60    0.52 
  -4  -6 -17    0.49    0.44 
  -3  -6 -17    2.59    0.49 
  -2  -6 -17   -0.22    0.39 
  -1  -6 -17    1.73    0.50 
   0  -6 -17    1.42    0.46 
   1  -6 -17    9.63    1.30 
   2  -6 -17    2.18    0.96 
   3  -6 -17    1.65    0.85 
   4  -6 -17    2.32    0.86 
   5  -6 -17   -0.39    0.71 
 -10  -5 -17   -0.69    0.91 
  -9  -5 -17    0.00    0.88 
  -8  -5 -17   -0.11    0.62 
  -7  -5 -17    0.36    0.62 
  -6  -5 -17    1.97    0.64 
  -5  -5 -17   -0.28    0.47 
  -4  -5 -17    0.04    0.42 
  -3  -5 -17   -0.25    0.40 
  -2  -5 -17   -0.29    0.36 
  -1  -5 -17    1.04    0.42 
   0  -5 -17    2.48    0.39 
   1  -5 -17    1.52    0.77 
   2  -5 -17    5.21    0.92 
   3  -5 -17    7.97    1.13 
   4  -5 -17    1.66    0.79 
   5  -5 -17   -0.04    0.70 
   6  -5 -17    0.56    0.93 
   7  -5 -17    2.57    0.92 
 -11  -4 -17    0.46    0.76 
 -10  -4 -17    0.33    0.66 
  -9  -4 -17    3.61    0.88 
  -8  -4 -17   12.03    1.18 
  -7  -4 -17    4.09    0.86 
  -6  -4 -17   30.27    2.26 
  -5  -4 -17    4.47    0.54 
  -4  -4 -17   -0.06    0.37 
  -3  -4 -17   -0.18    0.33 
  -2  -4 -17    7.94    0.76 
  -1  -4 -17    2.61    0.35 
   0  -4 -17    4.62    0.61 
   1  -4 -17    0.13    0.68 
   2  -4 -17   13.78    1.13 
   3  -4 -17    9.33    1.01 
   4  -4 -17   20.63    1.34 
   5  -4 -17    4.37    1.01 
   6  -4 -17    2.02    0.89 
   7  -4 -17    0.98    0.91 
   8  -4 -17    0.06    0.85 
 -12  -3 -17    0.03    0.94 
 -11  -3 -17    0.44    0.75 
 -10  -3 -17    3.64    0.91 
  -9  -3 -17   -0.55    0.65 
  -8  -3 -17    2.05    0.65 
  -7  -3 -17    0.71    0.50 
  -6  -3 -17    2.60    0.53 
  -5  -3 -17    4.10    0.47 
  -4  -3 -17    4.60    0.43 
  -3  -3 -17    5.94    0.49 
  -2  -3 -17    1.84    0.30 
  -1  -3 -17    1.45    0.22 
   0  -3 -17   19.30    3.13 
   1  -3 -17   13.89    1.00 
   2  -3 -17   23.87    1.27 
   3  -3 -17    3.73    0.77 
   4  -3 -17   19.96    1.31 
   5  -3 -17    0.97    0.71 
   6  -3 -17    9.71    1.25 
   7  -3 -17    0.44    0.80 
   8  -3 -17    0.18    1.00 
  -9  -2 -17    0.16    0.64 
  -8  -2 -17    0.18    0.49 
  -7  -2 -17    0.18    0.43 
  -6  -2 -17    2.24    0.45 
  -5  -2 -17   -0.03    0.40 
  -4  -2 -17   12.68    0.90 
  -3  -2 -17    2.88    0.30 
  -2  -2 -17    6.45    0.89 
  -1  -2 -17    1.73    0.27 
   0  -2 -17   -0.01    0.03 
   1  -2 -17    0.63    0.53 
   2  -2 -17    0.86    0.53 
   3  -2 -17    0.96    0.58 
   4  -2 -17    1.38    0.70 
   5  -2 -17    0.04    0.74 
   6  -2 -17   28.20    1.54 
   7  -2 -17    1.33    0.61 
   8  -2 -17    0.20    0.80 
   9  -2 -17    1.90    0.94 
  10  -2 -17    0.73    0.78 
  -8  -1 -17    2.28    0.70 
  -7  -1 -17   11.62    0.92 
  -6  -1 -17    5.98    0.74 
  -5  -1 -17    2.12    0.61 
  -4  -1 -17   17.50    0.95 
  -3  -1 -17   16.73    1.01 
  -2  -1 -17   11.59    0.81 
  -1  -1 -17    8.28    0.71 
   0  -1 -17    3.09    0.51 
   1  -1 -17    0.36    0.26 
   2  -1 -17    0.40    0.30 
   3  -1 -17    4.20    0.49 
   4  -1 -17   33.83    3.81 
   5  -1 -17   10.92    0.76 
   6  -1 -17    8.93    0.72 
   7  -1 -17   11.36    0.85 
   8  -1 -17    0.85    0.90 
   9  -1 -17    0.63    0.86 
  10  -1 -17    0.57    0.80 
  11  -1 -17    0.39    0.91 
  12  -1 -17    0.44    0.98 
  -9   0 -17   14.32    1.03 
  -8   0 -17    0.16    0.59 
  -7   0 -17   -0.23    0.54 
  -6   0 -17   -0.03    0.51 
  -5   0 -17   18.84    0.92 
  -4   0 -17    0.25    0.51 
  -3   0 -17   41.78    1.22 
  -2   0 -17   -0.07    0.45 
  -1   0 -17    5.22    0.48 
   0   0 -17    0.24    0.42 
   1   0 -17    0.87    0.25 
   2   0 -17    0.09    0.23 
   3   0 -17   75.80    1.23 
   4   0 -17   -0.14    0.35 
   5   0 -17    9.53    0.66 
   6   0 -17    0.29    0.54 
   7   0 -17    2.50    1.14 
   8   0 -17   -0.44    0.93 
   9   0 -17    0.96    0.90 
  10   0 -17    1.00    0.93 
  11   0 -17    0.49    0.96 
  12   0 -17    0.29    1.11 
 -10   1 -17    1.01    0.62 
  -9   1 -17   -0.16    0.53 
  -8   1 -17    1.90    0.54 
  -7   1 -17    9.99    0.75 
  -6   1 -17    6.06    0.70 
  -5   1 -17    1.97    0.56 
  -4   1 -17   18.43    0.95 
  -3   1 -17   15.00    0.78 
  -2   1 -17   11.99    0.74 
  -1   1 -17    7.99    0.56 
   0   1 -17    2.81    0.37 
   1   1 -17    0.11    0.25 
   2   1 -17    0.32    0.31 
   3   1 -17    3.14    0.39 
   4   1 -17   37.65    0.98 
   5   1 -17   10.30    0.68 
   6   1 -17    8.76    1.20 
   7   1 -17   10.76    1.29 
   8   1 -17   -0.25    1.09 
   9   1 -17   -0.26    0.96 
  10   1 -17    1.11    1.02 
  11   1 -17   -0.15    1.00 
  12   1 -17    0.94    1.23 
 -10   2 -17    3.77    0.67 
  -9   2 -17    0.35    0.51 
  -8   2 -17   -0.24    0.44 
  -7   2 -17   -0.13    0.47 
  -6   2 -17    1.88    0.55 
  -5   2 -17    0.28    0.49 
  -4   2 -17   14.13    0.86 
  -3   2 -17    4.24    0.51 
  -2   2 -17   12.37    0.71 
  -1   2 -17    6.25    0.58 
   0   2 -17    0.07    0.32 
   1   2 -17   -0.08    0.34 
   2   2 -17    1.18    0.30 
   3   2 -17    0.76    0.33 
   4   2 -17    1.12    0.38 
   5   2 -17    0.15    0.43 
   6   2 -17   24.64    1.46 
   7   2 -17    0.57    1.13 
   8   2 -17    0.38    1.10 
   9   2 -17    1.59    1.14 
  10   2 -17    0.85    1.17 
  11   2 -17    2.25    1.18 
  12   2 -17    0.57    1.27 
 -11   3 -17    0.13    0.58 
 -10   3 -17    2.33    0.65 
  -9   3 -17    0.15    0.56 
  -8   3 -17    1.82    0.60 
  -7   3 -17    0.48    0.56 
  -6   3 -17    2.20    0.63 
  -5   3 -17    4.27    0.68 
  -4   3 -17    5.44    0.68 
  -3   3 -17    8.64    0.73 
  -2   3 -17    2.83    0.53 
  -1   3 -17    3.09    0.51 
   0   3 -17   39.21    1.10 
   1   3 -17   12.08    0.71 
   2   3 -17   16.29    0.56 
   3   3 -17    2.84    0.38 
   4   3 -17   15.69    0.66 
   5   3 -17    1.00    0.76 
   6   3 -17    7.98    1.08 
   7   3 -17    0.56    1.25 
   8   3 -17   -0.02    1.11 
   9   3 -17    1.60    1.31 
  10   3 -17    3.51    1.43 
  11   3 -17    0.43    1.42 
 -11   4 -17    0.45    0.62 
 -10   4 -17    0.63    0.62 
  -9   4 -17    3.39    0.75 
  -8   4 -17    9.73    0.94 
  -7   4 -17    4.93    0.80 
  -6   4 -17   28.67    1.42 
  -5   4 -17    4.33    0.74 
  -4   4 -17    0.00    0.50 
  -3   4 -17    0.14    0.48 
  -2   4 -17   10.73    0.75 
  -1   4 -17    4.03    0.57 
   0   4 -17    6.95    0.63 
   1   4 -17    0.28    0.41 
   2   4 -17    9.87    0.49 
   3   4 -17    7.30    0.48 
   4   4 -17   18.06    1.25 
   5   4 -17    3.66    0.82 
   6   4 -17    3.59    0.90 
   7   4 -17    0.05    0.90 
   8   4 -17   -1.00    1.30 
   9   4 -17    1.93    1.37 
  10   4 -17    1.47    1.44 
 -10   5 -17    0.34    0.72 
  -9   5 -17    0.22    0.67 
  -8   5 -17    0.47    0.63 
  -7   5 -17    0.01    0.53 
  -6   5 -17    2.36    0.65 
  -5   5 -17   -0.10    0.49 
  -4   5 -17    0.06    0.44 
  -3   5 -17   -0.14    0.54 
  -2   5 -17   -0.03    0.49 
  -1   5 -17    1.59    0.54 
   0   5 -17    2.91    0.53 
   1   5 -17    0.49    0.42 
   2   5 -17    4.34    0.52 
   3   5 -17    5.53    0.72 
   4   5 -17    1.69    0.73 
   5   5 -17   -0.52    0.67 
   6   5 -17    0.21    0.70 
   7   5 -17    0.23    0.96 
   8   5 -17    0.38    1.17 
   9   5 -17    0.85    1.20 
  10   5 -17    1.10    1.41 
  -8   6 -17    0.74    0.67 
  -7   6 -17    1.01    0.63 
  -6   6 -17   -0.01    0.54 
  -5   6 -17   -0.23    0.49 
  -4   6 -17    0.62    0.53 
  -3   6 -17    2.47    0.60 
  -2   6 -17   -0.24    0.51 
  -1   6 -17    2.05    0.69 
   0   6 -17    1.47    0.56 
   1   6 -17    6.72    0.66 
   3   6 -17    0.93    0.47 
   4   6 -17    1.15    0.62 
   5   6 -17   -1.13    0.61 
   6   6 -17   -0.21    0.67 
   7   6 -17    0.36    0.90 
   8   6 -17   -0.54    0.97 
  -7   7 -17   -0.01    0.60 
  -6   7 -17    0.39    0.54 
  -5   7 -17    0.50    0.54 
  -4   7 -17    1.22    0.56 
  -3   7 -17    1.19    0.57 
  -2   7 -17    0.48    0.51 
  -1   7 -17    0.01    0.44 
   0   7 -17    0.25    0.50 
   1   7 -17    2.81    0.60 
   2   7 -17    0.43    0.32 
   3   7 -17    0.44    0.40 
   4   7 -17    0.66    0.56 
   5   7 -17    0.18    0.66 
   6   7 -17    0.43    0.80 
   7   7 -17    0.85    1.03 
  -4   8 -17    0.01    0.50 
  -3   8 -17    0.18    0.48 
  -2   8 -17    0.22    0.49 
  -1   8 -17    0.57    0.51 
   0   8 -17    0.27    0.45 
   2   8 -17    0.68    0.25 
   3   8 -17    1.82    0.47 
   4   8 -17    0.15    0.55 
   5   8 -17   -0.06    0.73 
  -2   9 -17    0.30    0.53 
  -1   9 -17    0.38    0.50 
  -5  -8 -16   -0.25    0.78 
  -4  -8 -16    0.08    0.66 
  -3  -8 -16    0.65    0.58 
  -2  -8 -16    0.97    0.66 
  -1  -8 -16    0.13    0.53 
   0  -8 -16    1.59    1.06 
  -8  -7 -16    0.22    0.82 
  -7  -7 -16   -0.17    0.78 
  -6  -7 -16    0.92    0.70 
  -5  -7 -16   -0.45    0.52 
  -4  -7 -16    0.85    0.52 
  -3  -7 -16    0.21    0.49 
  -2  -7 -16    2.43    0.56 
  -1  -7 -16    0.60    0.50 
   0  -7 -16    0.63    0.52 
   1  -7 -16    6.16    1.22 
   2  -7 -16    1.47    1.07 
   3  -7 -16    3.93    0.99 
  -9  -6 -16    1.28    0.78 
  -8  -6 -16    4.73    0.92 
  -7  -6 -16    0.33    0.66 
  -6  -6 -16    2.78    0.74 
  -5  -6 -16    0.20    0.50 
  -4  -6 -16    0.41    0.47 
  -3  -6 -16    0.06    0.47 
  -2  -6 -16    2.64    0.49 
  -1  -6 -16   10.39    0.76 
   0  -6 -16    6.67    0.61 
   1  -6 -16    1.16    0.94 
   2  -6 -16    9.59    1.25 
   3  -6 -16    4.13    0.96 
   4  -6 -16    0.71    0.85 
   5  -6 -16   -0.35    0.56 
 -10  -5 -16    0.81    0.87 
  -9  -5 -16    0.43    0.78 
  -8  -5 -16    3.65    0.92 
  -7  -5 -16    1.52    0.63 
  -6  -5 -16    0.22    0.59 
  -5  -5 -16    0.38    0.50 
  -4  -5 -16   18.29    1.10 
  -3  -5 -16    3.72    0.60 
  -2  -5 -16    0.06    0.35 
  -1  -5 -16    3.18    0.47 
   0  -5 -16    2.78    0.42 
   1  -5 -16    4.00    0.74 
   2  -5 -16    6.31    1.03 
   3  -5 -16   18.44    1.47 
   4  -5 -16    4.86    0.94 
   5  -5 -16   -0.96    0.59 
   6  -5 -16    0.38    0.82 
 -11  -4 -16    1.47    0.79 
 -10  -4 -16    2.14    0.75 
  -9  -4 -16    0.65    0.63 
  -8  -4 -16    5.06    0.91 
  -7  -4 -16    5.23    0.89 
  -6  -4 -16    1.10    0.47 
  -5  -4 -16    0.85    0.45 
  -4  -4 -16    0.53    0.40 
  -3  -4 -16   -0.10    0.32 
  -2  -4 -16    2.02    0.41 
  -1  -4 -16   25.60    2.19 
   0  -4 -16    0.26    0.27 
   1  -4 -16    9.27    1.01 
   2  -4 -16    1.73    0.73 
   3  -4 -16   13.34    1.11 
   4  -4 -16    4.35    0.91 
   5  -4 -16   11.88    1.26 
   6  -4 -16   -0.44    0.74 
   7  -4 -16    0.52    0.92 
 -12  -3 -16    0.07    0.83 
 -11  -3 -16   11.20    1.21 
 -10  -3 -16    0.57    0.69 
  -9  -3 -16    0.40    0.64 
  -8  -3 -16    0.37    0.56 
  -7  -3 -16   20.31    1.22 
  -6  -3 -16    0.25    0.44 
  -5  -3 -16   14.30    0.80 
  -4  -3 -16   10.35    1.05 
  -3  -3 -16    5.96    0.48 
  -2  -3 -16    9.77    1.07 
  -1  -3 -16    0.04    0.22 
   0  -3 -16    3.91    0.46 
   1  -3 -16    7.28    0.79 
   2  -3 -16    0.51    0.60 
   3  -3 -16   15.42    1.07 
   4  -3 -16    3.29    0.81 
   5  -3 -16    3.35    0.78 
   6  -3 -16   22.92    1.62 
   7  -3 -16   -0.25    0.76 
   8  -3 -16    0.90    0.93 
 -12  -2 -16    0.26    0.78 
 -11  -2 -16    1.58    0.77 
 -10  -2 -16    2.17    0.73 
  -9  -2 -16    2.97    0.76 
  -8  -2 -16    1.00    0.48 
  -7  -2 -16   18.95    0.82 
  -6  -2 -16    8.34    0.56 
  -5  -2 -16   16.91    0.71 
  -4  -2 -16   14.04    1.05 
  -3  -2 -16    0.64    0.30 
  -2  -2 -16    0.32    0.18 
  -1  -2 -16    1.29    0.23 
   0  -2 -16   -0.02    0.08 
   1  -2 -16    0.71    0.49 
   2  -2 -16    2.82    0.57 
   3  -2 -16   24.27    1.16 
   4  -2 -16    1.21    0.68 
   5  -2 -16    4.43    0.58 
   6  -2 -16    1.63    0.47 
   7  -2 -16    8.65    0.78 
   8  -2 -16    0.73    0.60 
   9  -2 -16    2.46    0.97 
  10  -2 -16    0.63    0.83 
  -8  -1 -16   -0.23    0.42 
  -7  -1 -16    1.62    0.43 
  -6  -1 -16   38.43    0.95 
  -5  -1 -16   54.40    1.58 
  -4  -1 -16    2.73    0.35 
  -3  -1 -16    4.88    0.53 
  -2  -1 -16    7.92    1.32 
  -1  -1 -16    0.31    0.05 
   0  -1 -16    8.11    0.40 
   1  -1 -16    6.76    0.38 
   2  -1 -16    0.95    0.29 
   3  -1 -16    1.46    0.43 
   4  -1 -16   13.53    2.30 
   5  -1 -16   11.31    0.72 
   6  -1 -16    3.71    0.64 
   7  -1 -16   15.26    0.88 
   8  -1 -16    4.58    1.00 
   9  -1 -16    0.91    0.88 
  10  -1 -16    0.88    0.81 
  11  -1 -16    0.35    0.86 
  12  -1 -16    0.88    0.91 
  -9   0 -16   -0.31    0.59 
  -8   0 -16    2.56    0.60 
  -7   0 -16   -0.30    0.53 
  -6   0 -16   -0.30    0.51 
  -5   0 -16    0.32    0.55 
  -4   0 -16    6.54    0.64 
  -3   0 -16    0.34    0.44 
  -2   0 -16    3.23    0.50 
  -1   0 -16    0.16    0.34 
   0   0 -16    7.21    0.58 
   1   0 -16    0.02    0.22 
   2   0 -16   41.48    1.53 
   3   0 -16    0.56    0.33 
   4   0 -16    0.15    0.44 
   5   0 -16    0.16    0.43 
   6   0 -16   47.27    1.26 
   7   0 -16   -0.02    1.05 
   8   0 -16    1.84    0.94 
   9   0 -16   -0.38    0.82 
  10   0 -16    3.55    1.00 
  11   0 -16    0.37    0.89 
  12   0 -16    0.32    1.02 
 -10   1 -16    2.58    0.58 
  -9   1 -16    2.08    0.53 
  -8   1 -16    0.25    0.41 
  -7   1 -16    1.59    0.46 
  -6   1 -16   30.37    1.10 
  -5   1 -16   54.25    1.40 
  -4   1 -16    3.64    0.56 
  -3   1 -16    8.01    0.66 
  -2   1 -16   19.04    0.79 
  -1   1 -16    2.27    0.43 
   0   1 -16    6.43    0.53 
   1   1 -16    6.89    0.41 
   2   1 -16    0.89    0.28 
   3   1 -16    1.22    0.33 
   4   1 -16   15.18    0.61 
   5   1 -16   11.13    0.68 
   6   1 -16    3.90    1.11 
   7   1 -16   15.45    1.43 
   8   1 -16    4.80    1.22 
   9   1 -16    0.61    0.98 
  10   1 -16    0.73    0.94 
  11   1 -16    0.60    0.99 
  12   1 -16    0.23    1.08 
 -10   2 -16    1.08    0.56 
  -9   2 -16    2.42    0.60 
  -8   2 -16    0.73    0.53 
  -7   2 -16   16.17    0.96 
  -6   2 -16    7.92    0.75 
  -5   2 -16   17.07    0.94 
  -4   2 -16   16.36    0.88 
  -3   2 -16    1.07    0.45 
  -2   2 -16    0.12    0.35 
  -1   2 -16    2.14    0.39 
   0   2 -16   -0.28    0.32 
   1   2 -16    0.44    0.35 
   2   2 -16    2.68    0.33 
   3   2 -16   20.04    0.66 
   4   2 -16    1.34    0.39 
   5   2 -16    4.66    0.51 
   6   2 -16    2.83    0.90 
   7   2 -16    9.92    1.41 
   8   2 -16    1.52    1.19 
   9   2 -16    2.02    1.17 
  10   2 -16    1.07    1.17 
  11   2 -16    1.08    1.07 
  12   2 -16    0.65    1.23 
 -11   3 -16    8.67    0.86 
 -10   3 -16    0.23    0.54 
  -9   3 -16    0.85    0.61 
  -8   3 -16    0.64    0.53 
  -7   3 -16   18.26    1.11 
  -6   3 -16    0.41    0.56 
  -5   3 -16   14.14    0.95 
  -4   3 -16    9.84    0.79 
  -3   3 -16    7.16    0.69 
  -2   3 -16   12.94    0.80 
  -1   3 -16    0.12    0.30 
   0   3 -16    7.45    0.60 
   1   3 -16    5.72    0.51 
   2   3 -16    0.10    0.27 
   3   3 -16   11.23    0.51 
   4   3 -16    2.40    0.42 
   5   3 -16    3.17    0.86 
   6   3 -16   18.02    1.41 
   7   3 -16    0.44    1.20 
   8   3 -16    1.44    1.20 
   9   3 -16    0.85    1.16 
  10   3 -16    4.15    1.44 
  11   3 -16    1.30    1.41 
 -12   4 -16    0.80    0.73 
 -11   4 -16    1.78    0.72 
 -10   4 -16    1.84    0.66 
  -9   4 -16    0.86    0.64 
  -8   4 -16    5.14    0.83 
  -7   4 -16    6.58    0.89 
  -6   4 -16    1.02    0.68 
  -5   4 -16    1.56    0.56 
  -4   4 -16    0.65    0.44 
  -3   4 -16    0.37    0.51 
  -2   4 -16    2.43    0.50 
  -1   4 -16   32.10    1.18 
   0   4 -16    0.90    0.41 
   1   4 -16    8.79    0.62 
   2   4 -16    1.48    0.37 
   3   4 -16   10.92    0.55 
   4   4 -16    4.08    0.84 
   5   4 -16   10.15    1.07 
   6   4 -16    0.82    0.79 
   7   4 -16    0.17    0.78 
   8   4 -16    1.23    1.27 
   9   4 -16    0.55    1.33 
  10   4 -16    3.08    1.41 
  11   4 -16    0.34    1.58 
 -10   5 -16    0.70    0.65 
  -9   5 -16    0.35    0.52 
  -8   5 -16    1.79    0.60 
  -7   5 -16    1.95    0.64 
  -6   5 -16    0.23    0.44 
  -5   5 -16    0.26    0.51 
  -4   5 -16   16.04    0.99 
  -3   5 -16    3.23    0.63 
  -2   5 -16   -0.24    0.51 
  -1   5 -16    3.30    0.61 
   0   5 -16    3.56    0.62 
   1   5 -16    2.63    0.48 
   2   5 -16    3.70    0.50 
   3   5 -16   11.15    0.87 
   4   5 -16    2.87    0.77 
   5   5 -16    0.00    0.75 
   6   5 -16   -0.29    0.68 
   7   5 -16    1.50    0.91 
   8   5 -16    5.29    1.30 
   9   5 -16    0.34    1.06 
  10   5 -16   -0.03    1.25 
  -9   6 -16    0.61    0.62 
  -8   6 -16    3.32    0.67 
  -7   6 -16    0.10    0.54 
  -6   6 -16    2.69    0.63 
  -5   6 -16    0.19    0.45 
  -4   6 -16   -0.06    0.47 
  -3   6 -16    0.22    0.49 
  -2   6 -16    2.77    0.62 
  -1   6 -16    9.08    0.84 
   0   6 -16    6.46    0.79 
   1   6 -16    0.50    0.54 
   2   6 -16    4.66    0.57 
   3   6 -16    2.12    0.55 
   4   6 -16    0.47    0.55 
   5   6 -16   -0.20    0.51 
   6   6 -16    1.61    0.66 
   7   6 -16    0.58    0.91 
   8   6 -16    0.38    1.02 
   9   6 -16    0.40    1.25 
  -7   7 -16   -0.24    0.60 
  -6   7 -16    0.33    0.47 
  -5   7 -16    0.40    0.47 
  -4   7 -16    0.44    0.54 
  -3   7 -16    0.12    0.48 
  -2   7 -16    1.72    0.54 
  -1   7 -16    0.49    0.50 
   0   7 -16    1.23    0.55 
   1   7 -16    3.92    0.63 
   3   7 -16    1.95    0.50 
   4   7 -16   -0.33    0.48 
   5   7 -16    0.26    0.73 
   6   7 -16   -0.33    0.75 
   7   7 -16    0.57    0.99 
   8   7 -16    0.29    1.19 
  -5   8 -16    0.18    0.44 
  -4   8 -16   -0.10    0.45 
  -3   8 -16   -0.06    0.46 
  -2   8 -16    0.43    0.48 
  -1   8 -16    0.85    0.49 
   0   8 -16    0.64    0.45 
   2   8 -16    0.77    0.27 
   3   8 -16    0.30    0.42 
   4   8 -16    0.17    0.56 
   5   8 -16   -0.07    0.71 
   6   8 -16   -0.31    0.85 
  -2   9 -16    1.27    0.54 
  -1   9 -16    0.53    0.46 
  -2  -9 -15    0.53    0.87 
  -1  -9 -15    2.29    0.97 
  -6  -8 -15    0.10    0.73 
  -5  -8 -15   -0.10    0.71 
  -4  -8 -15    0.73    0.68 
  -3  -8 -15    0.88    0.63 
  -2  -8 -15    0.40    0.62 
  -1  -8 -15    0.26    0.54 
   0  -8 -15    0.52    0.62 
  -8  -7 -15    0.79    0.84 
  -7  -7 -15    1.09    0.79 
  -6  -7 -15    0.13    0.63 
  -5  -7 -15    0.57    0.61 
  -4  -7 -15    0.25    0.53 
  -3  -7 -15    0.20    0.47 
  -2  -7 -15    4.89    0.68 
  -1  -7 -15    3.56    0.65 
   0  -7 -15    0.13    0.49 
   1  -7 -15   22.98    1.88 
   2  -7 -15    2.45    1.04 
   3  -7 -15    5.80    1.16 
  -8  -6 -15    0.21    0.65 
  -7  -6 -15    1.67    0.75 
  -6  -6 -15    0.26    0.60 
  -5  -6 -15    5.17    0.64 
  -4  -6 -15    2.60    0.52 
  -3  -6 -15    3.54    0.57 
  -2  -6 -15    1.72    0.49 
  -1  -6 -15    0.32    0.49 
   0  -6 -15    6.85    0.64 
   1  -6 -15    3.00    0.99 
   2  -6 -15    9.84    1.28 
   3  -6 -15    7.18    1.13 
   4  -6 -15    0.25    0.79 
 -11  -5 -15    0.59    0.90 
 -10  -5 -15    0.56    0.74 
  -9  -5 -15   12.09    1.29 
  -8  -5 -15    2.67    0.85 
  -7  -5 -15   10.70    1.04 
  -6  -5 -15    0.12    0.60 
  -5  -5 -15   -0.20    0.42 
  -4  -5 -15    0.29    0.44 
  -3  -5 -15   10.55    1.00 
  -2  -5 -15    5.67    0.52 
  -1  -5 -15   -0.08    0.39 
   0  -5 -15    6.79    0.55 
   1  -5 -15   -0.05    0.66 
   2  -5 -15   13.39    1.32 
   3  -5 -15    3.26    0.88 
   4  -5 -15    3.06    0.86 
   5  -5 -15    1.25    0.77 
   6  -5 -15    0.59    0.69 
 -12  -4 -15    3.26    1.02 
 -11  -4 -15    0.67    0.76 
 -10  -4 -15    0.70    0.67 
  -9  -4 -15    5.18    0.82 
  -8  -4 -15    1.16    0.63 
  -7  -4 -15    1.08    0.73 
  -6  -4 -15   37.57    1.16 
  -5  -4 -15    2.24    0.46 
  -4  -4 -15    0.99    0.40 
  -3  -4 -15    1.78    0.43 
  -2  -4 -15   14.68    0.82 
  -1  -4 -15    0.79    0.37 
   0  -4 -15    4.99    0.45 
   1  -4 -15   10.90    1.07 
   2  -4 -15   16.47    1.21 
   3  -4 -15    9.37    0.99 
   4  -4 -15    0.66    0.81 
   5  -4 -15    6.21    1.03 
   6  -4 -15    0.51    0.77 
   7  -4 -15   11.36    1.31 
 -12  -3 -15    0.15    0.74 
 -11  -3 -15    4.36    0.90 
 -10  -3 -15   11.49    1.13 
  -9  -3 -15    0.82    0.66 
  -8  -3 -15    3.45    0.76 
  -7  -3 -15    8.72    0.65 
  -6  -3 -15   17.79    0.92 
  -5  -3 -15   18.32    0.79 
  -4  -3 -15    0.37    0.35 
  -3  -3 -15    2.71    0.39 
  -2  -3 -15   37.04    3.74 
  -1  -3 -15    4.73    0.50 
   0  -3 -15    4.22    0.54 
   1  -3 -15    2.64    0.63 
   2  -3 -15   13.23    1.00 
   3  -3 -15    4.33    0.80 
   4  -3 -15   66.30    2.09 
   5  -3 -15   17.44    1.23 
   6  -3 -15   25.56    1.63 
   7  -3 -15    2.73    1.02 
   8  -3 -15    0.37    0.81 
 -13  -2 -15    0.42    0.94 
 -12  -2 -15    2.41    0.85 
 -11  -2 -15    0.05    0.71 
 -10  -2 -15    2.39    0.79 
  -9  -2 -15    0.26    0.66 
  -8  -2 -15    0.00    0.44 
  -7  -2 -15    4.20    0.54 
  -6  -2 -15    9.31    0.60 
  -5  -2 -15   15.50    0.76 
  -4  -2 -15   25.21    1.39 
  -3  -2 -15    0.17    0.26 
  -2  -2 -15   11.58    1.31 
  -1  -2 -15    0.17    0.17 
   0  -2 -15    0.00    0.12 
   1  -2 -15    3.80    0.59 
   2  -2 -15    3.93    0.59 
   3  -2 -15   15.95    0.66 
   4  -2 -15  113.14    1.99 
   5  -2 -15    0.80    0.47 
   6  -2 -15   -0.19    0.49 
   7  -2 -15   35.04    1.30 
   8  -2 -15    2.11    0.65 
   9  -2 -15    0.67    0.79 
 -12  -1 -15    0.84    0.69 
 -11  -1 -15    0.08    0.61 
 -10  -1 -15    0.71    0.66 
  -9  -1 -15    6.81    0.87 
  -8  -1 -15    2.79    0.48 
  -7  -1 -15    1.80    0.48 
  -6  -1 -15    0.62    0.40 
  -5  -1 -15   13.81    0.61 
  -4  -1 -15    0.16    0.28 
  -3  -1 -15    4.42    0.30 
  -2  -1 -15    5.99    0.59 
  -1  -1 -15    0.27    0.08 
   0  -1 -15    3.98    0.78 
   1  -1 -15    1.28    0.24 
   2  -1 -15   10.97    0.49 
   3  -1 -15    8.39    0.53 
   4  -1 -15    9.45    1.53 
   5  -1 -15   19.20    0.83 
   6  -1 -15   29.37    1.01 
   7  -1 -15    4.48    0.62 
   8  -1 -15    7.89    1.03 
   9  -1 -15    3.01    0.93 
  10  -1 -15   -0.50    0.74 
  11  -1 -15    0.26    0.83 
  12  -1 -15    0.62    0.93 
  -9   0 -15    1.24    0.55 
  -8   0 -15    0.16    0.49 
  -7   0 -15    3.05    0.57 
  -6   0 -15    0.10    0.49 
  -5   0 -15   18.13    0.91 
  -4   0 -15    0.12    0.48 
  -3   0 -15   80.56    1.62 
  -2   0 -15   -0.03    0.37 
  -1   0 -15   15.97    0.75 
   0   0 -15    0.26    0.33 
   1   0 -15    0.10    0.19 
   2   0 -15    0.22    0.25 
   3   0 -15    8.03    0.47 
   4   0 -15   -0.02    0.38 
   5   0 -15   31.48    0.90 
   6   0 -15    0.61    0.55 
   7   0 -15    2.27    1.07 
   8   0 -15    0.07    0.84 
   9   0 -15    0.31    0.82 
  10   0 -15   -0.31    0.83 
  11   0 -15    0.68    0.84 
  12   0 -15    0.93    0.97 
  13   0 -15    0.51    1.12 
 -10   1 -15    0.43    0.47 
  -9   1 -15    5.45    0.65 
  -8   1 -15    2.40    0.54 
  -7   1 -15    1.70    0.53 
  -6   1 -15    0.06    0.46 
  -5   1 -15   12.71    0.75 
  -4   1 -15    0.43    0.40 
  -3   1 -15    6.04    0.59 
  -2   1 -15    7.92    0.52 
  -1   1 -15    1.00    0.36 
   0   1 -15   13.48    0.65 
   1   1 -15    1.21    0.35 
   2   1 -15    8.76    0.42 
   3   1 -15    6.51    0.43 
   4   1 -15   11.67    0.54 
   5   1 -15   17.98    0.73 
   6   1 -15   30.59    1.56 
   7   1 -15    4.76    1.13 
   8   1 -15    9.20    1.32 
   9   1 -15    3.62    1.09 
  10   1 -15   -0.43    0.89 
  11   1 -15    0.39    0.93 
  12   1 -15    0.52    1.02 
  13   1 -15    1.61    1.30 
 -10   2 -15    1.99    0.58 
  -9   2 -15    0.88    0.52 
  -8   2 -15   -0.09    0.49 
  -7   2 -15    3.12    0.61 
  -6   2 -15    8.63    0.75 
  -5   2 -15   16.23    0.88 
  -4   2 -15   26.42    1.06 
  -3   2 -15    0.81    0.35 
  -2   2 -15   18.63    0.83 
  -1   2 -15    0.09    0.29 
   0   2 -15   -0.18    0.31 
   1   2 -15    2.34    0.35 
   2   2 -15    3.50    0.33 
   3   2 -15   12.68    0.55 
   4   2 -15   98.67    1.43 
   5   2 -15    0.58    0.37 
   6   2 -15    0.99    1.22 
   7   2 -15   37.54    1.97 
   8   2 -15    2.22    1.14 
   9   2 -15    0.65    1.18 
  10   2 -15    0.20    1.08 
  11   2 -15    0.33    1.05 
  12   2 -15    0.78    1.21 
 -10   3 -15    8.83    0.87 
  -9   3 -15    1.62    0.65 
  -8   3 -15    3.92    0.73 
  -7   3 -15    7.94    0.82 
  -6   3 -15   16.01    0.99 
  -5   3 -15   16.76    1.06 
  -4   3 -15    0.26    0.55 
  -3   3 -15    3.31    0.59 
  -2   3 -15   46.84    1.36 
  -1   3 -15    6.57    0.53 
   0   3 -15    6.15    0.54 
   1   3 -15    2.61    0.38 
   2   3 -15   11.44    0.52 
   3   3 -15    3.12    0.38 
   4   3 -15   46.39    2.18 
   5   3 -15   17.76    1.28 
   6   3 -15   22.38    1.53 
   7   3 -15    2.26    1.24 
   8   3 -15    0.17    0.89 
   9   3 -15    0.65    1.17 
  10   3 -15    0.52    1.31 
  11   3 -15    1.10    1.29 
  12   3 -15    5.90    1.65 
 -12   4 -15    3.48    0.82 
 -11   4 -15    0.34    0.64 
 -10   4 -15    0.97    0.64 
  -9   4 -15    4.47    0.71 
  -8   4 -15    0.23    0.54 
  -7   4 -15    0.99    0.55 
  -6   4 -15   32.03    1.39 
  -5   4 -15    2.76    0.56 
  -4   4 -15    1.12    0.50 
  -3   4 -15    1.51    0.59 
  -2   4 -15   19.92    1.13 
  -1   4 -15    1.49    0.51 
   0   4 -15    6.27    0.59 
   1   4 -15   10.32    0.69 
   2   4 -15   11.49    0.63 
   3   4 -15    6.83    0.42 
   4   4 -15    0.27    0.76 
   5   4 -15    6.22    0.95 
   6   4 -15    0.72    0.70 
   7   4 -15   12.32    1.48 
   8   4 -15    3.65    1.37 
   9   4 -15    0.65    1.24 
  10   4 -15    0.05    1.15 
  11   4 -15    0.97    1.43 
 -11   5 -15    0.30    0.59 
 -10   5 -15    0.66    0.58 
  -9   5 -15   10.10    0.94 
  -8   5 -15    1.87    0.62 
  -7   5 -15   10.64    0.92 
  -6   5 -15    0.78    0.46 
  -5   5 -15    0.17    0.49 
  -4   5 -15    0.39    0.51 
  -3   5 -15   11.11    0.92 
  -2   5 -15    6.09    0.71 
  -1   5 -15    0.14    0.45 
   0   5 -15    8.21    0.78 
   1   5 -15    0.09    0.43 
   2   5 -15    8.40    0.63 
   3   5 -15    2.31    0.65 
   4   5 -15    2.66    0.77 
   5   5 -15    1.60    0.76 
   6   5 -15    0.45    0.69 
   7   5 -15    1.61    0.77 
   8   5 -15    0.95    1.04 
   9   5 -15    6.53    1.36 
  10   5 -15    0.90    1.26 
  -9   6 -15    0.20    0.57 
  -8   6 -15    0.33    0.54 
  -7   6 -15    2.14    0.63 
  -6   6 -15    0.45    0.48 
  -5   6 -15    3.51    0.60 
  -4   6 -15    2.74    0.62 
  -3   6 -15    3.99    0.67 
  -2   6 -15    2.22    0.55 
  -1   6 -15    0.82    0.52 
   0   6 -15    6.46    0.74 
   1   6 -15    1.39    0.55 
   2   6 -15    6.72    0.65 
   3   6 -15    4.23    0.64 
   4   6 -15    0.35    0.58 
   5   6 -15    0.10    0.70 
   6   6 -15   -0.11    0.55 
   7   6 -15    2.95    1.03 
   8   6 -15   -0.28    1.04 
   9   6 -15    0.58    1.15 
  -8   7 -15    0.81    0.59 
  -7   7 -15    0.84    0.56 
  -6   7 -15    0.28    0.43 
  -5   7 -15    0.68    0.37 
  -4   7 -15    0.50    0.45 
  -3   7 -15   -0.09    0.44 
  -2   7 -15    3.28    0.60 
  -1   7 -15    2.13    0.56 
   0   7 -15    0.48    0.46 
   1   7 -15   14.23    0.89 
   3   7 -15    2.87    0.58 
   4   7 -15   -0.13    0.54 
   5   7 -15    1.15    0.80 
   6   7 -15    0.00    0.77 
   7   7 -15    1.93    1.02 
   8   7 -15   -0.18    1.18 
  -6   8 -15    0.24    0.51 
  -5   8 -15   -0.02    0.48 
  -4   8 -15    0.43    0.49 
  -3   8 -15    0.20    0.45 
  -2   8 -15   -0.10    0.40 
  -1   8 -15   -0.14    0.40 
   0   8 -15    0.65    0.47 
   2   8 -15    0.47    0.34 
   3   8 -15    0.56    0.42 
   4   8 -15    1.76    0.65 
   5   8 -15   -0.21    0.69 
   6   8 -15    0.34    0.88 
  -3   9 -15    0.40    0.50 
  -2   9 -15    0.13    0.44 
  -1   9 -15    1.39    0.45 
   2   9 -15    0.30    0.25 
   3   9 -15    0.56    0.44 
  -3  -9 -14    0.01    0.84 
  -2  -9 -14    0.61    0.92 
  -1  -9 -14    1.02    0.87 
  -6  -8 -14    0.03    0.72 
  -5  -8 -14   -0.41    0.66 
  -4  -8 -14    0.24    0.71 
  -3  -8 -14    0.53    0.55 
  -2  -8 -14    0.60    0.63 
  -1  -8 -14    0.89    0.67 
   0  -8 -14   -0.23    0.67 
  -8  -7 -14    0.14    0.80 
  -7  -7 -14    0.58    0.65 
  -6  -7 -14    1.57    0.80 
  -5  -7 -14    0.03    0.66 
  -4  -7 -14    2.29    0.56 
  -3  -7 -14    1.08    0.54 
  -2  -7 -14    0.28    0.50 
  -1  -7 -14    3.98    0.68 
   0  -7 -14    0.77    0.46 
   1  -7 -14   18.63    1.68 
   2  -7 -14    8.07    1.27 
 -10  -6 -14    1.13    0.99 
  -9  -6 -14    0.82    0.88 
  -8  -6 -14    1.34    0.67 
  -7  -6 -14    1.68    0.75 
  -6  -6 -14   -0.20    0.59 
  -5  -6 -14    2.74    0.75 
  -4  -6 -14    1.32    0.52 
  -3  -6 -14   -0.05    0.44 
  -2  -6 -14    0.43    0.46 
  -1  -6 -14    0.66    0.51 
   0  -6 -14    7.44    0.68 
   1  -6 -14   10.65    1.25 
   2  -6 -14   21.02    1.58 
   3  -6 -14    1.37    0.98 
   4  -6 -14    1.62    0.73 
 -11  -5 -14   -0.43    0.71 
 -10  -5 -14   -0.36    0.65 
  -9  -5 -14    0.20    0.60 
  -8  -5 -14    5.78    0.98 
  -7  -5 -14    4.34    0.87 
  -6  -5 -14   12.11    0.99 
  -5  -5 -14    0.04    0.46 
  -4  -5 -14   11.00    0.89 
  -3  -5 -14    0.20    0.42 
  -2  -5 -14   18.68    0.85 
  -1  -5 -14   -0.14    0.43 
   0  -5 -14    5.14    0.53 
   1  -5 -14    1.35    0.71 
   2  -5 -14   14.36    1.35 
   3  -5 -14    5.35    0.84 
   4  -5 -14    0.51    0.57 
   5  -5 -14   -0.46    0.76 
   6  -5 -14   11.16    1.25 
 -12  -4 -14    0.83    0.89 
 -11  -4 -14    1.05    0.74 
 -10  -4 -14    0.50    0.69 
  -9  -4 -14    8.38    0.96 
  -8  -4 -14    2.42    0.69 
  -7  -4 -14    3.09    0.72 
  -6  -4 -14    0.34    0.50 
  -5  -4 -14    4.17    0.49 
  -4  -4 -14    1.34    0.42 
  -3  -4 -14    4.65    0.49 
  -2  -4 -14    5.67    0.48 
  -1  -4 -14    0.10    0.35 
   0  -4 -14    8.46    0.56 
   1  -4 -14   59.43    1.90 
   2  -4 -14   17.24    1.14 
   3  -4 -14   76.67    2.22 
   4  -4 -14   22.06    1.51 
   5  -4 -14   -0.34    0.67 
   6  -4 -14    0.50    0.77 
   7  -4 -14    3.23    0.96 
 -12  -3 -14    1.51    0.81 
 -11  -3 -14    4.21    0.86 
 -10  -3 -14    0.45    0.62 
  -9  -3 -14    2.20    0.71 
  -8  -3 -14    5.71    0.91 
  -7  -3 -14   28.77    1.79 
  -6  -3 -14    3.76    0.49 
  -5  -3 -14    4.72    0.52 
  -4  -3 -14    0.94    0.35 
  -3  -3 -14   -0.21    0.30 
  -2  -3 -14    0.04    0.28 
  -1  -3 -14    9.02    0.86 
   0  -3 -14   10.96    0.58 
   1  -3 -14    9.13    0.75 
   2  -3 -14    1.81    0.48 
   3  -3 -14   10.22    0.94 
   4  -3 -14    1.34    0.65 
   5  -3 -14   27.42    1.54 
   6  -3 -14    0.97    0.75 
   7  -3 -14    1.00    0.82 
   8  -3 -14    1.03    0.87 
 -13  -2 -14    2.72    0.84 
 -12  -2 -14    0.39    0.65 
 -11  -2 -14    1.68    0.68 
 -10  -2 -14    0.80    0.63 
  -9  -2 -14   -0.54    0.61 
  -8  -2 -14   16.57    0.79 
  -7  -2 -14    1.64    0.48 
  -6  -2 -14   -0.01    0.41 
  -5  -2 -14    9.92    0.53 
  -4  -2 -14    7.84    0.51 
  -3  -2 -14   55.79    3.64 
  -2  -2 -14    0.26    0.23 
  -1  -2 -14    0.01    0.17 
   0  -2 -14    6.24    0.91 
   1  -2 -14   32.54    1.18 
   2  -2 -14    0.28    0.35 
   3  -2 -14    1.51    0.39 
   4  -2 -14   20.10    0.96 
   5  -2 -14    4.14    0.51 
   6  -2 -14   23.41    0.92 
   7  -2 -14    6.82    0.69 
   8  -2 -14   45.09    2.57 
   9  -2 -14   -0.46    0.71 
 -13  -1 -14    1.09    0.76 
 -12  -1 -14   -0.24    0.62 
 -11  -1 -14    1.43    0.71 
 -10  -1 -14    0.11    0.54 
  -9  -1 -14    1.87    0.64 
  -8  -1 -14    4.87    0.55 
  -7  -1 -14    5.72    0.51 
  -6  -1 -14   13.82    0.63 
  -5  -1 -14   47.53    0.97 
  -4  -1 -14   30.71    1.25 
  -3  -1 -14    0.17    0.24 
  -2  -1 -14    2.51    0.24 
  -1  -1 -14    4.39    0.65 
   0  -1 -14    0.21    0.07 
   1  -1 -14   82.16    1.03 
   2  -1 -14   20.64    0.60 
   3  -1 -14   34.70    0.81 
   4  -1 -14   13.17    0.73 
   5  -1 -14   -0.28    0.43 
   6  -1 -14    5.65    0.60 
   7  -1 -14    0.80    0.57 
   8  -1 -14   -0.06    0.79 
   9  -1 -14    0.20    0.73 
  10  -1 -14   -0.28    0.76 
  11  -1 -14    0.33    0.77 
 -12   0 -14    0.62    0.67 
 -11   0 -14   -0.26    0.56 
 -10   0 -14   13.92    1.15 
  -9   0 -14   -0.06    0.39 
  -8   0 -14   16.29    0.69 
  -7   0 -14   -0.37    0.35 
  -6   0 -14   51.45    1.00 
  -5   0 -14    0.48    0.30 
  -4   0 -14   77.24    1.04 
  -3   0 -14   -0.07    0.20 
  -2   0 -14    1.15    0.13 
  -1   0 -14   -0.01    0.03 
   0   0 -14   32.72    0.94 
   1   0 -14    0.38    0.20 
   2   0 -14    3.36    0.32 
   3   0 -14    0.01    0.27 
   4   0 -14   43.42    0.95 
   5   0 -14   -0.13    0.40 
   6   0 -14    0.22    0.49 
   7   0 -14    0.18    0.95 
   8   0 -14    4.21    0.98 
   9   0 -14   -0.31    0.79 
  10   0 -14    0.61    0.84 
  11   0 -14    0.02    0.78 
  12   0 -14    1.63    0.98 
  13   0 -14   -0.08    0.97 
 -10   1 -14    0.04    0.51 
  -9   1 -14    1.72    0.55 
  -8   1 -14    3.92    0.59 
  -7   1 -14    3.86    0.59 
  -6   1 -14   12.81    0.78 
  -5   1 -14   46.90    1.30 
  -4   1 -14   31.89    1.02 
  -3   1 -14    0.19    0.33 
  -2   1 -14    2.99    0.42 
  -1   1 -14    8.74    0.53 
   0   1 -14    0.20    0.31 
   1   1 -14   76.86    1.40 
   2   1 -14   18.30    0.89 
   3   1 -14   30.71    0.74 
   4   1 -14   14.24    0.59 
   5   1 -14   -0.46    0.46 
   6   1 -14    5.41    0.97 
   7   1 -14    1.87    1.00 
   8   1 -14   -0.76    1.04 
   9   1 -14    0.86    0.96 
  10   1 -14   -0.20    0.86 
  11   1 -14   -0.72    0.86 
  12   1 -14   -0.08    0.89 
  13   1 -14    1.19    1.21 
 -10   2 -14    0.81    0.53 
  -9   2 -14   -0.18    0.48 
  -8   2 -14   12.36    0.84 
  -7   2 -14    1.18    0.53 
  -6   2 -14    0.04    0.48 
  -5   2 -14    9.51    0.73 
  -4   2 -14    7.57    0.67 
  -3   2 -14   62.60    1.47 
  -2   2 -14    0.19    0.35 
  -1   2 -14   -0.11    0.31 
   0   2 -14    8.04    0.48 
   1   2 -14   29.64    0.89 
   2   2 -14    0.37    0.25 
   3   2 -14    1.08    0.29 
   4   2 -14   17.27    0.63 
   5   2 -14    4.38    0.45 
   6   2 -14   26.43    1.69 
   7   2 -14    7.64    1.27 
   8   2 -14   44.37    2.10 
   9   2 -14    1.46    1.18 
  10   2 -14    0.84    1.04 
  11   2 -14    0.83    1.05 
  12   2 -14    0.93    1.15 
 -11   3 -14    3.45    0.72 
 -10   3 -14    0.27    0.58 
  -9   3 -14    1.76    0.64 
  -8   3 -14    5.82    0.81 
  -7   3 -14   26.88    1.33 
  -6   3 -14    3.01    0.62 
  -5   3 -14    4.82    0.77 
  -4   3 -14    1.39    0.62 
  -3   3 -14    0.27    0.47 
  -2   3 -14    0.23    0.43 
  -1   3 -14    9.78    0.65 
   0   3 -14   12.27    0.67 
   1   3 -14    7.59    0.51 
   2   3 -14    1.79    0.33 
   3   3 -14    7.47    0.41 
   4   3 -14    1.15    0.36 
   5   3 -14   24.46    1.43 
   6   3 -14    1.08    0.74 
   7   3 -14    1.83    1.25 
   8   3 -14    1.10    1.10 
   9   3 -14    0.62    1.13 
  10   3 -14    1.88    1.32 
  11   3 -14    0.69    1.16 
  12   3 -14    0.74    1.36 
 -11   4 -14    0.87    0.56 
 -10   4 -14   -0.15    0.47 
  -9   4 -14    7.26    0.77 
  -8   4 -14    2.65    0.64 
  -7   4 -14    2.79    0.62 
  -6   4 -14    0.81    0.59 
  -5   4 -14    3.74    0.69 
  -4   4 -14    1.77    0.58 
  -3   4 -14    4.29    0.58 
  -2   4 -14    6.67    0.69 
  -1   4 -14    0.43    0.50 
   0   4 -14    9.33    0.71 
   1   4 -14   46.41    1.22 
   2   4 -14   14.80    0.71 
   3   4 -14   59.00    1.71 
   4   4 -14   19.53    1.36 
   5   4 -14    0.05    0.75 
   6   4 -14    0.59    0.89 
   7   4 -14    3.14    1.12 
   8   4 -14    3.49    1.18 
   9   4 -14    9.64    1.51 
  10   4 -14    1.62    1.19 
  11   4 -14    8.01    1.66 
 -11   5 -14   -0.22    0.57 
 -10   5 -14    0.23    0.52 
  -9   5 -14   -0.12    0.48 
  -8   5 -14    4.12    0.70 
  -7   5 -14    4.03    0.69 
  -6   5 -14   10.88    0.87 
  -5   5 -14    0.22    0.42 
  -4   5 -14    9.11    0.87 
  -3   5 -14    0.67    0.53 
  -2   5 -14   18.92    1.06 
  -1   5 -14    0.00    0.45 
   0   5 -14    5.62    0.63 
   1   5 -14    0.70    0.46 
   2   5 -14   11.04    0.74 
   3   5 -14    4.23    0.40 
   4   5 -14    0.15    0.66 
   5   5 -14   -1.14    0.66 
   6   5 -14    9.54    1.09 
   7   5 -14    0.17    0.89 
   8   5 -14   -0.25    0.99 
   9   5 -14    0.26    0.95 
  10   5 -14    4.94    1.36 
  11   5 -14    0.30    1.45 
 -10   6 -14    0.63    0.57 
  -9   6 -14    0.22    0.45 
  -8   6 -14    0.29    0.49 
  -7   6 -14    0.70    0.53 
  -6   6 -14    0.20    0.38 
  -5   6 -14    3.04    0.61 
  -4   6 -14    0.76    0.50 
  -3   6 -14    0.34    0.44 
  -2   6 -14   -0.06    0.42 
  -1   6 -14    0.64    0.47 
   0   6 -14    7.29    0.75 
   1   6 -14    8.34    0.78 
   2   6 -14   18.47    1.00 
   3   6 -14    0.73    0.53 
   5   6 -14    1.76    0.85 
   6   6 -14    0.32    0.76 
   7   6 -14    1.54    0.99 
   8   6 -14    4.86    1.25 
   9   6 -14    0.95    1.14 
  10   6 -14   -0.24    1.33 
  -8   7 -14    0.62    0.53 
  -7   7 -14    0.29    0.49 
  -6   7 -14    1.42    0.54 
  -5   7 -14    0.31    0.45 
  -4   7 -14    2.04    0.56 
  -3   7 -14    0.32    0.47 
  -2   7 -14    0.35    0.50 
  -1   7 -14    2.44    0.54 
   0   7 -14    0.68    0.47 
   1   7 -14   10.32    0.78 
   3   7 -14    1.78    0.50 
   4   7 -14    1.39    0.62 
   5   7 -14   -0.07    0.77 
   6   7 -14    0.21    0.84 
   7   7 -14    0.81    0.98 
   8   7 -14   -0.86    1.13 
   9   7 -14    0.30    1.23 
  -6   8 -14   -0.08    0.44 
  -5   8 -14   -0.20    0.43 
  -4   8 -14    0.58    0.44 
  -3   8 -14    0.24    0.44 
  -2   8 -14    0.05    0.44 
  -1   8 -14    0.96    0.48 
   0   8 -14    0.41    0.38 
   3   8 -14    1.46    0.51 
   4   8 -14   -0.19    0.54 
   5   8 -14   -0.43    0.67 
   6   8 -14   -0.17    0.84 
   7   8 -14    1.25    1.06 
  -4   9 -14    0.04    0.47 
  -3   9 -14   -0.05    0.42 
  -2   9 -14    0.49    0.42 
  -1   9 -14    0.55    0.44 
   2   9 -14    0.04    0.27 
   3   9 -14    0.69    0.50 
   4   9 -14    0.14    0.60 
  -4  -9 -13   -0.18    0.80 
  -3  -9 -13   -0.43    0.77 
  -2  -9 -13    0.29    0.75 
  -1  -9 -13    1.87    0.86 
  -7  -8 -13   -0.59    0.77 
  -6  -8 -13   -0.01    0.78 
  -5  -8 -13    0.57    0.67 
  -4  -8 -13   -0.09    0.73 
  -3  -8 -13    0.07    0.66 
  -2  -8 -13    7.74    1.06 
  -1  -8 -13    1.95    0.69 
   0  -8 -13    2.06    0.85 
  -9  -7 -13    1.21    0.85 
  -8  -7 -13    1.70    0.82 
  -7  -7 -13    1.11    0.72 
  -6  -7 -13    1.69    0.79 
  -5  -7 -13    6.71    0.94 
  -4  -7 -13    6.85    0.70 
  -3  -7 -13    0.73    0.58 
  -2  -7 -13    0.68    0.56 
  -1  -7 -13    3.17    0.66 
   0  -7 -13   14.49    0.93 
   1  -7 -13    1.20    0.82 
 -10  -6 -13   -0.11    0.92 
  -9  -6 -13    0.11    0.79 
  -8  -6 -13    1.08    0.77 
  -7  -6 -13    2.31    0.70 
  -6  -6 -13    4.52    0.81 
  -5  -6 -13    0.56    0.61 
  -4  -6 -13   11.72    0.87 
  -3  -6 -13    0.70    0.48 
  -2  -6 -13    0.44    0.50 
  -1  -6 -13    0.63    0.51 
   0  -6 -13    1.81    0.54 
   1  -6 -13    9.41    1.08 
   2  -6 -13    4.39    1.01 
   3  -6 -13   27.15    1.82 
 -11  -5 -13    0.94    0.79 
 -10  -5 -13    0.27    0.62 
  -9  -5 -13    2.17    0.71 
  -8  -5 -13    0.05    0.65 
  -7  -5 -13    3.10    0.82 
  -6  -5 -13    1.35    0.63 
  -5  -5 -13    5.99    0.58 
  -4  -5 -13   21.76    1.46 
  -3  -5 -13    1.99    0.51 
  -2  -5 -13    0.02    0.42 
  -1  -5 -13   15.21    0.78 
   0  -5 -13    2.03    0.50 
   1  -5 -13    0.01    0.41 
   2  -5 -13    3.60    0.92 
   3  -5 -13    7.83    1.05 
   4  -5 -13    5.08    0.95 
   5  -5 -13    2.19    0.78 
 -12  -4 -13    1.82    0.85 
 -11  -4 -13    1.16    0.76 
 -10  -4 -13    2.90    0.78 
  -9  -4 -13    0.63    0.64 
  -8  -4 -13    0.45    0.58 
  -7  -4 -13    2.95    0.66 
  -6  -4 -13    6.83    0.63 
  -5  -4 -13    9.69    0.70 
  -4  -4 -13    0.30    0.40 
  -3  -4 -13   24.28    0.85 
  -2  -4 -13    6.33    0.50 
  -1  -4 -13    3.98    0.44 
   0  -4 -13    2.89    0.46 
   1  -4 -13    5.96    0.57 
   2  -4 -13    0.76    0.60 
   3  -4 -13    5.12    0.89 
   4  -4 -13    9.15    1.04 
   5  -4 -13    3.08    0.86 
   6  -4 -13    4.41    0.95 
 -13  -3 -13    0.38    0.93 
 -12  -3 -13    0.36    0.74 
 -11  -3 -13    4.09    0.89 
 -10  -3 -13    0.37    0.59 
  -9  -3 -13    2.02    0.71 
  -8  -3 -13    5.47    0.80 
  -7  -3 -13   38.12    1.56 
  -6  -3 -13    5.42    0.51 
  -5  -3 -13    3.37    0.48 
  -4  -3 -13   37.75    1.91 
  -3  -3 -13    5.61    0.44 
  -2  -3 -13    0.92    0.32 
  -1  -3 -13    8.71    0.46 
   0  -3 -13   22.91    1.17 
   1  -3 -13    3.51    0.62 
   2  -3 -13    4.44    0.59 
   3  -3 -13    0.42    0.54 
   4  -3 -13    0.41    0.40 
   5  -3 -13    4.93    0.90 
   6  -3 -13   78.04    2.46 
   7  -3 -13    1.29    0.84 
 -13  -2 -13    0.61    0.76 
 -12  -2 -13    1.54    0.71 
 -11  -2 -13    0.79    0.63 
 -10  -2 -13    3.24    0.71 
  -9  -2 -13    7.88    0.88 
  -8  -2 -13    0.25    0.63 
  -7  -2 -13   40.87    1.08 
  -6  -2 -13    3.94    0.47 
  -5  -2 -13    9.50    0.54 
  -4  -2 -13    1.60    0.38 
  -3  -2 -13   57.40    3.92 
  -2  -2 -13   63.88    2.87 
  -1  -2 -13   13.71    0.85 
   0  -2 -13    1.60    0.18 
   1  -2 -13    6.41    0.38 
   2  -2 -13   79.76    2.98 
   3  -2 -13    0.27    0.34 
   4  -2 -13   36.33    0.93 
   5  -2 -13    0.54    0.31 
   6  -2 -13   16.39    0.82 
   7  -2 -13   64.48    2.65 
   8  -2 -13    8.12    0.78 
   9  -2 -13    9.64    1.11 
 -13  -1 -13   -0.06    0.63 
 -12  -1 -13    2.93    0.74 
 -11  -1 -13    1.31    0.62 
 -10  -1 -13    5.29    0.79 
  -9  -1 -13    1.04    0.61 
  -8  -1 -13   15.64    0.73 
  -7  -1 -13   28.35    0.84 
  -6  -1 -13    7.68    0.52 
  -5  -1 -13   12.21    0.54 
  -4  -1 -13    2.86    0.35 
  -3  -1 -13    3.20    0.29 
  -2  -1 -13    1.95    0.21 
  -1  -1 -13    0.11    0.15 
   0  -1 -13    0.03    0.08 
   1  -1 -13   12.30    0.43 
   2  -1 -13    6.74    0.41 
   3  -1 -13   29.85    0.73 
   4  -1 -13    0.33    0.37 
   5  -1 -13    3.03    0.49 
   6  -1 -13    4.49    0.53 
   7  -1 -13   13.04    0.96 
   8  -1 -13    8.73    1.06 
   9  -1 -13    2.66    0.83 
  10  -1 -13    1.90    0.85 
  11  -1 -13   -0.50    0.71 
 -14   0 -13   -0.26    0.66 
 -13   0 -13    0.95    0.62 
 -12   0 -13   -0.56    0.53 
 -11   0 -13    3.43    0.68 
 -10   0 -13    0.00    0.55 
  -9   0 -13    6.19    0.52 
  -8   0 -13    0.06    0.39 
  -7   0 -13    0.17    0.38 
  -6   0 -13    0.63    0.36 
  -5   0 -13  103.16    1.30 
  -4   0 -13    0.28    0.24 
  -3   0 -13    1.81    0.22 
  -2   0 -13   -0.03    0.13 
  -1   0 -13    0.29    0.07 
   0   0 -13    0.37    0.31 
   1   0 -13  216.39    2.69 
   2   0 -13    0.13    0.38 
   3   0 -13    1.39    0.31 
   4   0 -13    0.05    0.36 
   5   0 -13   37.32    0.95 
   6   0 -13   -0.16    0.46 
   7   0 -13   68.89    2.11 
   8   0 -13   -0.67    0.76 
   9   0 -13    2.55    0.87 
  10   0 -13    0.39    0.79 
  11   0 -13    1.14    0.87 
  12   0 -13    0.69    0.91 
  13   0 -13    0.11    0.91 
 -11   1 -13    1.07    0.57 
 -10   1 -13    4.71    0.46 
  -9   1 -13    1.54    0.37 
  -8   1 -13   13.52    0.61 
  -7   1 -13   24.63    0.72 
  -6   1 -13    7.04    0.45 
  -5   1 -13   12.33    0.50 
  -4   1 -13    2.95    0.30 
  -3   1 -13    3.32    0.25 
  -2   1 -13    2.14    0.36 
  -1   1 -13    0.05    0.30 
   0   1 -13   -0.02    0.28 
   1   1 -13   11.86    0.59 
   2   1 -13    6.14    0.36 
   3   1 -13   30.28    0.78 
   4   1 -13    0.13    0.32 
   5   1 -13    2.84    0.49 
   6   1 -13    4.47    0.53 
   7   1 -13   11.92    1.31 
   8   1 -13   10.17    1.34 
   9   1 -13    2.73    0.98 
  10   1 -13    1.59    0.95 
  11   1 -13    0.17    0.91 
  12   1 -13    0.12    0.90 
  13   1 -13    0.64    1.17 
 -10   2 -13    2.34    0.59 
  -9   2 -13    6.70    0.75 
  -8   2 -13    0.49    0.55 
  -7   2 -13   39.62    1.41 
  -6   2 -13    3.39    0.66 
  -5   2 -13    9.65    0.76 
  -4   2 -13    1.79    0.51 
  -3   2 -13   61.21    1.42 
  -2   2 -13   68.27    1.46 
  -1   2 -13   15.70    0.71 
   0   2 -13    1.96    0.34 
   1   2 -13    5.74    0.44 
   2   2 -13   63.89    0.96 
   3   2 -13    0.20    0.25 
   4   2 -13   30.09    0.75 
   5   2 -13    0.39    0.39 
   6   2 -13   17.17    1.47 
   7   2 -13   64.16    2.31 
   8   2 -13    8.74    1.37 
   9   2 -13   13.09    1.57 
  10   2 -13    0.33    1.01 
  11   2 -13    0.96    1.00 
  12   2 -13    3.52    1.18 
  13   2 -13    0.29    1.26 
 -11   3 -13    2.87    0.66 
 -10   3 -13    0.20    0.58 
  -9   3 -13    1.86    0.59 
  -8   3 -13    4.69    0.67 
  -7   3 -13   35.01    1.31 
  -6   3 -13    4.59    0.69 
  -5   3 -13    2.79    0.57 
  -4   3 -13   38.12    1.31 
  -3   3 -13    6.77    0.65 
  -2   3 -13    0.42    0.48 
  -1   3 -13   10.28    0.72 
   0   3 -13   23.34    0.86 
   1   3 -13    2.82    0.37 
   2   3 -13    4.92    0.41 
   3   3 -13    0.56    0.29 
   4   3 -13    0.24    0.31 
   5   3 -13    3.98    0.71 
   6   3 -13   76.26    2.49 
   7   3 -13    2.76    1.34 
   8   3 -13    1.18    1.15 
   9   3 -13    0.43    1.09 
  10   3 -13    6.81    1.49 
  11   3 -13    0.72    1.08 
  12   3 -13    2.55    1.25 
 -11   4 -13    0.23    0.55 
 -10   4 -13    1.74    0.58 
  -9   4 -13    0.28    0.50 
  -8   4 -13    0.91    0.53 
  -7   4 -13    3.04    0.64 
  -6   4 -13    6.51    0.79 
  -5   4 -13    8.50    0.86 
  -4   4 -13    0.13    0.38 
  -3   4 -13   23.54    1.13 
  -2   4 -13    7.86    0.74 
  -1   4 -13    5.07    0.62 
   0   4 -13    3.31    0.54 
   1   4 -13    6.54    0.57 
   2   4 -13    1.61    0.35 
   3   4 -13    3.41    0.35 
   4   4 -13    9.10    1.10 
   5   4 -13    2.78    0.85 
   6   4 -13    5.25    1.01 
   7   4 -13    0.94    0.97 
   8   4 -13    0.74    1.04 
   9   4 -13    0.60    1.08 
  10   4 -13    1.95    1.19 
  11   4 -13   -0.18    1.24 
  12   4 -13    1.40    1.26 
 -12   5 -13   -0.45    0.65 
 -11   5 -13    0.80    0.56 
 -10   5 -13    0.27    0.54 
  -9   5 -13    1.60    0.54 
  -8   5 -13    0.40    0.48 
  -7   5 -13    2.26    0.60 
  -6   5 -13    2.10    0.61 
  -5   5 -13    6.06    0.78 
  -4   5 -13   17.77    1.04 
  -3   5 -13    1.94    0.52 
  -2   5 -13    0.19    0.44 
  -1   5 -13   16.50    0.96 
   0   5 -13    1.77    0.47 
   1   5 -13    0.33    0.38 
   2   5 -13    2.32    0.52 
   3   5 -13    5.34    0.41 
   4   5 -13    5.55    0.81 
   5   5 -13    1.20    0.79 
   6   5 -13    0.94    0.79 
   7   5 -13    8.88    1.23 
   8   5 -13    0.46    0.97 
   9   5 -13    1.15    1.05 
  10   5 -13   -0.42    0.98 
  11   5 -13    1.59    1.51 
 -10   6 -13   -0.02    0.49 
  -9   6 -13    0.59    0.54 
  -8   6 -13    1.49    0.55 
  -7   6 -13    2.71    0.61 
  -6   6 -13    3.20    0.61 
  -5   6 -13    0.57    0.49 
  -3   6 -13    0.46    0.48 
  -2   6 -13   -0.27    0.44 
  -1   6 -13    0.04    0.45 
   0   6 -13    1.75    0.50 
   1   6 -13    7.18    0.71 
   2   6 -13    3.65    0.57 
   3   6 -13   19.36    1.12 
   4   6 -13    0.02    0.48 
   5   6 -13    2.15    0.86 
   6   6 -13    1.13    0.84 
   7   6 -13   -0.56    0.85 
   8   6 -13   -0.06    1.05 
   9   6 -13    2.76    1.18 
  10   6 -13    1.18    1.34 
  -9   7 -13    0.50    0.50 
  -8   7 -13    0.91    0.54 
  -7   7 -13    1.01    0.52 
  -6   7 -13    0.97    0.50 
  -5   7 -13    6.13    0.70 
  -4   7 -13    4.90    0.67 
  -3   7 -13    0.20    0.43 
  -2   7 -13    0.38    0.47 
  -1   7 -13    2.08    0.54 
   0   7 -13   10.23    0.83 
   1   7 -13    0.63    0.48 
   3   7 -13    3.35    0.63 
   4   7 -13    0.07    0.54 
   5   7 -13    1.51    0.89 
   6   7 -13    0.18    0.85 
   7   7 -13    1.79    1.06 
   9   7 -13    1.89    1.32 
  -7   8 -13    0.18    0.43 
  -6   8 -13    0.07    0.35 
  -5   8 -13    0.23    0.43 
  -4   8 -13   -0.14    0.39 
  -3   8 -13   -0.17    0.41 
  -2   8 -13    6.46    0.72 
  -1   8 -13    1.57    0.50 
   0   8 -13    2.12    0.51 
   3   8 -13   -0.11    0.41 
   4   8 -13   -0.13    0.54 
   5   8 -13    0.32    0.73 
   6   8 -13    0.26    0.83 
   7   8 -13    0.61    1.07 
   8   8 -13    0.57    1.35 
  -4   9 -13   -0.16    0.39 
  -3   9 -13   -0.16    0.37 
  -2   9 -13    0.49    0.41 
  -1   9 -13    1.62    0.45 
   2   9 -13    0.08    0.28 
   3   9 -13    0.54    0.50 
   4   9 -13   -0.27    0.58 
   5   9 -13   -0.09    0.75 
  -4  -9 -12   -0.49    0.73 
  -3  -9 -12    0.08    0.79 
  -2  -9 -12    0.11    0.78 
  -1  -9 -12    0.57    0.86 
   0  -9 -12    1.41    0.84 
  -7  -8 -12   -0.49    0.84 
  -6  -8 -12    1.61    0.81 
  -5  -8 -12   -0.08    0.59 
  -4  -8 -12    0.32    0.74 
  -3  -8 -12   -0.41    0.63 
  -2  -8 -12    0.56    0.60 
  -1  -8 -12    1.14    0.85 
   0  -8 -12   -0.26    0.71 
  -9  -7 -12    0.15    0.77 
  -8  -7 -12   -0.43    0.61 
  -7  -7 -12    1.89    0.71 
  -6  -7 -12    2.62    0.72 
  -5  -7 -12    0.11    0.58 
  -4  -7 -12    0.34    0.55 
  -3  -7 -12    2.75    0.61 
  -2  -7 -12    3.55    0.61 
  -1  -7 -12    1.95    0.97 
   0  -7 -12    0.82    0.52 
 -10  -6 -12   -0.32    0.78 
  -9  -6 -12   -0.99    0.76 
  -8  -6 -12    2.00    0.81 
  -7  -6 -12    1.21    0.62 
  -6  -6 -12    2.03    0.71 
  -5  -6 -12   13.73    1.07 
  -4  -6 -12    4.38    0.66 
  -3  -6 -12   -0.25    0.41 
  -2  -6 -12   10.80    0.75 
  -1  -6 -12   17.02    0.93 
   0  -6 -12   10.80    0.85 
   1  -6 -12   13.10    0.78 
   2  -6 -12    9.60    1.29 
   3  -6 -12    8.82    1.16 
 -11  -5 -12   -0.48    0.72 
 -10  -5 -12    4.75    0.88 
  -9  -5 -12    2.53    0.72 
  -8  -5 -12    5.62    0.79 
  -7  -5 -12    0.59    0.66 
  -6  -5 -12    4.10    0.84 
  -5  -5 -12    3.08    0.54 
  -4  -5 -12    4.15    0.55 
  -3  -5 -12   31.04    1.03 
  -2  -5 -12    0.54    0.38 
  -1  -5 -12   -0.01    0.40 
   0  -5 -12    6.54    0.64 
   1  -5 -12   -0.32    0.44 
   2  -5 -12    0.80    0.74 
   3  -5 -12    1.24    0.73 
   4  -5 -12    5.76    1.05 
   5  -5 -12    1.50    0.80 
 -12  -4 -12    2.24    0.89 
 -11  -4 -12   -0.02    0.62 
 -10  -4 -12    1.09    0.66 
  -9  -4 -12   16.75    1.25 
  -8  -4 -12   24.76    1.38 
  -7  -4 -12   14.54    1.02 
  -6  -4 -12   43.27    1.57 
  -5  -4 -12   36.82    1.13 
  -4  -4 -12    0.11    0.37 
  -3  -4 -12    3.39    0.45 
  -2  -4 -12    7.04    0.54 
  -1  -4 -12   89.91    1.41 
   0  -4 -12   -0.29    0.38 
   1  -4 -12    9.47    0.59 
   2  -4 -12   34.65    1.43 
   3  -4 -12    0.78    0.55 
   4  -4 -12    0.06    0.62 
   5  -4 -12   76.39    2.46 
   6  -4 -12   -0.03    0.59 
 -13  -3 -12    3.90    0.98 
 -12  -3 -12    0.28    0.69 
 -11  -3 -12    2.99    0.83 
 -10  -3 -12    0.53    0.71 
  -9  -3 -12    3.92    0.78 
  -8  -3 -12    5.60    0.81 
  -7  -3 -12   39.15    1.60 
  -6  -3 -12    1.98    0.43 
  -5  -3 -12    1.72    0.39 
  -4  -3 -12    1.68    0.41 
  -3  -3 -12    8.42    0.51 
  -2  -3 -12    5.29    0.45 
  -1  -3 -12   27.23    1.25 
   0  -3 -12   13.24    0.54 
   1  -3 -12    1.20    0.28 
   2  -3 -12   -0.09    0.51 
   3  -3 -12   17.35    1.05 
   4  -3 -12   18.14    1.09 
   5  -3 -12    2.16    0.73 
   6  -3 -12    0.89    0.77 
   7  -3 -12   19.66    1.29 
 -13  -2 -12   -0.45    0.64 
 -12  -2 -12   -0.06    0.59 
 -11  -2 -12    2.52    0.71 
 -10  -2 -12    0.01    0.57 
  -9  -2 -12    1.26    0.60 
  -8  -2 -12   33.51    1.41 
  -7  -2 -12   12.98    1.27 
  -6  -2 -12   39.43    2.61 
  -5  -2 -12   50.88    1.70 
  -4  -2 -12    4.42    0.38 
  -3  -2 -12    7.95    0.45 
  -2  -2 -12    7.40    0.63 
  -1  -2 -12    1.10    0.16 
   0  -2 -12   -0.07    0.16 
   1  -2 -12   24.00    0.58 
   2  -2 -12    6.97    0.45 
   3  -2 -12   62.45    1.08 
   4  -2 -12    3.02    0.43 
   5  -2 -12   84.07    7.02 
   6  -2 -12    1.40    0.50 
   7  -2 -12   11.35    0.75 
   8  -2 -12   -0.69    0.81 
 -14  -1 -12    0.74    0.83 
 -13  -1 -12    3.36    0.87 
 -12  -1 -12    0.27    0.65 
 -11  -1 -12    0.35    0.61 
 -10  -1 -12    2.42    0.66 
  -9  -1 -12    8.46    0.85 
  -8  -1 -12    4.40    0.47 
  -7  -1 -12   20.57    0.71 
  -6  -1 -12    5.87    0.45 
  -5  -1 -12    0.45    0.32 
  -4  -1 -12   30.95    0.71 
  -3  -1 -12   87.34    2.28 
  -2  -1 -12    4.55    0.57 
  -1  -1 -12    1.37    0.18 
   0  -1 -12    0.31    0.13 
   1  -1 -12    0.57    0.24 
   2  -1 -12   75.96    1.38 
   3  -1 -12    8.69    0.70 
   4  -1 -12    5.65    0.49 
   5  -1 -12   11.91    0.65 
   6  -1 -12    0.24    0.43 
   7  -1 -12   -0.16    0.47 
   8  -1 -12   17.40    1.30 
   9  -1 -12    0.77    0.81 
  10  -1 -12    2.59    0.86 
  11  -1 -12   -0.09    0.70 
 -14   0 -12    1.21    0.71 
 -13   0 -12    0.14    0.57 
 -12   0 -12    1.57    0.58 
 -11   0 -12    0.06    0.47 
 -10   0 -12    0.65    0.52 
  -9   0 -12    0.12    0.36 
  -8   0 -12    2.66    0.38 
  -7   0 -12    0.08    0.28 
  -6   0 -12   47.69    0.93 
  -5   0 -12   -0.07    0.28 
  -4   0 -12   14.60    0.49 
  -3   0 -12   -0.13    0.19 
  -2   0 -12    6.82    0.44 
  -1   0 -12   -0.03    0.09 
   0   0 -12   65.35    1.27 
   1   0 -12    0.35    0.15 
   2   0 -12  482.90    4.05 
   3   0 -12    0.50    0.30 
   4   0 -12    1.11    0.36 
   5   0 -12    0.97    0.43 
   6   0 -12    1.18    0.45 
   7   0 -12    0.75    0.84 
   8   0 -12    6.04    0.99 
   9   0 -12   -0.27    0.77 
  10   0 -12    7.79    1.13 
  11   0 -12   -0.11    0.77 
  12   0 -12    3.17    0.94 
  13   0 -12    0.06    0.93 
 -13   1 -12    0.82    0.56 
 -12   1 -12    0.22    0.46 
 -11   1 -12    0.31    0.46 
 -10   1 -12    1.93    0.40 
  -9   1 -12    8.47    0.52 
  -8   1 -12    4.80    0.44 
  -7   1 -12   18.21    0.62 
  -6   1 -12    5.05    0.38 
  -5   1 -12    0.24    0.25 
  -4   1 -12   33.91    0.94 
  -3   1 -12   88.60    1.01 
  -2   1 -12    2.68    0.17 
  -1   1 -12    0.26    0.05 
   0   1 -12    0.20    0.25 
   1   1 -12    0.27    0.26 
   2   1 -12   68.07    2.44 
   3   1 -12   10.02    0.45 
   4   1 -12    4.95    0.40 
   5   1 -12   10.97    0.58 
   6   1 -12    0.40    0.45 
   7   1 -12    0.37    0.72 
   8   1 -12   18.03    1.49 
   9   1 -12   -0.17    0.90 
  10   1 -12    2.17    0.78 
  11   1 -12    0.31    0.85 
  12   1 -12    0.03    0.87 
  13   1 -12    0.20    1.00 
 -10   2 -12    0.26    0.54 
  -9   2 -12    0.76    0.36 
  -8   2 -12   30.96    1.13 
  -7   2 -12   13.92    0.58 
  -6   2 -12   37.43    0.83 
  -5   2 -12   55.17    1.59 
  -4   2 -12    5.84    0.64 
  -3   2 -12    7.99    0.67 
  -2   2 -12    8.62    0.59 
  -1   2 -12    0.54    0.33 
   0   2 -12   -0.37    0.24 
   1   2 -12   17.57    0.60 
   2   2 -12    5.20    0.31 
   3   2 -12   49.68    1.63 
   4   2 -12    2.64    0.34 
   5   2 -12  102.94    1.59 
   6   2 -12    0.77    1.10 
   7   2 -12   14.15    1.43 
   8   2 -12    0.96    1.14 
   9   2 -12    8.99    1.41 
  10   2 -12    1.46    1.02 
  11   2 -12    1.23    0.95 
  12   2 -12    0.94    1.03 
  13   2 -12    0.35    1.12 
 -11   3 -12    2.28    0.60 
 -10   3 -12    0.54    0.49 
  -9   3 -12    3.08    0.63 
  -8   3 -12    4.30    0.64 
  -7   3 -12   29.52    1.23 
  -6   3 -12    1.14    0.54 
  -5   3 -12    0.94    0.52 
  -4   3 -12    1.60    0.55 
  -3   3 -12    8.57    0.71 
  -2   3 -12    4.15    0.55 
  -1   3 -12   33.34    1.18 
   0   3 -12   14.37    0.74 
   1   3 -12    1.43    0.32 
   2   3 -12   -0.12    0.24 
   3   3 -12   14.18    0.51 
   4   3 -12   18.67    0.63 
   5   3 -12    2.37    0.78 
   6   3 -12    1.25    0.96 
   7   3 -12   24.03    1.82 
   8   3 -12    7.81    1.36 
   9   3 -12   -0.12    1.04 
  10   3 -12    4.24    1.23 
  11   3 -12    0.72    1.00 
  12   3 -12    1.40    1.06 
  13   3 -12    0.56    1.21 
 -11   4 -12    0.26    0.49 
 -10   4 -12    0.21    0.49 
  -9   4 -12   12.99    0.91 
  -8   4 -12   20.62    1.04 
  -7   4 -12   14.69    0.94 
  -6   4 -12   44.64    1.54 
  -5   4 -12   31.01    1.31 
  -4   4 -12    0.16    0.47 
  -3   4 -12    3.09    0.58 
  -2   4 -12    7.73    0.73 
  -1   4 -12   99.24    2.02 
   0   4 -12   -0.14    0.38 
   1   4 -12   10.29    0.67 
   2   4 -12   31.87    0.98 
   3   4 -12    1.12    0.28 
   4   4 -12    0.26    0.74 
   5   4 -12   71.59    2.23 
   6   4 -12    1.19    0.89 
   7   4 -12   -0.12    0.88 
   8   4 -12    9.35    1.35 
   9   4 -12    2.40    1.12 
  10   4 -12    3.08    1.22 
  11   4 -12    7.22    1.49 
  12   4 -12    5.90    1.48 
 -12   5 -12   -0.14    0.54 
 -11   5 -12    0.30    0.49 
 -10   5 -12    3.62    0.60 
  -9   5 -12    1.53    0.55 
  -8   5 -12    5.22    0.70 
  -7   5 -12    0.50    0.51 
  -6   5 -12    4.50    0.70 
  -5   5 -12    2.37    0.63 
  -4   5 -12    4.11    0.68 
  -3   5 -12   30.36    1.32 
  -2   5 -12    0.43    0.48 
  -1   5 -12    0.11    0.42 
   0   5 -12    5.57    0.60 
   1   5 -12    0.07    0.40 
   2   5 -12    0.56    0.36 
   3   5 -12    0.74    0.31 
   4   5 -12    5.05    0.81 
   5   5 -12    0.55    0.79 
   6   5 -12    1.43    0.76 
   7   5 -12    4.12    1.15 
   8   5 -12    9.70    1.38 
   9   5 -12    0.43    1.01 
  10   5 -12    3.07    1.14 
  11   5 -12    0.66    1.36 
 -11   6 -12    0.15    0.50 
 -10   6 -12   -0.38    0.48 
  -9   6 -12    0.02    0.45 
  -8   6 -12    0.97    0.48 
  -7   6 -12    1.33    0.54 
  -6   6 -12    2.17    0.57 
  -5   6 -12   14.66    1.01 
  -4   6 -12    3.88    0.68 
  -3   6 -12   -0.19    0.45 
  -2   6 -12    9.59    0.85 
  -1   6 -12   14.10    0.93 
   0   6 -12    8.84    0.78 
   1   6 -12   12.62    0.81 
   2   6 -12    5.87    0.63 
   3   6 -12    6.96    0.81 
   4   6 -12   -0.20    0.55 
   5   6 -12    2.70    0.86 
   6   6 -12    7.58    1.09 
   7   6 -12    0.33    0.92 
   8   6 -12    2.07    1.14 
   9   6 -12    2.58    1.17 
  10   6 -12    0.89    1.21 
  11   6 -12    0.65    1.75 
  -9   7 -12   -0.40    0.46 
  -8   7 -12   -0.55    0.43 
  -7   7 -12    1.15    0.50 
  -6   7 -12    1.85    0.49 
  -5   7 -12    0.34    0.32 
  -4   7 -12   -0.09    0.35 
  -3   7 -12    1.85    0.51 
  -2   7 -12    2.92    0.57 
  -1   7 -12    1.10    0.53 
   0   7 -12    0.05    0.43 
   1   7 -12    3.35    0.60 
   3   7 -12    0.84    0.53 
   4   7 -12    4.16    0.71 
   5   7 -12   -0.28    0.80 
   6   7 -12   -0.31    0.76 
   7   7 -12    2.23    1.02 
   8   7 -12   -0.11    0.98 
   9   7 -12    0.35    1.16 
  10   7 -12   -0.23    1.47 
  -7   8 -12    0.07    0.38 
  -6   8 -12    0.52    0.40 
  -5   8 -12    0.08    0.37 
  -4   8 -12   -0.02    0.38 
  -3   8 -12    0.03    0.35 
  -2   8 -12    0.12    0.37 
  -1   8 -12    0.80    0.42 
   0   8 -12    0.03    0.38 
   3   8 -12    0.91    0.50 
   4   8 -12   -0.25    0.59 
   5   8 -12    3.04    0.89 
   6   8 -12   -0.12    0.75 
   7   8 -12    0.63    0.98 
   8   8 -12    0.99    1.22 
  -5   9 -12    0.29    0.40 
  -4   9 -12   -0.12    0.35 
  -3   9 -12    0.45    0.36 
  -2   9 -12   -0.07    0.33 
  -1   9 -12    0.00    0.33 
   2   9 -12    0.82    0.37 
   3   9 -12    0.34    0.48 
   4   9 -12    0.62    0.63 
   5   9 -12   -0.47    0.74 
   6   9 -12   -0.10    0.91 
  -2  10 -12   -0.12    0.33 
   2  10 -12    0.67    0.38 
   3  10 -12   -0.09    0.60 
  -5  -9 -11   -0.09    0.99 
  -4  -9 -11   -0.06    0.84 
  -3  -9 -11    1.68    0.99 
  -2  -9 -11   -0.39    1.03 
  -1  -9 -11   -0.16    0.92 
   0  -9 -11    0.11    0.86 
  -8  -8 -11    0.57    0.81 
  -7  -8 -11   -0.13    0.71 
  -6  -8 -11    0.61    0.70 
  -5  -8 -11    0.23    0.62 
  -4  -8 -11    0.52    0.68 
  -3  -8 -11    0.42    0.64 
  -2  -8 -11    2.51    0.85 
  -1  -8 -11   -0.23    0.61 
   0  -8 -11    0.47    0.75 
  -9  -7 -11    0.80    0.89 
  -8  -7 -11    0.12    0.65 
  -7  -7 -11    0.00    0.64 
  -6  -7 -11    2.90    0.70 
  -5  -7 -11    1.78    0.75 
  -4  -7 -11    0.22    0.64 
  -3  -7 -11    5.45    0.72 
  -2  -7 -11    0.31    0.51 
  -1  -7 -11    5.19    0.70 
   0  -7 -11    4.43    0.96 
 -11  -6 -11   -0.21    0.81 
 -10  -6 -11   -0.61    0.69 
  -9  -6 -11    2.04    0.83 
  -8  -6 -11   -0.38    0.61 
  -7  -6 -11   -0.03    0.62 
  -6  -6 -11    2.37    0.69 
  -5  -6 -11    9.25    0.96 
  -4  -6 -11    1.99    0.62 
  -3  -6 -11    7.75    0.69 
  -2  -6 -11    1.47    0.59 
  -1  -6 -11   14.69    0.90 
   0  -6 -11   41.17    1.37 
   1  -6 -11    5.64    0.72 
   2  -6 -11   46.48    1.97 
 -12  -5 -11    0.26    0.92 
 -11  -5 -11   -0.42    0.65 
 -10  -5 -11    0.18    0.68 
  -9  -5 -11    5.75    0.82 
  -8  -5 -11    6.11    0.81 
  -7  -5 -11    7.40    0.87 
  -6  -5 -11    1.88    0.75 
  -5  -5 -11    2.48    0.47 
  -4  -5 -11   13.51    0.76 
  -3  -5 -11   12.10    0.72 
  -2  -5 -11    1.80    0.46 
  -1  -5 -11    6.62    0.57 
   0  -5 -11    1.23    0.53 
   1  -5 -11   15.18    0.81 
   2  -5 -11   -0.05    0.70 
   3  -5 -11    8.07    1.02 
   4  -5 -11    1.77    0.74 
 -12  -4 -11    0.04    0.73 
 -11  -4 -11    3.70    0.85 
 -10  -4 -11    1.42    0.72 
  -9  -4 -11    7.54    0.91 
  -8  -4 -11   15.47    1.14 
  -7  -4 -11   19.65    1.21 
  -6  -4 -11    0.66    0.44 
  -5  -4 -11   23.25    0.86 
  -4  -4 -11    5.12    0.49 
  -3  -4 -11    0.84    0.38 
  -2  -4 -11   51.56    1.15 
  -1  -4 -11   38.46    1.04 
   0  -4 -11    5.80    0.52 
   1  -4 -11   -0.17    0.35 
   2  -4 -11   61.05    1.97 
   3  -4 -11    8.64    0.83 
   4  -4 -11   -0.27    0.61 
   5  -4 -11   10.34    1.13 
 -13  -3 -11    0.73    0.78 
 -12  -3 -11    0.47    0.63 
 -11  -3 -11   -0.19    0.57 
 -10  -3 -11    8.98    1.02 
  -9  -3 -11   -0.10    0.62 
  -8  -3 -11   23.30    1.31 
  -7  -3 -11   47.77    1.66 
  -6  -3 -11   21.29    4.35 
  -5  -3 -11   13.17    1.29 
  -4  -3 -11    3.05    0.40 
  -3  -3 -11   -0.23    0.30 
  -2  -3 -11  199.92    2.81 
  -1  -3 -11   12.14    0.89 
   0  -3 -11    4.86    0.40 
   1  -3 -11    4.45    0.38 
   2  -3 -11   19.86    1.03 
   3  -3 -11    2.20    0.56 
   4  -3 -11  111.00    2.59 
   5  -3 -11   32.28    1.49 
   6  -3 -11    3.77    0.85 
 -13  -2 -11   -0.16    0.64 
 -12  -2 -11    0.77    0.69 
 -11  -2 -11    0.75    0.62 
 -10  -2 -11   -0.06    0.56 
  -9  -2 -11    1.95    0.62 
  -8  -2 -11   48.34    1.67 
  -7  -2 -11   25.71    0.86 
  -6  -2 -11    4.72    0.49 
  -5  -2 -11   38.02    0.87 
  -4  -2 -11   50.65    1.99 
  -3  -2 -11    2.74    0.34 
  -2  -2 -11    1.17    0.29 
  -1  -2 -11   65.63    0.78 
   0  -2 -11   19.06    0.62 
   1  -2 -11   16.73    0.49 
   2  -2 -11   22.93    0.64 
   3  -2 -11    0.97    0.35 
   4  -2 -11    2.91    0.43 
   5  -2 -11    0.39    0.40 
   6  -2 -11  112.63    1.79 
   7  -2 -11    2.99    0.55 
   8  -2 -11    4.80    0.91 
 -14  -1 -11    0.71    0.80 
 -13  -1 -11    3.95    0.77 
 -12  -1 -11    2.07    0.66 
 -11  -1 -11   -0.05    0.52 
 -10  -1 -11    1.42    0.61 
  -9  -1 -11   17.76    1.08 
  -8  -1 -11    5.52    0.60 
  -7  -1 -11   23.74    0.83 
  -6  -1 -11    3.43    0.38 
  -5  -1 -11   10.75    0.48 
  -4  -1 -11   10.43    0.45 
  -3  -1 -11   98.54    3.84 
  -2  -1 -11    8.43    0.40 
  -1  -1 -11   16.39    0.97 
   0  -1 -11  103.72    3.14 
   1  -1 -11   42.57    1.19 
   2  -1 -11   60.76    1.03 
   3  -1 -11    5.02    0.65 
   4  -1 -11   94.48    1.34 
   5  -1 -11    5.17    0.47 
   6  -1 -11    0.08    0.39 
   7  -1 -11   -0.09    0.46 
   8  -1 -11    1.86    0.74 
   9  -1 -11    6.92    1.01 
  10  -1 -11    0.51    0.74 
 -14   0 -11   -0.02    0.58 
 -13   0 -11    0.63    0.58 
 -12   0 -11   -0.59    0.49 
 -11   0 -11    2.14    0.60 
 -10   0 -11    0.20    0.54 
  -9   0 -11    0.02    0.32 
  -8   0 -11   -0.19    0.30 
  -7   0 -11    1.30    0.30 
  -6   0 -11    0.17    0.25 
  -5   0 -11   33.98    1.29 
  -4   0 -11    0.06    0.25 
  -3   0 -11   39.40    0.65 
  -2   0 -11    0.06    0.16 
  -1   0 -11    2.05    0.18 
   0   0 -11    0.30    0.31 
   1   0 -11  145.88    2.01 
   2   0 -11    0.51    0.26 
   3   0 -11  397.41    2.66 
   4   0 -11    0.15    0.31 
   5   0 -11  119.39    1.86 
   6   0 -11    0.10    0.43 
   7   0 -11    4.15    0.87 
   8   0 -11   -0.49    0.75 
   9   0 -11   -0.16    0.78 
  10   0 -11    0.31    0.74 
  11   0 -11    6.36    1.08 
  12   0 -11    0.54    0.85 
 -14   1 -11    0.93    0.60 
 -13   1 -11    2.68    0.63 
 -12   1 -11    1.83    0.61 
 -11   1 -11    0.00    0.49 
 -10   1 -11    1.45    0.54 
  -9   1 -11   15.37    0.62 
  -8   1 -11    5.59    0.44 
  -7   1 -11   19.63    0.62 
  -6   1 -11    3.18    0.33 
  -5   1 -11    9.17    0.39 
  -4   1 -11   10.40    0.39 
  -3   1 -11  102.17    1.02 
  -2   1 -11    8.12    0.26 
  -1   1 -11    6.70    0.58 
   0   1 -11  111.03    1.58 
   1   1 -11   43.18    0.95 
   2   1 -11   58.62    2.55 
   3   1 -11    6.68    0.37 
   4   1 -11   84.89    1.54 
   5   1 -11    5.27    0.47 
   6   1 -11   -0.20    0.36 
   7   1 -11   -0.76    0.89 
   8   1 -11    1.41    0.99 
   9   1 -11    7.23    1.11 
  10   1 -11   -0.35    0.81 
  11   1 -11    4.12    1.06 
  12   1 -11    1.25    0.80 
  13   1 -11    1.34    1.02 
 -13   2 -11    0.13    0.52 
 -12   2 -11    0.96    0.53 
 -11   2 -11    1.14    0.50 
 -10   2 -11   -0.09    0.32 
  -9   2 -11    1.51    0.35 
  -8   2 -11   36.49    2.38 
  -7   2 -11   19.35    0.67 
  -6   2 -11    3.25    0.31 
  -5   2 -11   31.13    1.06 
  -4   2 -11   47.58    1.02 
  -3   2 -11    2.79    0.26 
  -2   2 -11    1.14    0.17 
  -1   2 -11   73.64    1.40 
   0   2 -11   17.09    0.65 
   1   2 -11   13.41    0.55 
   2   2 -11   17.24    0.49 
   3   2 -11    1.05    0.25 
   4   2 -11    2.72    0.31 
   5   2 -11    0.77    0.34 
   6   2 -11  113.52    2.78 
   7   2 -11    3.66    1.13 
   8   2 -11    4.50    1.14 
   9   2 -11    5.30    1.22 
  10   2 -11    4.04    1.07 
  11   2 -11   -0.06    0.91 
  12   2 -11    1.34    1.08 
  13   2 -11    0.64    1.01 
 -11   3 -11    0.02    0.55 
 -10   3 -11    7.65    0.74 
  -9   3 -11    0.16    0.46 
  -8   3 -11   20.03    1.04 
  -7   3 -11   44.61    1.45 
  -6   3 -11   25.81    1.09 
  -5   3 -11   11.24    0.77 
  -4   3 -11    3.46    0.58 
  -3   3 -11   -0.10    0.31 
  -2   3 -11  203.38    2.81 
  -1   3 -11   13.18    0.73 
   0   3 -11    5.29    0.51 
   1   3 -11    4.68    0.44 
   2   3 -11   15.73    0.60 
   3   3 -11    2.24    0.26 
   4   3 -11   89.13    1.72 
   5   3 -11   34.85    1.52 
   6   3 -11    4.13    1.05 
   7   3 -11    9.73    1.38 
   8   3 -11    1.63    0.86 
   9   3 -11   13.66    1.44 
  10   3 -11   20.81    1.63 
  11   3 -11    2.37    1.05 
  12   3 -11    0.51    0.80 
  13   3 -11    0.81    1.01 
 -11   4 -11    2.44    0.58 
 -10   4 -11    0.64    0.46 
  -9   4 -11    4.95    0.65 
  -8   4 -11   13.34    0.94 
  -7   4 -11   17.74    1.05 
  -6   4 -11    0.69    0.57 
  -5   4 -11   18.71    1.00 
  -4   4 -11    5.40    0.68 
  -3   4 -11    0.98    0.54 
  -2   4 -11   45.42    1.43 
  -1   4 -11   33.17    1.12 
   0   4 -11    5.66    0.57 
   1   4 -11    0.20    0.34 
   2   4 -11   54.95    1.32 
   3   4 -11    7.50    0.40 
   4   4 -11    0.74    0.71 
   5   4 -11   10.91    1.14 
   6   4 -11   21.90    1.54 
   7   4 -11    9.23    1.27 
   8   4 -11    5.61    1.14 
   9   4 -11   22.90    1.79 
  10   4 -11    1.00    0.97 
  11   4 -11    0.72    1.10 
  12   4 -11    1.88    1.26 
 -12   5 -11    0.18    0.52 
 -11   5 -11   -0.37    0.45 
 -10   5 -11    0.35    0.50 
  -9   5 -11    4.77    0.66 
  -8   5 -11    6.44    0.74 
  -7   5 -11    6.64    0.75 
  -6   5 -11    1.61    0.57 
  -5   5 -11    2.50    0.62 
  -3   5 -11   10.02    0.85 
  -2   5 -11    1.39    0.54 
  -1   5 -11    6.32    0.66 
   0   5 -11    1.57    0.46 
   1   5 -11   11.89    0.69 
   2   5 -11    0.45    0.31 
   3   5 -11    5.86    0.42 
   4   5 -11    2.11    0.82 
   5   5 -11   12.21    1.15 
   6   5 -11    0.64    0.79 
   7   5 -11    0.95    1.03 
   8   5 -11    7.38    1.29 
   9   5 -11    5.81    1.28 
  10   5 -11    3.15    1.38 
  11   5 -11    2.15    1.39 
  12   5 -11    1.39    1.43 
 -11   6 -11   -0.03    0.50 
 -10   6 -11   -0.31    0.41 
  -9   6 -11    1.98    0.51 
  -8   6 -11    0.21    0.42 
  -7   6 -11    0.17    0.42 
  -6   6 -11    1.40    0.52 
  -5   6 -11    6.98    0.67 
  -4   6 -11    1.65    0.55 
  -3   6 -11    5.98    0.69 
  -2   6 -11    0.55    0.47 
  -1   6 -11   11.95    0.86 
   0   6 -11   33.94    1.33 
   1   6 -11    5.33    0.61 
   2   6 -11   34.56    1.10 
   3   6 -11    4.36    0.73 
   4   6 -11    0.09    0.50 
   5   6 -11   -0.12    0.79 
   6   6 -11    0.73    0.79 
   7   6 -11    9.12    1.30 
   8   6 -11    0.27    1.08 
   9   6 -11    2.46    1.07 
  10   6 -11    0.27    1.09 
  11   6 -11    0.17    1.72 
 -10   7 -11    0.85    0.51 
  -9   7 -11    0.65    0.44 
  -8   7 -11    0.21    0.39 
  -7   7 -11   -0.01    0.43 
  -6   7 -11    1.61    0.47 
  -5   7 -11    1.20    0.46 
  -4   7 -11   -0.01    0.42 
  -3   7 -11    3.47    0.59 
  -2   7 -11    0.34    0.44 
  -1   7 -11    3.54    0.58 
   0   7 -11    3.28    0.54 
   1   7 -11   10.08    0.78 
   3   7 -11   -0.02    0.48 
   4   7 -11    1.73    0.69 
   5   7 -11    3.30    0.96 
   6   7 -11    1.19    0.87 
   7   7 -11    0.82    0.97 
   8   7 -11    5.13    1.26 
   9   7 -11    1.88    1.18 
  10   7 -11   -0.81    1.29 
  -8   8 -11    0.06    0.42 
  -7   8 -11   -0.27    0.39 
  -6   8 -11   -0.03    0.38 
  -5   8 -11    0.21    0.36 
  -4   8 -11    0.30    0.42 
  -3   8 -11   -0.13    0.36 
  -2   8 -11    1.36    0.46 
  -1   8 -11    0.21    0.37 
   0   8 -11    0.13    0.35 
   3   8 -11    0.89    0.53 
   4   8 -11    0.26    0.61 
   5   8 -11    1.73    0.85 
   6   8 -11    0.05    0.80 
   7   8 -11   -0.02    0.95 
   8   8 -11   -0.17    1.06 
   9   8 -11    0.77    1.35 
  -5   9 -11    0.13    0.36 
  -3   9 -11    0.50    0.37 
  -2   9 -11   -0.05    0.35 
  -1   9 -11   -0.07    0.36 
   0   9 -11   -0.16    0.31 
   2   9 -11    0.44    0.36 
   3   9 -11    0.39    0.52 
   4   9 -11    1.72    0.77 
   5   9 -11   -0.61    0.66 
   6   9 -11   -0.14    0.83 
   7   9 -11   -0.62    1.08 
  -2  10 -11   -0.07    0.31 
   2  10 -11    0.51    0.41 
   3  10 -11    0.16    0.53 
  -1 -10 -10    0.06    1.33 
  -6  -9 -10   -0.18    0.90 
  -5  -9 -10    0.33    0.93 
  -4  -9 -10    1.85    0.99 
  -3  -9 -10    0.96    0.98 
  -2  -9 -10    1.10    1.11 
  -1  -9 -10    0.43    0.96 
   0  -9 -10    0.52    1.01 
  -8  -8 -10   -0.64    0.93 
  -7  -8 -10    1.27    0.88 
  -6  -8 -10   -0.01    0.76 
  -5  -8 -10   -0.25    0.76 
  -4  -8 -10   -0.12    0.72 
  -3  -8 -10    1.01    0.81 
  -2  -8 -10    0.45    0.86 
  -1  -8 -10    3.87    1.20 
   0  -8 -10   -0.03    0.84 
  -9  -7 -10    3.64    0.99 
  -8  -7 -10   -0.18    0.61 
  -7  -7 -10    0.63    0.64 
  -6  -7 -10    0.83    0.61 
  -5  -7 -10    6.36    0.95 
  -4  -7 -10    1.24    0.74 
  -3  -7 -10   12.89    0.84 
  -2  -7 -10    1.10    0.54 
  -1  -7 -10    0.24    0.80 
   0  -7 -10    4.39    0.83 
   1  -7 -10   11.80    1.17 
 -11  -6 -10    1.45    0.88 
 -10  -6 -10    0.38    0.67 
  -9  -6 -10    0.05    0.63 
  -8  -6 -10    0.92    0.69 
  -7  -6 -10    4.38    0.92 
  -6  -6 -10   -0.26    0.53 
  -5  -6 -10    1.51    0.72 
  -4  -6 -10   78.98    1.74 
  -3  -6 -10    4.03    0.67 
  -2  -6 -10   -0.18    0.53 
  -1  -6 -10    0.77    0.50 
   0  -6 -10   43.89    1.46 
   1  -6 -10    0.59    0.56 
 -12  -5 -10    4.39    1.12 
 -11  -5 -10    0.21    0.73 
 -10  -5 -10    2.12    0.74 
  -9  -5 -10    0.30    0.60 
  -8  -5 -10    0.47    0.56 
  -7  -5 -10    5.22    0.77 
  -6  -5 -10   19.59    1.22 
  -5  -5 -10    0.44    0.38 
  -4  -5 -10    1.38    0.46 
  -3  -5 -10    0.38    0.39 
  -2  -5 -10   40.25    1.08 
  -1  -5 -10    0.73    0.48 
   0  -5 -10    3.73    0.58 
   1  -5 -10    0.52    0.46 
   2  -5 -10   -0.69    0.59 
   3  -5 -10   -0.59    0.65 
 -12  -4 -10    1.47    0.81 
 -11  -4 -10    4.78    0.94 
 -10  -4 -10    5.93    0.88 
  -9  -4 -10    1.27    0.63 
  -8  -4 -10    1.59    0.63 
  -7  -4 -10   39.92    1.62 
  -6  -4 -10    4.29    0.51 
  -5  -4 -10    4.96    1.30 
  -4  -4 -10    2.90    0.46 
  -3  -4 -10   71.59    2.28 
  -2  -4 -10    6.57    0.54 
  -1  -4 -10   15.90    0.72 
   0  -4 -10   32.22    0.91 
   1  -4 -10   10.05    0.56 
   2  -4 -10    2.55    0.70 
   3  -4 -10   20.94    1.20 
   4  -4 -10   50.09    1.81 
   5  -4 -10   19.93    1.28 
 -13  -3 -10   -0.01    0.77 
 -12  -3 -10   -0.16    0.63 
 -11  -3 -10   -0.11    0.61 
 -10  -3 -10    0.80    0.58 
  -9  -3 -10    0.08    0.55 
  -8  -3 -10    2.64    0.75 
  -7  -3 -10   31.38    1.38 
  -6  -3 -10    0.81    0.41 
  -5  -3 -10    0.18    0.31 
  -4  -3 -10   12.89    0.65 
  -3  -3 -10    1.39    0.34 
  -2  -3 -10   53.31    1.31 
  -1  -3 -10  143.24    4.33 
   0  -3 -10   23.43    0.70 
   1  -3 -10   31.88    1.13 
   2  -3 -10   39.88    1.37 
   3  -3 -10   17.22    0.96 
   4  -3 -10    3.20    0.67 
   5  -3 -10   25.23    1.30 
   6  -3 -10   -0.16    0.53 
 -14  -2 -10    1.63    0.88 
 -13  -2 -10    0.37    0.66 
 -12  -2 -10    0.67    0.62 
 -11  -2 -10    5.30    0.83 
 -10  -2 -10   -0.37    0.51 
  -9  -2 -10    1.07    0.59 
  -8  -2 -10    1.69    0.58 
  -7  -2 -10   17.69    0.91 
  -6  -2 -10   19.09    3.25 
  -5  -2 -10    9.49    0.51 
  -4  -2 -10   13.55    0.56 
  -3  -2 -10   27.36    0.67 
  -2  -2 -10    0.38    0.26 
  -1  -2 -10   31.24    0.56 
   0  -2 -10    3.61    0.23 
   1  -2 -10  108.82    6.19 
   2  -2 -10    1.40    0.32 
   3  -2 -10   58.88    1.05 
   4  -2 -10   15.90    0.61 
   5  -2 -10    1.45    0.41 
   6  -2 -10    8.90    0.62 
   7  -2 -10   48.86    2.85 
 -14  -1 -10    0.22    0.66 
 -13  -1 -10    2.12    0.66 
 -12  -1 -10    1.31    0.61 
 -11  -1 -10   -0.26    0.51 
 -10  -1 -10   -0.10    0.51 
  -9  -1 -10    2.50    0.59 
  -8  -1 -10    4.13    0.45 
  -7  -1 -10    0.56    0.33 
  -6  -1 -10   59.13    1.15 
  -5  -1 -10    2.04    0.31 
  -4  -1 -10   -0.06    0.28 
  -3  -1 -10    4.34    0.33 
  -2  -1 -10   56.66    0.84 
  -1  -1 -10    1.36    0.22 
   0  -1 -10   10.93    0.35 
   1  -1 -10   21.02    0.47 
   2  -1 -10   38.12    0.82 
   3  -1 -10    9.42    1.85 
   4  -1 -10   45.67    0.93 
   5  -1 -10    4.14    0.44 
   6  -1 -10   11.37    0.71 
   7  -1 -10    2.49    0.48 
   8  -1 -10    7.18    0.92 
   9  -1 -10   20.56    1.34 
  10  -1 -10   15.92    1.23 
 -14   0 -10    3.46    0.82 
 -13   0 -10   -0.29    0.51 
 -12   0 -10    0.99    0.53 
 -11   0 -10    0.29    0.47 
 -10   0 -10   26.04    1.20 
  -9   0 -10   -0.05    0.31 
  -8   0 -10    7.99    0.45 
  -7   0 -10    0.08    0.26 
  -6   0 -10   29.48    0.69 
  -5   0 -10    0.05    0.24 
  -4   0 -10  379.82   10.04 
  -3   0 -10    0.07    0.17 
  -2   0 -10    3.69    0.23 
  -1   0 -10    0.00    0.14 
   0   0 -10    8.18    0.87 
   1   0 -10    0.38    0.17 
   2   0 -10   26.79    0.56 
   3   0 -10    0.45    0.28 
   4   0 -10   81.68    1.12 
   5   0 -10    0.18    0.39 
   6   0 -10   25.23    0.80 
   7   0 -10    0.59    0.44 
   8   0 -10    7.41    0.97 
   9   0 -10   -0.55    0.76 
  10   0 -10    3.30    0.77 
  11   0 -10    0.44    0.81 
  12   0 -10    4.70    0.94 
 -14   1 -10    0.35    0.65 
 -12   1 -10    1.92    0.57 
 -11   1 -10    0.25    0.54 
 -10   1 -10    0.23    0.48 
  -9   1 -10    2.35    0.39 
  -8   1 -10    3.70    0.42 
  -7   1 -10    1.69    0.32 
  -6   1 -10   54.06    0.92 
  -5   1 -10    1.30    0.29 
  -4   1 -10    0.16    0.22 
  -3   1 -10    4.48    0.27 
  -2   1 -10   49.01    0.74 
  -1   1 -10    0.84    0.10 
   0   1 -10   11.26    0.49 
   1   1 -10   19.97    0.62 
   2   1 -10   37.80    0.90 
   3   1 -10   12.68    0.46 
   4   1 -10   43.91    0.81 
   5   1 -10    4.70    0.42 
   6   1 -10   11.66    0.61 
   7   1 -10    2.72    1.00 
   8   1 -10    7.19    1.08 
   9   1 -10   18.82    1.29 
  10   1 -10   19.31    1.45 
  11   1 -10    4.50    1.00 
  12   1 -10    2.91    1.01 
  13   1 -10    0.61    0.92 
 -14   2 -10    1.04    0.63 
 -13   2 -10    0.02    0.58 
 -12   2 -10    0.41    0.49 
 -11   2 -10    3.40    0.53 
 -10   2 -10    0.15    0.29 
  -9   2 -10    0.54    0.32 
  -8   2 -10    0.73    0.33 
  -7   2 -10   12.32    0.52 
  -6   2 -10   23.08    0.61 
  -5   2 -10    8.20    0.39 
  -4   2 -10   12.53    0.42 
  -3   2 -10   25.07    0.51 
  -2   2 -10    0.38    0.18 
  -1   2 -10   36.15    1.01 
   0   2 -10    3.37    0.36 
   1   2 -10   72.51    1.20 
   2   2 -10    0.82    0.21 
   3   2 -10   49.92    1.79 
   4   2 -10   14.82    0.55 
   5   2 -10    1.36    0.31 
   6   2 -10   10.12    1.20 
   7   2 -10   57.05    2.15 
   8   2 -10   34.49    1.87 
   9   2 -10    0.15    0.79 
  10   2 -10   10.50    1.27 
  11   2 -10    0.17    0.80 
  12   2 -10    1.39    0.91 
  13   2 -10    0.50    0.92 
 -12   3 -10    0.58    0.48 
 -11   3 -10   -0.12    0.31 
 -10   3 -10    0.85    0.32 
  -9   3 -10   -0.09    0.29 
  -8   3 -10    1.89    0.33 
  -7   3 -10   25.74    0.68 
  -6   3 -10    0.66    0.27 
  -5   3 -10   -0.17    0.21 
  -4   3 -10   11.00    0.39 
  -3   3 -10    0.86    0.19 
  -2   3 -10   45.83    0.96 
  -1   3 -10  158.65    2.31 
   0   3 -10   24.32    0.88 
   1   3 -10   35.27    1.01 
   2   3 -10   33.05    0.81 
   3   3 -10   14.68    0.70 
   4   3 -10    2.23    0.30 
   5   3 -10   26.55    1.33 
   6   3 -10    0.91    0.86 
   7   3 -10    4.94    0.96 
   8   3 -10    3.40    1.10 
   9   3 -10    0.89    1.08 
  10   3 -10    0.52    1.01 
  11   3 -10    3.79    1.06 
  12   3 -10    0.25    0.94 
  13   3 -10    2.11    1.23 
 -11   4 -10    2.84    0.56 
 -10   4 -10    3.93    0.63 
  -9   4 -10    0.86    0.50 
  -8   4 -10    0.68    0.51 
  -7   4 -10   34.67    1.36 
  -6   4 -10    4.12    0.67 
  -5   4 -10    6.74    0.68 
  -4   4 -10    2.12    0.57 
  -3   4 -10   70.19    1.78 
  -2   4 -10    6.56    0.71 
  -1   4 -10   14.86    0.86 
   0   4 -10   30.62    1.05 
   1   4 -10   10.07    0.62 
   2   4 -10    2.18    0.38 
   3   4 -10   18.55    0.59 
   4   4 -10   38.92    1.98 
   5   4 -10   23.15    1.43 
   6   4 -10   28.94    1.69 
   7   4 -10   24.28    1.67 
   8   4 -10   23.60    1.68 
   9   4 -10    1.13    0.96 
  10   4 -10    9.60    1.60 
  11   4 -10    0.22    1.09 
  12   4 -10    4.54    1.27 
  13   4 -10    0.83    1.26 
 -12   5 -10    2.62    0.62 
 -11   5 -10    0.00    0.47 
 -10   5 -10    1.25    0.51 
  -9   5 -10    0.28    0.46 
  -8   5 -10    1.04    0.49 
  -7   5 -10    4.43    0.64 
  -6   5 -10   16.31    1.01 
  -5   5 -10    0.44    0.53 
  -4   5 -10    1.39    0.56 
  -3   5 -10    0.02    0.47 
  -2   5 -10   40.79    1.37 
  -1   5 -10    0.67    0.45 
   0   5 -10    3.95    0.56 
   1   5 -10    0.77    0.38 
   2   5 -10   -0.06    0.30 
   3   5 -10    0.11    0.27 
   4   5 -10    2.77    0.86 
   5   5 -10   26.23    1.54 
   6   5 -10    2.97    0.96 
   7   5 -10    2.61    1.10 
   8   5 -10    2.15    1.01 
   9   5 -10    1.22    1.01 
  10   5 -10    0.88    1.33 
  11   5 -10    1.61    1.31 
  12   5 -10    4.15    1.47 
 -12   6 -10    0.25    0.58 
 -11   6 -10    1.30    0.55 
 -10   6 -10    0.40    0.44 
  -9   6 -10    0.56    0.41 
  -8   6 -10    0.43    0.42 
  -7   6 -10    3.38    0.60 
  -6   6 -10    0.12    0.48 
  -5   6 -10    1.04    0.53 
  -4   6 -10   60.51    1.82 
  -3   6 -10    2.82    0.62 
  -2   6 -10    0.35    0.50 
  -1   6 -10    0.11    0.44 
   0   6 -10   27.99    1.13 
   1   6 -10    0.64    0.48 
   2   6 -10    1.34    0.47 
   3   6 -10   11.66    0.99 
   4   6 -10    0.94    0.71 
   5   6 -10   -0.43    0.71 
   6   6 -10    0.14    0.74 
   7   6 -10    0.20    0.90 
   8   6 -10    0.82    1.10 
   9   6 -10    0.35    1.01 
  10   6 -10    2.16    1.48 
  11   6 -10   -0.80    1.52 
 -10   7 -10    0.17    0.44 
  -9   7 -10    1.68    0.47 
  -8   7 -10   -0.12    0.40 
  -7   7 -10    0.19    0.43 
  -6   7 -10    0.04    0.36 
  -5   7 -10    4.29    0.61 
  -4   7 -10    0.97    0.47 
  -3   7 -10    8.76    0.79 
  -2   7 -10    0.83    0.47 
  -1   7 -10   -0.28    0.43 
   0   7 -10    3.93    0.61 
   1   7 -10    6.76    0.64 
   3   7 -10    2.47    0.64 
   4   7 -10    7.74    0.97 
   5   7 -10    5.18    1.09 
   6   7 -10    1.64    0.84 
   7   7 -10    0.40    0.93 
   8   7 -10    4.22    1.22 
   9   7 -10    1.15    1.12 
  10   7 -10    1.28    1.24 
  -8   8 -10   -0.11    0.41 
  -7   8 -10    0.59    0.40 
  -6   8 -10   -0.24    0.32 
  -5   8 -10    0.03    0.32 
  -4   8 -10   -0.18    0.35 
  -3   8 -10    0.49    0.41 
  -2   8 -10    0.09    0.37 
  -1   8 -10    1.55    0.45 
   0   8 -10   -0.21    0.36 
   1   8 -10    0.22    0.39 
   3   8 -10    6.00    0.79 
   4   8 -10   -0.12    0.64 
   5   8 -10    1.44    0.83 
   6   8 -10    0.39    0.78 
   7   8 -10    1.18    1.01 
   9   8 -10    1.61    1.28 
  -6   9 -10   -0.09    0.31 
  -5   9 -10    0.47    0.34 
  -4   9 -10    0.84    0.34 
  -3   9 -10    0.02    0.30 
  -2   9 -10    0.08    0.33 
  -1   9 -10    0.28    0.33 
   0   9 -10    0.07    0.31 
   4   9 -10    0.72    0.70 
   5   9 -10    0.52    0.77 
   6   9 -10    0.52    0.84 
   7   9 -10   -0.54    1.17 
  -3  10 -10   -0.09    0.31 
  -2  10 -10    0.13    0.30 
  -1  10 -10    0.00    0.26 
  -2 -10  -9    0.64    1.20 
  -1 -10  -9    0.92    1.27 
  -6  -9  -9   -0.47    0.87 
  -5  -9  -9   -0.48    0.82 
  -4  -9  -9   -0.50    0.96 
  -3  -9  -9    0.29    0.98 
  -2  -9  -9    0.61    1.05 
  -1  -9  -9    1.69    1.04 
   0  -9  -9    0.56    1.06 
  -8  -8  -9    0.12    0.93 
  -7  -8  -9    0.15    0.75 
  -6  -8  -9    0.17    0.89 
  -5  -8  -9    1.07    0.69 
  -4  -8  -9    0.06    0.72 
  -3  -8  -9   -0.17    0.84 
  -2  -8  -9    0.72    0.91 
  -1  -8  -9    2.43    1.20 
   0  -8  -9    6.64    1.14 
 -10  -7  -9    0.63    1.01 
  -9  -7  -9    0.17    0.89 
  -8  -7  -9    1.64    0.62 
  -7  -7  -9    0.71    0.64 
  -6  -7  -9    1.59    0.61 
  -5  -7  -9   13.42    1.22 
  -4  -7  -9    3.23    0.87 
  -3  -7  -9    4.49    0.92 
  -2  -7  -9   10.07    1.19 
  -1  -7  -9    2.04    1.01 
   0  -7  -9    1.95    1.03 
   1  -7  -9   18.31    1.39 
 -11  -6  -9    0.41    0.82 
 -10  -6  -9    0.77    0.56 
  -9  -6  -9    0.68    0.61 
  -8  -6  -9    0.13    0.64 
  -7  -6  -9    2.38    0.78 
  -6  -6  -9    3.00    0.74 
  -5  -6  -9    7.37    0.93 
  -4  -6  -9    9.26    0.71 
  -3  -6  -9   30.47    1.13 
  -2  -6  -9    2.56    0.57 
  -1  -6  -9    4.81    0.64 
   0  -6  -9    6.28    0.69 
   1  -6  -9   11.70    1.25 
 -12  -5  -9    0.48    0.88 
 -11  -5  -9    0.24    0.68 
 -10  -5  -9    0.56    0.63 
  -9  -5  -9    1.76    0.68 
  -7  -5  -9   -0.15    0.53 
  -6  -5  -9    2.54    0.74 
  -5  -5  -9   29.78    0.99 
  -4  -5  -9   12.39    0.67 
  -3  -5  -9    2.89    0.50 
  -2  -5  -9    0.61    0.47 
  -1  -5  -9   59.15    1.38 
   0  -5  -9    2.16    0.52 
   1  -5  -9    0.52    0.44 
   2  -5  -9    1.56    0.78 
   3  -5  -9   13.19    1.13 
 -13  -4  -9    2.37    1.10 
 -12  -4  -9    0.36    0.79 
 -11  -4  -9    2.92    0.75 
 -10  -4  -9    0.18    0.64 
  -9  -4  -9    0.82    0.62 
  -8  -4  -9   32.05    1.51 
  -7  -4  -9   23.18    1.29 
  -6  -4  -9   23.28    2.09 
  -5  -4  -9    0.15    0.38 
  -4  -4  -9   29.83    0.96 
  -3  -4  -9   28.95    0.85 
  -2  -4  -9   83.29    1.42 
  -1  -4  -9   90.95    1.47 
   0  -4  -9  113.62    3.22 
   1  -4  -9    7.36    0.57 
   2  -4  -9   -0.55    0.50 
   3  -4  -9   14.19    1.01 
   4  -4  -9    2.66    0.70 
 -13  -3  -9   -0.41    0.71 
 -12  -3  -9    7.89    1.00 
 -11  -3  -9    0.18    0.60 
 -10  -3  -9    0.43    0.54 
  -9  -3  -9    1.88    0.53 
  -8  -3  -9   83.53    2.19 
  -7  -3  -9   22.79    1.26 
  -6  -3  -9    0.03    0.34 
  -5  -3  -9    4.16    0.40 
  -4  -3  -9   42.13    2.35 
  -3  -3  -9    0.82    0.36 
  -2  -3  -9    2.83    0.34 
  -1  -3  -9   20.89    0.64 
   0  -3  -9   89.49    1.29 
   1  -3  -9    0.40    0.26 
   2  -3  -9    0.89    0.44 
   3  -3  -9    0.56    0.51 
   4  -3  -9   21.09    1.09 
   5  -3  -9    0.25    0.56 
 -14  -2  -9    2.87    0.98 
 -13  -2  -9    3.33    0.82 
 -12  -2  -9    0.20    0.65 
 -11  -2  -9    3.49    0.77 
 -10  -2  -9   10.85    1.01 
  -9  -2  -9    2.40    0.62 
  -8  -2  -9   -0.09    0.52 
  -7  -2  -9   59.61    3.61 
  -6  -2  -9   11.76    0.60 
  -5  -2  -9  108.20   12.36 
  -4  -2  -9   22.02    0.73 
  -3  -2  -9   28.81    1.26 
  -2  -2  -9   20.84    0.84 
  -1  -2  -9   31.51    0.67 
   0  -2  -9  171.84    4.63 
   1  -2  -9   11.93    0.54 
   2  -2  -9    2.37    0.31 
   3  -2  -9    0.80    0.32 
   4  -2  -9    9.03    1.65 
   5  -2  -9    0.25    0.33 
   6  -2  -9   12.10    0.67 
 -14  -1  -9    0.72    0.70 
 -13  -1  -9   -0.20    0.56 
 -12  -1  -9   -0.27    0.49 
 -11  -1  -9    0.94    0.56 
 -10  -1  -9    0.53    0.49 
  -9  -1  -9    2.41    0.55 
  -8  -1  -9    2.41    0.41 
  -7  -1  -9   17.65    1.12 
  -6  -1  -9   22.51    0.99 
  -5  -1  -9  288.01    3.92 
  -4  -1  -9    8.86    0.41 
  -3  -1  -9   13.81    0.52 
  -2  -1  -9    3.56    0.27 
  -1  -1  -9  153.11    4.16 
   0  -1  -9   63.01    1.04 
   1  -1  -9   84.89    0.88 
   2  -1  -9   66.63    0.87 
   3  -1  -9   21.28    2.45 
   4  -1  -9  124.26    1.49 
   5  -1  -9    0.22    0.30 
   6  -1  -9   34.63    1.42 
   7  -1  -9    0.02    0.37 
   8  -1  -9    2.59    0.80 
   9  -1  -9    7.66    0.99 
  10  -1  -9   16.08    1.29 
 -14   0  -9    0.09    0.59 
 -13   0  -9    1.96    0.57 
 -12   0  -9   -0.04    0.47 
 -11   0  -9    0.02    0.51 
 -10   0  -9    0.03    0.48 
  -9   0  -9    0.06    0.29 
  -8   0  -9   -0.10    0.20 
  -7   0  -9    0.09    0.26 
  -6   0  -9   -0.06    0.22 
  -5   0  -9    6.83    0.37 
  -4   0  -9    0.20    0.24 
  -3   0  -9    3.86    0.25 
  -2   0  -9    0.03    0.17 
  -1   0  -9   63.72    2.10 
   0   0  -9    0.31    0.11 
   1   0  -9   21.46    1.91 
   2   0  -9    0.31    0.22 
   3   0  -9  847.56    4.43 
   4   0  -9    0.50    0.32 
   5   0  -9    0.86    0.35 
   6   0  -9   -0.24    0.33 
   7   0  -9  120.56    7.04 
   8   0  -9    0.48    0.71 
   9   0  -9    1.94    0.85 
  10   0  -9   -0.80    0.71 
  11   0  -9    1.54    0.80 
  12   0  -9    0.61    0.79 
 -14   1  -9    1.23    0.65 
 -13   1  -9    0.29    0.52 
 -12   1  -9    0.29    0.50 
 -11   1  -9    1.37    0.55 
 -10   1  -9   -0.26    0.52 
  -9   1  -9    2.09    0.35 
  -8   1  -9    1.26    0.31 
  -7   1  -9   14.61    0.67 
  -6   1  -9   20.41    1.20 
  -5   1  -9  281.55    9.39 
  -4   1  -9    8.86    0.37 
  -3   1  -9   13.32    0.38 
  -2   1  -9    3.61    0.22 
  -1   1  -9  140.34    2.60 
   0   1  -9   56.06    0.93 
   1   1  -9   77.18    1.11 
   2   1  -9   65.51    2.53 
   3   1  -9   28.96    0.62 
   4   1  -9  113.01    2.08 
   5   1  -9    0.11    0.30 
   6   1  -9   37.79    0.89 
   7   1  -9   -0.35    0.91 
   8   1  -9    2.31    0.89 
   9   1  -9    7.55    1.04 
  10   1  -9   18.32    1.43 
  11   1  -9    6.92    0.97 
  12   1  -9    1.80    0.94 
  13   1  -9    0.91    0.90 
 -14   2  -9    3.11    0.79 
 -13   2  -9    2.57    0.60 
 -12   2  -9    0.37    0.40 
 -11   2  -9    2.47    0.52 
 -10   2  -9    8.38    0.50 
  -9   2  -9    2.09    0.36 
  -8   2  -9   -0.41    0.28 
  -7   2  -9   38.40    0.77 
  -6   2  -9    8.70    0.40 
  -5   2  -9  115.82    1.74 
  -4   2  -9   18.65    0.60 
  -3   2  -9   27.76    0.73 
  -2   2  -9   18.33    0.37 
  -1   2  -9   30.94    0.89 
   0   2  -9  162.13    2.02 
   1   2  -9   10.28    0.47 
   2   2  -9    1.87    0.22 
   3   2  -9    0.71    0.21 
   4   2  -9   11.58    0.43 
   5   2  -9   -0.09    0.29 
   6   2  -9   10.62    0.96 
   7   2  -9    4.18    1.03 
   8   2  -9    8.27    1.32 
   9   2  -9   31.73    1.76 
  10   2  -9    0.47    0.80 
  11   2  -9    5.59    1.00 
  12   2  -9    3.93    1.02 
  13   2  -9   -0.25    0.86 
  14   2  -9    1.33    1.08 
 -13   3  -9    0.34    0.50 
 -12   3  -9    6.34    0.69 
 -11   3  -9   -0.01    0.33 
 -10   3  -9    0.00    0.29 
  -9   3  -9    1.32    0.33 
  -8   3  -9   65.42    1.05 
  -7   3  -9   16.38    0.55 
  -6   3  -9   -0.02    0.22 
  -5   3  -9    4.20    0.30 
  -4   3  -9   33.07    1.08 
  -3   3  -9    0.24    0.21 
  -2   3  -9    2.79    0.24 
  -1   3  -9   17.47    0.35 
   0   3  -9   96.28    1.17 
   1   3  -9    0.59    0.31 
   2   3  -9    0.40    0.26 
   3   3  -9    0.50    0.21 
   4   3  -9   17.70    0.67 
   5   3  -9    0.82    0.65 
   6   3  -9   30.89    1.51 
   7   3  -9    6.23    1.11 
   8   3  -9   18.24    1.45 
   9   3  -9   36.61    2.09 
  10   3  -9    9.20    1.29 
  11   3  -9    4.67    1.06 
  12   3  -9    1.79    0.98 
  13   3  -9    0.67    0.99 
 -11   4  -9    1.83    0.54 
 -10   4  -9    0.23    0.29 
  -9   4  -9    0.57    0.32 
  -8   4  -9   23.72    0.66 
  -7   4  -9   15.18    0.52 
  -6   4  -9   13.24    0.60 
  -5   4  -9    0.18    0.22 
  -4   4  -9   23.39    0.69 
  -3   4  -9   21.44    0.81 
  -2   4  -9   69.72    0.90 
  -1   4  -9   87.16    0.98 
   0   4  -9  133.47    4.91 
   1   4  -9    6.95    0.55 
   2   4  -9    0.26    0.27 
   3   4  -9   11.45    0.54 
   4   4  -9    2.23    0.27 
   5   4  -9    1.52    0.74 
   6   4  -9    7.99    1.12 
   7   4  -9   -0.43    0.93 
   8   4  -9   46.25    2.19 
   9   4  -9   18.65    1.70 
  10   4  -9    7.92    1.36 
  11   4  -9    2.29    1.08 
  12   4  -9    4.21    1.26 
  13   4  -9    0.00    1.23 
 -12   5  -9   -0.20    0.51 
 -11   5  -9    0.28    0.46 
 -10   5  -9    0.40    0.41 
  -9   5  -9    0.96    0.45 
  -8   5  -9    0.04    0.44 
  -7   5  -9   -0.32    0.47 
  -6   5  -9    2.00    0.58 
  -5   5  -9   22.88    1.15 
  -4   5  -9   11.34    0.88 
  -3   5  -9    2.09    0.58 
  -2   5  -9    0.92    0.52 
  -1   5  -9   49.27    1.52 
   0   5  -9    3.02    0.50 
   1   5  -9    0.69    0.36 
   2   5  -9    1.10    0.37 
   3   5  -9   10.56    0.48 
   4   5  -9    7.14    0.88 
   5   5  -9   21.11    1.37 
   6   5  -9   44.86    2.07 
   7   5  -9   16.28    1.55 
   8   5  -9    1.55    1.00 
   9   5  -9    6.77    1.29 
  10   5  -9    0.33    1.21 
  11   5  -9    2.06    1.24 
 -12   6  -9    0.05    0.53 
 -11   6  -9    0.78    0.46 
 -10   6  -9    0.38    0.43 
  -9   6  -9    0.59    0.44 
  -8   6  -9    0.09    0.32 
  -7   6  -9    1.99    0.52 
  -6   6  -9    2.62    0.53 
  -5   6  -9    5.48    0.60 
  -4   6  -9    5.57    0.65 
  -3   6  -9   19.93    1.01 
  -2   6  -9    2.13    0.53 
  -1   6  -9    3.38    0.58 
   0   6  -9    3.98    0.60 
   1   6  -9    7.75    0.69 
   2   6  -9    9.14    0.62 
   3   6  -9    6.11    0.83 
   4   6  -9    8.30    1.00 
   5   6  -9   -0.54    0.71 
   6   6  -9    0.01    0.76 
   7   6  -9    1.85    1.01 
   8   6  -9    0.65    1.08 
   9   6  -9    3.96    1.24 
  10   6  -9    1.24    1.34 
  11   6  -9    0.28    1.42 
  12   6  -9    1.06    1.65 
 -10   7  -9    0.29    0.44 
  -9   7  -9   -0.15    0.39 
  -8   7  -9    0.78    0.42 
  -7   7  -9    0.74    0.40 
  -6   7  -9    0.93    0.35 
  -5   7  -9    8.43    0.64 
  -4   7  -9    1.85    0.43 
  -3   7  -9    2.85    0.48 
  -2   7  -9    6.57    0.61 
  -1   7  -9    1.21    0.44 
   0   7  -9    0.36    0.45 
   1   7  -9   11.85    0.80 
   2   7  -9   14.11    0.79 
   3   7  -9    0.31    0.55 
   4   7  -9    1.47    0.71 
   5   7  -9    0.71    0.84 
   6   7  -9   10.95    1.22 
   7   7  -9    0.08    0.92 
   8   7  -9   -0.23    0.95 
   9   7  -9   -0.33    0.97 
  10   7  -9    2.47    1.81 
  11   7  -9   -0.12    1.92 
  -8   8  -9    0.10    0.38 
  -7   8  -9   -0.07    0.27 
  -6   8  -9    0.20    0.26 
  -5   8  -9    0.53    0.28 
  -4   8  -9    0.23    0.28 
  -3   8  -9    0.14    0.30 
  -2   8  -9    0.14    0.29 
  -1   8  -9    0.89    0.33 
   0   8  -9    3.27    0.48 
   1   8  -9    0.03    0.38 
   3   8  -9    0.58    0.54 
   4   8  -9    0.55    0.67 
   5   8  -9   -0.17    0.77 
   6   8  -9    0.16    0.75 
   8   8  -9    0.54    1.13 
   9   8  -9    1.25    1.32 
  -6   9  -9    0.07    0.25 
  -5   9  -9   -0.09    0.22 
  -4   9  -9   -0.11    0.20 
  -3   9  -9    0.12    0.24 
  -2   9  -9   -0.04    0.24 
  -1   9  -9    0.71    0.30 
   0   9  -9   -0.27    0.30 
   2   9  -9    2.46    0.67 
   3   9  -9    0.33    0.60 
   4   9  -9    0.51    0.70 
   5   9  -9    0.01    0.77 
   6   9  -9    0.05    0.92 
   7   9  -9    0.76    1.28 
  -3  10  -9   -0.06    0.21 
  -2  10  -9    0.12    0.23 
  -1  10  -9    0.07    0.22 
  -3 -10  -8   -0.06    1.18 
  -2 -10  -8    6.07    1.57 
  -1 -10  -8    0.24    1.21 
  -6  -9  -8   -0.08    0.93 
  -5  -9  -8    0.06    0.84 
  -4  -9  -8   -1.29    0.97 
  -3  -9  -8    0.12    0.97 
  -2  -9  -8   -0.14    0.90 
  -1  -9  -8   -0.08    1.02 
   0  -9  -8    0.84    1.12 
  -8  -8  -8   -0.17    0.87 
  -7  -8  -8    0.73    0.78 
  -6  -8  -8    0.87    0.94 
  -5  -8  -8    0.16    0.79 
  -4  -8  -8   -0.51    0.70 
  -3  -8  -8    2.14    1.04 
  -2  -8  -8   -0.28    0.93 
  -1  -8  -8   -0.13    1.03 
   0  -8  -8    3.50    1.11 
 -10  -7  -8    1.76    1.13 
  -9  -7  -8    2.82    0.99 
  -8  -7  -8    0.34    0.89 
  -7  -7  -8   -0.28    0.64 
  -6  -7  -8    0.34    0.74 
  -5  -7  -8    3.14    0.85 
  -4  -7  -8    2.70    0.89 
  -3  -7  -8    7.84    1.07 
  -2  -7  -8   21.89    1.66 
  -1  -7  -8   23.00    1.73 
   0  -7  -8   16.73    1.69 
   1  -7  -8    6.50    1.27 
 -11  -6  -8    0.28    0.79 
 -10  -6  -8    1.08    0.70 
  -9  -6  -8    5.71    0.85 
  -8  -6  -8   -0.09    0.57 
  -7  -6  -8    0.80    0.66 
  -6  -6  -8   20.61    1.26 
  -5  -6  -8    8.03    0.91 
  -4  -6  -8    0.50    0.32 
  -3  -6  -8    7.20    0.71 
  -2  -6  -8    1.40    0.58 
  -1  -6  -8    1.65    0.53 
   0  -6  -8    1.75    1.02 
   1  -6  -8   35.66    1.86 
 -12  -5  -8    0.02    0.85 
 -11  -5  -8    0.25    0.71 
 -10  -5  -8    1.21    0.69 
  -9  -5  -8    3.70    0.80 
  -8  -5  -8   23.24    1.38 
  -7  -5  -8    1.03    0.60 
  -6  -5  -8    0.57    0.61 
  -5  -5  -8   28.92    1.02 
  -4  -5  -8   37.28    1.47 
  -3  -5  -8   21.52    1.15 
  -2  -5  -8    0.69    0.47 
  -1  -5  -8    3.87    0.57 
   0  -5  -8   14.66    0.79 
   1  -5  -8    7.10    0.61 
   2  -5  -8    1.19    0.70 
 -13  -4  -8    8.77    1.28 
 -12  -4  -8    1.77    0.78 
 -11  -4  -8    0.66    0.67 
 -10  -4  -8   -0.14    0.67 
  -9  -4  -8   12.64    1.13 
  -8  -4  -8   12.74    0.99 
  -7  -4  -8    0.54    0.60 
  -6  -4  -8   27.02    1.30 
  -5  -4  -8   10.27    0.79 
  -4  -4  -8    7.36    1.71 
  -3  -4  -8    4.93    0.44 
  -2  -4  -8   46.69    1.09 
  -1  -4  -8   60.26    1.17 
   0  -4  -8    5.30    0.54 
   1  -4  -8   19.16    0.75 
   2  -4  -8   38.70    1.43 
   3  -4  -8    3.69    0.63 
 -13  -3  -8   -0.17    0.72 
 -12  -3  -8    1.03    0.71 
 -11  -3  -8    4.12    0.79 
 -10  -3  -8    0.50    0.59 
  -9  -3  -8    5.11    0.78 
  -8  -3  -8    1.61    0.61 
  -7  -3  -8    4.19    0.69 
  -6  -3  -8    2.21    0.37 
  -5  -3  -8    6.88    0.47 
  -4  -3  -8    3.67    0.45 
  -3  -3  -8  427.69    3.06 
  -2  -3  -8    0.09    0.32 
  -1  -3  -8  241.26    2.21 
   0  -3  -8    0.56    0.31 
   1  -3  -8   71.95    1.20 
   2  -3  -8   70.38    1.73 
   3  -3  -8   39.89    1.34 
   4  -3  -8   10.36    0.81 
   5  -3  -8   51.36    1.71 
 -14  -2  -8   -0.07    0.89 
 -13  -2  -8    3.45    0.84 
 -12  -2  -8   -0.04    0.69 
 -11  -2  -8    0.68    0.61 
 -10  -2  -8    0.55    0.57 
  -9  -2  -8   12.22    1.01 
  -8  -2  -8    0.08    0.49 
  -7  -2  -8    1.07    0.40 
  -6  -2  -8  223.75    9.52 
  -5  -2  -8   59.56    0.98 
  -4  -2  -8  100.18    2.31 
  -3  -2  -8   98.22    3.18 
  -2  -2  -8  113.14    1.48 
  -1  -2  -8   46.64    0.83 
   0  -2  -8   18.20    0.49 
   1  -2  -8   41.34    1.91 
   2  -2  -8  144.87    4.46 
   3  -2  -8    0.21    0.28 
   4  -2  -8   21.27    2.41 
   5  -2  -8   94.26    1.41 
   6  -2  -8   17.50    1.02 
 -14  -1  -8    1.20    0.71 
 -13  -1  -8    0.20    0.52 
 -12  -1  -8    2.58    0.70 
 -11  -1  -8    9.15    0.90 
 -10  -1  -8    0.07    0.50 
  -9  -1  -8    1.56    0.56 
  -8  -1  -8   -0.01    0.32 
  -7  -1  -8    0.56    0.29 
  -6  -1  -8    8.07    0.41 
  -5  -1  -8  180.83    4.08 
  -4  -1  -8  237.25    4.41 
  -3  -1  -8  101.24    1.24 
  -2  -1  -8    7.54    0.32 
  -1  -1  -8   41.27    0.81 
   0  -1  -8   15.45    0.30 
   1  -1  -8   19.44    0.43 
   2  -1  -8  144.07    2.94 
   3  -1  -8    5.33    0.38 
   4  -1  -8    9.11    0.47 
   5  -1  -8    3.23    0.41 
   6  -1  -8    5.77    0.48 
   7  -1  -8   48.97    1.63 
   8  -1  -8   24.30    1.33 
   9  -1  -8   11.33    1.02 
 -14   0  -8    1.88    0.66 
 -13   0  -8   -0.10    0.52 
 -12   0  -8    3.01    0.65 
 -11   0  -8   -0.28    0.49 
 -10   0  -8    0.45    0.48 
  -9   0  -8    0.09    0.46 
  -8   0  -8   11.47    0.49 
  -7   0  -8   -0.21    0.19 
  -6   0  -8    9.42    0.41 
  -5   0  -8    0.16    0.22 
  -4   0  -8    0.26    0.21 
  -3   0  -8   -0.11    0.18 
  -2   0  -8  132.25    1.20 
  -1   0  -8    0.05    0.16 
   0   0  -8  293.38    9.80 
   1   0  -8   -0.12    0.26 
   2   0  -8  477.47    7.29 
   3   0  -8    0.11    0.25 
   4   0  -8   79.59    1.06 
   5   0  -8    0.34    0.33 
   6   0  -8   51.99    1.66 
   7   0  -8    0.35    0.34 
   8   0  -8   -0.51    0.67 
   9   0  -8   -0.69    0.52 
  10   0  -8    0.20    0.77 
  11   0  -8    0.09    0.70 
 -14   1  -8    1.53    0.65 
 -13   1  -8    0.30    0.51 
 -12   1  -8    2.05    0.61 
 -11   1  -8    6.90    0.73 
 -10   1  -8   -0.09    0.38 
  -9   1  -8    0.63    0.26 
  -8   1  -8   -0.26    0.23 
  -7   1  -8    2.23    0.34 
  -6   1  -8    7.53    0.39 
  -5   1  -8  171.41    4.11 
  -4   1  -8  196.13    7.11 
  -3   1  -8   95.39    2.88 
  -2   1  -8    8.04    0.28 
  -1   1  -8   37.44    0.42 
   0   1  -8   14.30    0.48 
   1   1  -8   17.99    0.53 
   2   1  -8  134.11    3.21 
   3   1  -8    5.44    0.32 
   4   1  -8   10.17    0.44 
   5   1  -8    2.73    0.37 
   6   1  -8    6.18    0.49 
   7   1  -8   51.93    1.81 
   8   1  -8   23.95    1.38 
   9   1  -8   13.48    1.21 
  10   1  -8    6.87    1.10 
  11   1  -8    6.80    1.01 
  12   1  -8    0.85    0.81 
  13   1  -8    1.28    0.84 
 -14   2  -8   -0.01    0.59 
 -13   2  -8    2.82    0.54 
 -12   2  -8    0.07    0.45 
 -11   2  -8    0.78    0.48 
 -10   2  -8    0.01    0.30 
  -9   2  -8    7.87    0.44 
  -8   2  -8   -0.27    0.25 
  -7   2  -8    0.67    0.26 
  -6   2  -8  168.64    4.42 
  -5   2  -8   56.26    1.82 
  -4   2  -8   88.86    2.68 
  -3   2  -8   87.76    1.66 
  -2   2  -8   92.54    1.33 
  -1   2  -8   39.54    0.43 
   0   2  -8   19.68    0.65 
   1   2  -8   36.94    0.83 
   2   2  -8  104.34    2.90 
   3   2  -8    0.20    0.18 
   4   2  -8   20.87    0.53 
   5   2  -8   94.84    1.19 
   6   2  -8   16.63    1.13 
   7   2  -8   10.59    1.19 
   8   2  -8   18.55    1.48 
   9   2  -8    0.76    0.68 
  10   2  -8    1.82    0.86 
  11   2  -8    6.81    1.08 
  12   2  -8    0.70    0.79 
  13   2  -8    1.25    0.88 
  14   2  -8    0.19    0.91 
 -14   3  -8    1.11    0.64 
 -13   3  -8    0.37    0.58 
 -12   3  -8    0.90    0.48 
 -11   3  -8    3.07    0.38 
 -10   3  -8    0.12    0.31 
  -9   3  -8    3.66    0.37 
  -8   3  -8    1.29    0.31 
  -7   3  -8    3.16    0.32 
  -6   3  -8    1.60    0.25 
  -5   3  -8    4.97    0.29 
  -4   3  -8    4.49    0.29 
  -3   3  -8  380.89    2.40 
  -2   3  -8   -0.08    0.16 
  -1   3  -8  236.44    1.62 
   0   3  -8    1.00    0.25 
   1   3  -8   71.20    1.31 
   2   3  -8   57.75    1.06 
   3   3  -8   35.83    1.37 
   4   3  -8    7.20    0.33 
   5   3  -8   58.06    1.89 
   6   3  -8    5.63    0.83 
   7   3  -8   64.21    2.19 
   8   3  -8    1.32    1.06 
   9   3  -8   51.74    2.18 
  10   3  -8    0.77    0.88 
  11   3  -8   10.31    1.30 
  12   3  -8   -0.32    0.82 
  13   3  -8   -0.08    0.91 
 -13   4  -8    7.13    0.74 
 -12   4  -8    1.60    0.55 
 -11   4  -8    0.46    0.31 
 -10   4  -8   -0.13    0.30 
  -9   4  -8    9.02    0.47 
  -8   4  -8    9.66    0.46 
  -7   4  -8    0.40    0.27 
  -6   4  -8   24.40    0.64 
  -5   4  -8    8.06    0.43 
  -4   4  -8    7.98    0.38 
  -3   4  -8    4.27    0.30 
  -2   4  -8   42.73    0.75 
  -1   4  -8   62.69    0.89 
   0   4  -8    6.14    0.47 
   1   4  -8   18.26    0.78 
   2   4  -8   34.87    0.97 
   3   4  -8    2.94    0.30 
   4   4  -8   13.16    0.50 
   5   4  -8   -0.35    0.62 
   6   4  -8   33.97    1.67 
   7   4  -8    3.02    1.12 
   8   4  -8    0.50    0.98 
   9   4  -8    0.69    1.11 
  10   4  -8    0.80    1.04 
  11   4  -8    6.89    1.32 
  12   4  -8    1.00    1.01 
  13   4  -8    1.09    1.25 
 -12   5  -8    0.29    0.49 
 -11   5  -8    0.33    0.46 
 -10   5  -8    0.48    0.44 
  -9   5  -8    2.29    0.52 
  -8   5  -8   18.61    0.63 
  -7   5  -8    1.09    0.29 
  -6   5  -8    0.40    0.26 
  -5   5  -8   19.33    0.66 
  -4   5  -8   32.82    0.78 
  -3   5  -8   16.93    0.72 
  -2   5  -8    0.55    0.31 
  -1   5  -8    3.07    0.35 
   0   5  -8   17.92    1.85 
   1   5  -8    6.56    0.60 
   2   5  -8    0.92    0.35 
   3   5  -8    3.17    0.34 
   4   5  -8   32.33    1.60 
   5   5  -8    7.52    1.00 
   6   5  -8   18.41    1.47 
   7   5  -8   13.97    1.36 
   8   5  -8    2.07    0.91 
   9   5  -8   -0.43    0.85 
  10   5  -8   11.40    1.71 
  11   5  -8    0.11    1.14 
  12   5  -8    1.68    1.23 
 -12   6  -8    0.36    0.47 
 -11   6  -8    0.33    0.42 
 -10   6  -8    0.54    0.41 
  -9   6  -8    3.41    0.54 
  -8   6  -8   -0.20    0.30 
  -7   6  -8    0.44    0.34 
  -6   6  -8   14.57    0.86 
  -5   6  -8    6.60    0.70 
  -4   6  -8    0.53    0.55 
  -3   6  -8    5.96    0.75 
  -2   6  -8    0.76    0.56 
  -1   6  -8    1.93    0.54 
   0   6  -8    1.56    0.41 
   1   6  -8   21.77    0.94 
   2   6  -8    3.76    0.54 
   3   6  -8    8.98    0.91 
   4   6  -8   -0.23    0.71 
   5   6  -8    0.51    0.76 
   6   6  -8    0.80    0.83 
   7   6  -8    5.13    1.22 
   8   6  -8    2.93    1.07 
   9   6  -8   -0.13    0.96 
  10   6  -8    2.50    1.42 
  11   6  -8    0.58    1.29 
  12   6  -8    0.47    1.39 
 -10   7  -8    0.58    0.42 
  -9   7  -8    1.51    0.41 
  -8   7  -8   -0.08    0.28 
  -7   7  -8    0.04    0.35 
  -6   7  -8    0.34    0.30 
  -5   7  -8    1.61    0.48 
  -4   7  -8    2.29    0.55 
  -3   7  -8    5.74    0.65 
  -2   7  -8   16.56    1.03 
  -1   7  -8   14.87    0.96 
   0   7  -8    9.87    0.85 
   1   7  -8    2.53    0.44 
   2   7  -8   52.86    1.39 
   3   7  -8    5.25    0.80 
   4   7  -8    0.91    0.74 
   5   7  -8    1.97    0.90 
   6   7  -8    0.26    0.81 
   7   7  -8    1.08    1.08 
   8   7  -8    8.12    1.45 
   9   7  -8    2.03    1.16 
  11   7  -8   -0.06    1.67 
  -9   8  -8    0.18    0.33 
  -8   8  -8    0.09    0.22 
  -7   8  -8    0.33    0.31 
  -6   8  -8    0.42    0.34 
  -5   8  -8    0.01    0.31 
  -4   8  -8    0.01    0.33 
  -3   8  -8    0.94    0.38 
  -2   8  -8   -0.19    0.37 
  -1   8  -8   -0.22    0.39 
   0   8  -8    1.22    0.43 
   1   8  -8    0.01    0.30 
   3   8  -8    5.35    0.81 
   4   8  -8   -0.42    0.67 
   5   8  -8    5.28    0.98 
   6   8  -8    1.16    0.85 
   7   8  -8    2.12    1.11 
   8   8  -8    0.64    1.12 
   9   8  -8    0.85    1.19 
  10   8  -8    0.70    2.02 
  -6   9  -8    0.00    0.26 
  -5   9  -8    0.03    0.28 
  -4   9  -8    0.07    0.26 
  -3   9  -8    0.07    0.30 
  -2   9  -8   -0.20    0.30 
  -1   9  -8   -0.01    0.28 
   0   9  -8    0.18    0.26 
   2   9  -8    1.02    0.47 
   3   9  -8    1.53    0.66 
   4   9  -8    0.39    0.71 
   5   9  -8    0.46    0.74 
  -4  10  -8    0.27    0.26 
  -3  10  -8   -0.09    0.23 
  -2  10  -8    1.27    0.30 
  -1  10  -8    0.02    0.20 
  -4 -10  -7    0.00    1.22 
  -3 -10  -7   -1.03    1.11 
  -2 -10  -7   -0.14    1.24 
  -1 -10  -7    1.06    1.24 
  -7  -9  -7    0.47    1.07 
  -6  -9  -7    0.79    1.03 
  -5  -9  -7   -0.36    0.85 
  -4  -9  -7    0.92    1.02 
  -3  -9  -7    0.06    0.89 
  -2  -9  -7   -0.95    0.99 
  -1  -9  -7   -0.31    1.03 
   0  -9  -7    2.33    1.25 
  -9  -8  -7   -0.19    0.94 
  -8  -8  -7    0.40    0.86 
  -7  -8  -7   -0.10    0.78 
  -6  -8  -7    7.67    1.17 
  -5  -8  -7   -0.09    0.76 
  -4  -8  -7    0.20    0.72 
  -3  -8  -7    0.64    1.03 
  -2  -8  -7    1.13    1.00 
  -1  -8  -7    0.83    1.13 
   0  -8  -7    1.02    1.02 
 -10  -7  -7    3.40    1.17 
  -9  -7  -7    0.54    0.96 
  -8  -7  -7    3.21    1.02 
  -7  -7  -7   -0.38    0.66 
  -6  -7  -7    0.92    0.76 
  -5  -7  -7    2.52    0.68 
  -4  -7  -7    1.47    0.87 
  -3  -7  -7   15.47    1.28 
  -2  -7  -7    7.49    1.35 
  -1  -7  -7    5.13    1.24 
   0  -7  -7   51.22    2.41 
   1  -7  -7    0.66    1.18 
 -11  -6  -7    1.05    1.04 
 -10  -6  -7    0.21    0.85 
  -9  -6  -7    1.23    0.77 
  -8  -6  -7    0.50    0.63 
  -7  -6  -7    0.54    0.77 
  -6  -6  -7    0.72    0.87 
  -5  -6  -7    5.07    0.87 
  -4  -6  -7   25.06    1.42 
  -3  -6  -7    3.59    0.61 
  -2  -6  -7   40.93    1.81 
  -1  -6  -7   -0.77    0.61 
   0  -6  -7    2.97    1.18 
   1  -6  -7   30.48    1.75 
 -12  -5  -7    0.01    0.80 
 -11  -5  -7    3.94    0.93 
 -10  -5  -7    1.33    0.69 
  -9  -5  -7   -0.25    0.59 
  -8  -5  -7    2.40    0.70 
  -7  -5  -7   34.34    1.52 
  -6  -5  -7    3.74    0.69 
  -5  -5  -7    0.92    0.46 
  -4  -5  -7   30.16    0.98 
  -3  -5  -7   65.68    1.42 
  -2  -5  -7   14.37    0.76 
  -1  -5  -7   46.91    1.39 
   0  -5  -7   52.73    1.33 
   1  -5  -7   30.81    1.04 
 -13  -4  -7    0.95    0.93 
 -12  -4  -7    1.18    0.73 
 -11  -4  -7    1.15    0.66 
 -10  -4  -7    7.71    1.01 
  -9  -4  -7   23.95    1.49 
  -8  -4  -7    4.58    0.80 
  -7  -4  -7    0.20    0.58 
  -6  -4  -7   59.71    1.76 
  -5  -4  -7    2.28    0.40 
  -4  -4  -7   21.72    0.73 
  -3  -4  -7    1.03    0.35 
  -2  -4  -7   69.59    1.22 
  -1  -4  -7    1.89    0.43 
   0  -4  -7  187.17    3.66 
   1  -4  -7    0.48    0.35 
   2  -4  -7  146.24    2.76 
   3  -4  -7   64.62    1.87 
 -13  -3  -7    1.32    0.88 
 -12  -3  -7   -0.37    0.64 
 -11  -3  -7   -0.44    0.56 
 -10  -3  -7    6.93    0.81 
  -9  -3  -7    0.93    0.61 
  -8  -3  -7    8.06    0.86 
  -7  -3  -7   14.19    0.94 
  -6  -3  -7    0.46    0.35 
  -5  -3  -7   26.13    0.76 
  -4  -3  -7    9.57    0.46 
  -3  -3  -7    9.82    0.50 
  -2  -3  -7   18.40    0.62 
  -1  -3  -7   20.73    0.76 
   0  -3  -7   14.86    0.56 
   1  -3  -7    0.35    0.29 
   2  -3  -7   34.69    1.27 
   3  -3  -7  139.69    2.51 
   4  -3  -7    0.26    0.46 
 -14  -2  -7    0.25    0.81 
 -13  -2  -7    0.92    0.68 
 -12  -2  -7    6.01    0.83 
 -11  -2  -7    0.66    0.55 
 -10  -2  -7    0.21    0.52 
  -9  -2  -7    6.46    0.78 
  -8  -2  -7    1.53    0.61 
  -7  -2  -7    5.86    0.50 
  -6  -2  -7   67.66    3.14 
  -5  -2  -7  151.84    6.21 
  -4  -2  -7   28.74    1.02 
  -3  -2  -7    8.87    0.41 
  -2  -2  -7    0.81    0.38 
  -1  -2  -7   16.85    0.49 
   0  -2  -7   80.07    1.52 
   1  -2  -7   25.76    0.87 
   2  -2  -7   33.84    0.96 
   3  -2  -7   30.19    0.69 
   4  -2  -7    2.56    0.36 
   5  -2  -7   -0.24    0.42 
 -14  -1  -7    0.38    0.64 
 -13  -1  -7    2.72    0.75 
 -12  -1  -7    0.63    0.60 
 -11  -1  -7    1.71    0.58 
 -10  -1  -7   -0.29    0.47 
  -9  -1  -7   -0.11    0.45 
  -8  -1  -7    3.77    0.57 
  -7  -1  -7   16.92    0.56 
  -6  -1  -7  133.37    3.20 
  -5  -1  -7   40.32    4.03 
  -4  -1  -7  234.23    1.77 
  -3  -1  -7   18.26    0.48 
  -2  -1  -7    1.88    0.23 
  -1  -1  -7    0.39    0.21 
   0  -1  -7   19.12    0.46 
   1  -1  -7    9.46    0.33 
   2  -1  -7  139.25    1.23 
   3  -1  -7   33.52    0.67 
   4  -1  -7    9.54    0.46 
   5  -1  -7  138.78    1.61 
   6  -1  -7  197.13    4.00 
   7  -1  -7   56.88    1.77 
   8  -1  -7    5.31    0.84 
 -14   0  -7    0.67    0.61 
 -13   0  -7    1.98    0.63 
 -12   0  -7    0.15    0.53 
 -11   0  -7    0.97    0.55 
 -10   0  -7    0.43    0.46 
  -9   0  -7    2.76    0.53 
  -8   0  -7   -0.27    0.24 
  -7   0  -7    0.27    0.24 
  -6   0  -7    0.09    0.18 
  -5   0  -7   94.19    1.07 
  -4   0  -7    0.10    0.19 
  -3   0  -7  637.54    3.66 
  -2   0  -7   -0.02    0.16 
  -1   0  -7  634.49   11.06 
   0   0  -7    0.41    0.21 
   1   0  -7 2132.12   67.34 
   2   0  -7    0.06    0.22 
   3   0  -7   13.88    0.43 
   4   0  -7    0.14    0.28 
   5   0  -7    2.07    0.34 
   6   0  -7    0.07    0.29 
   7   0  -7   16.15    0.96 
   8   0  -7   -0.57    0.65 
   9   0  -7    1.87    0.80 
  10   0  -7   -0.72    0.72 
  11   0  -7    9.89    1.14 
 -14   1  -7    0.35    0.59 
 -13   1  -7    2.46    0.67 
 -12   1  -7    0.16    0.44 
 -11   1  -7    1.16    0.46 
 -10   1  -7    0.04    0.37 
  -9   1  -7   -0.12    0.23 
  -8   1  -7    2.60    0.35 
  -7   1  -7   13.76    0.49 
  -6   1  -7  122.62    1.28 
  -5   1  -7   48.97    0.82 
  -4   1  -7  214.85    4.10 
  -3   1  -7   15.95    0.44 
  -2   1  -7    2.16    0.18 
  -1   1  -7    0.47    0.12 
   0   1  -7   17.07    0.51 
   1   1  -7    7.73    0.34 
   2   1  -7  127.63    4.27 
   3   1  -7   31.34    0.60 
   4   1  -7    9.82    0.41 
   5   1  -7  146.16    1.46 
   6   1  -7  232.70    6.47 
   7   1  -7   54.56    1.73 
   8   1  -7    3.78    0.88 
   9   1  -7   -0.41    0.74 
  10   1  -7    7.15    1.01 
  11   1  -7    5.28    0.97 
  12   1  -7    2.98    0.84 
 -14   2  -7    0.41    0.50 
 -13   2  -7   -0.04    0.47 
 -12   2  -7    4.73    0.66 
 -11   2  -7    0.40    0.52 
 -10   2  -7    0.22    0.30 
  -9   2  -7    4.95    0.40 
  -8   2  -7    1.58    0.30 
  -7   2  -7    4.19    0.32 
  -6   2  -7   48.08    1.24 
  -5   2  -7  119.95    3.73 
  -4   2  -7   26.93    0.64 
  -3   2  -7    8.20    0.30 
  -2   2  -7    0.34    0.14 
  -1   2  -7   16.20    0.28 
   0   2  -7   80.46    1.29 
   1   2  -7   23.29    0.67 
   2   2  -7   26.48    1.09 
   3   2  -7   22.66    0.84 
   4   2  -7    2.47    0.26 
   5   2  -7    0.32    0.29 
   6   2  -7   49.41    1.69 
   7   2  -7    3.68    0.85 
   8   2  -7   50.00    1.88 
   9   2  -7   12.55    1.19 
  10   2  -7    2.94    0.86 
  11   2  -7    0.56    0.66 
  12   2  -7   -0.72    0.72 
  13   2  -7    1.77    0.85 
 -14   3  -7   13.85    1.07 
 -13   3  -7    1.26    0.55 
 -12   3  -7   -0.19    0.44 
 -11   3  -7    0.27    0.44 
 -10   3  -7    5.71    0.44 
  -9   3  -7    0.46    0.29 
  -8   3  -7    5.82    0.41 
  -7   3  -7   11.93    0.48 
  -6   3  -7    0.26    0.23 
  -5   3  -7   21.65    0.55 
  -4   3  -7    9.74    0.38 
  -3   3  -7    8.35    0.36 
  -2   3  -7   17.09    0.44 
  -1   3  -7   19.46    0.45 
   0   3  -7   19.67    1.42 
   1   3  -7    0.94    0.31 
   2   3  -7   28.23    0.75 
   3   3  -7  132.28    3.39 
   4   3  -7   -0.01    0.18 
   5   3  -7   81.31    2.11 
   6   3  -7   -0.19    0.63 
   7   3  -7    4.62    1.01 
   8   3  -7   48.49    2.09 
   9   3  -7   12.30    1.34 
  10   3  -7    5.49    1.07 
  11   3  -7    5.13    1.07 
  12   3  -7    2.45    0.99 
  13   3  -7    0.46    0.99 
  14   3  -7    2.31    1.18 
 -14   4  -7    0.31    0.64 
 -13   4  -7    0.63    0.54 
 -12   4  -7    1.18    0.50 
 -11   4  -7    1.04    0.33 
 -10   4  -7    4.89    0.40 
  -9   4  -7   15.53    0.59 
  -8   4  -7    3.01    0.34 
  -7   4  -7    0.08    0.28 
  -6   4  -7   49.46    0.90 
  -5   4  -7    1.66    0.30 
  -4   4  -7   16.62    0.47 
  -3   4  -7    1.28    0.28 
  -2   4  -7   66.31    0.95 
  -1   4  -7    1.62    0.28 
   0   4  -7  219.77   16.18 
   1   4  -7    0.94    0.38 
   2   4  -7  129.33    1.85 
   3   4  -7   57.79    1.60 
   4   4  -7   42.09    1.80 
   5   4  -7    2.62    0.67 
   6   4  -7    9.06    1.11 
   7   4  -7    0.80    0.97 
   8   4  -7    3.45    1.06 
   9   4  -7    7.41    1.39 
  10   4  -7   25.31    1.85 
  11   4  -7   12.33    1.48 
  12   4  -7    1.90    1.00 
 -12   5  -7    0.10    0.32 
 -11   5  -7    2.63    0.36 
 -10   5  -7    1.08    0.30 
  -9   5  -7    0.28    0.25 
  -8   5  -7    1.56    0.30 
  -7   5  -7   31.47    1.05 
  -6   5  -7    3.96    0.37 
  -5   5  -7    0.60    0.28 
  -4   5  -7   31.26    0.99 
  -3   5  -7   64.83    2.36 
  -2   5  -7   15.25    0.74 
  -1   5  -7   46.56    1.32 
   0   5  -7   58.14    2.71 
   1   5  -7   20.33    0.80 
   2   5  -7    0.42    0.33 
   3   5  -7    3.41    0.33 
   4   5  -7    1.38    0.71 
   5   5  -7   74.37    2.27 
   6   5  -7    1.65    0.93 
   7   5  -7   15.84    1.44 
   8   5  -7   -0.01    0.83 
   9   5  -7    0.57    1.34 
  10   5  -7    9.10    1.56 
  11   5  -7    2.21    1.17 
  12   5  -7    3.37    1.25 
  13   5  -7    0.27    1.32 
 -12   6  -7   -0.15    0.46 
 -11   6  -7    0.26    0.43 
 -10   6  -7    0.14    0.38 
  -9   6  -7    0.50    0.32 
  -8   6  -7    0.43    0.40 
  -7   6  -7    0.43    0.46 
  -6   6  -7    0.10    0.44 
  -5   6  -7    4.32    0.59 
  -4   6  -7   25.48    1.15 
  -3   6  -7    2.57    0.56 
  -2   6  -7   40.65    1.91 
  -1   6  -7   -0.08    0.33 
   0   6  -7    1.89    0.40 
   1   6  -7   21.12    1.01 
   2   6  -7    8.11    0.53 
   3   6  -7    6.12    0.82 
   4   6  -7    0.76    0.76 
   5   6  -7   -0.59    0.65 
   6   6  -7    0.63    0.82 
   7   6  -7   -0.47    0.83 
   8   6  -7   -0.23    0.91 
   9   6  -7    0.03    0.92 
  10   6  -7   -0.39    1.32 
  11   6  -7   -0.03    1.26 
  12   6  -7   -0.23    1.29 
 -11   7  -7   -0.24    0.40 
 -10   7  -7    1.45    0.37 
  -9   7  -7    0.31    0.31 
  -8   7  -7    1.59    0.45 
  -7   7  -7    0.16    0.37 
  -6   7  -7    0.56    0.37 
  -5   7  -7    1.46    0.44 
  -4   7  -7    0.14    0.41 
  -3   7  -7   10.97    0.79 
  -2   7  -7    3.27    0.57 
  -1   7  -7    1.96    0.52 
   0   7  -7   28.05    1.13 
   1   7  -7    0.22    0.41 
   2   7  -7    0.33    0.40 
   3   7  -7    2.17    0.66 
   4   7  -7   11.46    1.16 
   5   7  -7   10.17    1.17 
   6   7  -7    0.47    0.89 
   7   7  -7    1.52    1.09 
   8   7  -7    0.01    0.97 
   9   7  -7    0.45    1.02 
  10   7  -7    0.83    1.50 
  11   7  -7    2.07    1.59 
  -9   8  -7    0.10    0.29 
  -8   8  -7    0.68    0.37 
  -7   8  -7    0.27    0.32 
  -6   8  -7    3.40    0.43 
  -5   8  -7    0.01    0.26 
  -4   8  -7    0.14    0.29 
  -3   8  -7   -0.08    0.31 
  -2   8  -7    0.47    0.37 
  -1   8  -7    0.05    0.33 
   0   8  -7   -0.08    0.33 
   1   8  -7    0.21    0.33 
   3   8  -7   -0.28    0.56 
   4   8  -7    0.14    0.71 
   5   8  -7    0.36    0.74 
   6   8  -7    5.37    1.11 
   7   8  -7    0.08    1.14 
   8   8  -7    1.20    1.11 
   9   8  -7   -0.06    1.22 
  -7   9  -7    0.17    0.25 
  -6   9  -7    0.23    0.22 
  -5   9  -7    0.22    0.22 
  -4   9  -7    0.25    0.23 
  -3   9  -7    0.17    0.25 
  -2   9  -7   -0.17    0.24 
  -1   9  -7    0.18    0.25 
   0   9  -7    0.72    0.28 
   2   9  -7    0.78    0.48 
   3   9  -7    1.66    0.70 
  -4  10  -7    0.04    0.18 
  -3  10  -7   -0.03    0.19 
  -1  10  -7    0.20    0.20 
  -4 -10  -6   -0.55    1.17 
  -3 -10  -6   -0.94    1.17 
  -2 -10  -6   -0.41    1.35 
  -1 -10  -6   -0.41    1.16 
  -7  -9  -6    1.32    1.13 
  -6  -9  -6    0.61    1.06 
  -5  -9  -6   -0.06    0.89 
  -4  -9  -6   -0.13    1.08 
  -3  -9  -6   -0.13    0.98 
  -2  -9  -6    4.94    1.07 
  -1  -9  -6   -0.21    1.02 
   0  -9  -6    3.10    1.35 
  -9  -8  -6    0.59    0.92 
  -8  -8  -6    0.63    0.85 
  -7  -8  -6    1.23    0.87 
  -6  -8  -6    2.11    0.87 
  -5  -8  -6    3.06    0.93 
  -4  -8  -6   -0.04    0.71 
  -3  -8  -6    2.14    1.07 
  -2  -8  -6    0.93    1.00 
  -1  -8  -6    7.44    1.36 
   0  -8  -6   18.44    1.55 
 -10  -7  -6    0.49    0.95 
  -9  -7  -6    4.24    1.10 
  -8  -7  -6    1.09    0.88 
  -7  -7  -6    4.47    0.76 
  -6  -7  -6    0.62    0.59 
  -5  -7  -6    8.28    1.04 
  -4  -7  -6   11.17    1.25 
  -3  -7  -6    9.71    1.16 
  -2  -7  -6   24.73    1.81 
  -1  -7  -6   10.86    1.52 
   0  -7  -6   26.51    2.14 
   1  -7  -6   -0.23    1.15 
 -11  -6  -6    0.20    0.90 
 -10  -6  -6    1.43    0.87 
  -9  -6  -6   -0.41    0.68 
  -8  -6  -6    1.00    0.70 
  -7  -6  -6    1.11    0.75 
  -6  -6  -6    2.08    0.83 
  -5  -6  -6   -0.19    0.51 
  -4  -6  -6   24.66    1.45 
  -3  -6  -6    9.46    1.15 
  -2  -6  -6    5.14    1.01 
  -1  -6  -6   18.72    1.39 
   0  -6  -6   15.41    1.49 
   1  -6  -6    0.41    1.00 
 -12  -5  -6    2.72    1.06 
 -11  -5  -6    0.34    0.83 
 -10  -5  -6   30.43    1.75 
  -9  -5  -6    0.75    0.58 
  -8  -5  -6    1.11    0.73 
  -7  -5  -6    0.83    0.73 
  -6  -5  -6   13.73    1.01 
  -5  -5  -6    2.09    0.82 
  -4  -5  -6    0.91    0.39 
  -3  -5  -6    1.16    0.37 
  -2  -5  -6  118.49    1.86 
  -1  -5  -6   92.41    2.40 
   0  -5  -6   19.54    0.88 
   1  -5  -6    0.00    0.77 
 -13  -4  -6    0.45    0.89 
 -12  -4  -6    0.56    0.60 
 -11  -4  -6    2.32    0.75 
 -10  -4  -6    0.44    0.63 
  -9  -4  -6    4.51    0.86 
  -8  -4  -6    0.63    0.71 
  -7  -4  -6    0.57    0.61 
  -6  -4  -6    0.74    0.57 
  -5  -4  -6    3.41    0.40 
  -4  -4  -6   15.36    0.59 
  -3  -4  -6    0.33    0.23 
  -2  -4  -6   29.28    0.85 
  -1  -4  -6    7.79    0.54 
   0  -4  -6    0.96    0.43 
   1  -4  -6  107.35    2.53 
   2  -4  -6    1.14    0.55 
 -14  -3  -6    1.50    0.93 
 -13  -3  -6    1.18    0.80 
 -12  -3  -6    0.02    0.63 
 -11  -3  -6    1.28    0.67 
 -10  -3  -6    3.71    0.77 
  -9  -3  -6   15.41    1.12 
  -8  -3  -6   26.19    1.28 
  -7  -3  -6  126.94    2.54 
  -6  -3  -6   15.45    0.60 
  -5  -3  -6    1.41    0.32 
  -4  -3  -6    1.29    0.31 
  -3  -3  -6  183.49   35.38 
  -2  -3  -6  136.23    1.46 
  -1  -3  -6  286.49    5.80 
   0  -3  -6   19.91    0.61 
   1  -3  -6  111.51    1.45 
   2  -3  -6   47.82    1.38 
   3  -3  -6   94.07    2.09 
 -14  -2  -6    0.02    0.76 
 -13  -2  -6    0.05    0.66 
 -12  -2  -6    7.86    0.94 
 -11  -2  -6    4.66    0.80 
 -10  -2  -6    0.16    0.56 
  -9  -2  -6    1.43    0.60 
  -8  -2  -6    1.10    0.49 
  -7  -2  -6    0.86    0.36 
  -6  -2  -6   15.46    0.68 
  -5  -2  -6  181.35    8.92 
  -4  -2  -6  331.29    6.48 
  -3  -2  -6   20.45    0.65 
  -2  -2  -6   98.46    1.13 
  -1  -2  -6   81.24    1.86 
   0  -2  -6  192.42    3.53 
   1  -2  -6   23.39    0.57 
   2  -2  -6   15.22    0.68 
   3  -2  -6   20.21    0.86 
   4  -2  -6    4.65    0.56 
 -14  -1  -6    0.80    0.67 
 -13  -1  -6    6.28    0.90 
 -12  -1  -6    1.87    0.57 
 -11  -1  -6    0.38    0.48 
 -10  -1  -6    5.09    0.68 
  -9  -1  -6    1.33    0.49 
  -8  -1  -6    7.92    0.67 
  -7  -1  -6    0.92    0.27 
  -6  -1  -6    1.30    0.28 
  -5  -1  -6    3.87    0.31 
  -4  -1  -6  175.32    2.17 
  -3  -1  -6  158.19    2.20 
  -2  -1  -6   47.92    0.65 
  -1  -1  -6   62.27    0.95 
   0  -1  -6  253.80    1.93 
   1  -1  -6  579.85    5.89 
   2  -1  -6  229.94   14.59 
   3  -1  -6  346.17    4.94 
   4  -1  -6  253.39    5.15 
   5  -1  -6   91.26    1.71 
   6  -1  -6   61.36    1.69 
   7  -1  -6   82.53    2.03 
   8  -1  -6    5.17    0.85 
 -14   0  -6    1.20    0.66 
 -13   0  -6   -0.05    0.57 
 -12   0  -6   -0.47    0.50 
 -11   0  -6   -0.48    0.47 
 -10   0  -6   11.71    0.85 
  -9   0  -6   -0.08    0.44 
  -8   0  -6    3.99    0.36 
  -7   0  -6    0.10    0.25 
  -6   0  -6   53.99    3.77 
  -5   0  -6    0.38    0.21 
  -4   0  -6  149.89    1.29 
  -3   0  -6    0.25    0.17 
  -2   0  -6  581.47    6.68 
  -1   0  -6    0.28    0.17 
   0   0  -6  928.01    8.97 
   1   0  -6    0.56    0.28 
   2   0  -6  614.05    3.14 
   3   0  -6   -0.19    0.22 
   4   0  -6    6.59    0.38 
   5   0  -6    0.04    0.31 
   6   0  -6   46.95    1.43 
   7   0  -6   -0.07    0.60 
   8   0  -6   10.26    0.93 
   9   0  -6   -0.40    0.70 
  10   0  -6   18.29    1.25 
 -14   1  -6    1.54    0.67 
 -13   1  -6    5.26    0.67 
 -12   1  -6    1.50    0.50 
 -11   1  -6   -0.06    0.46 
 -10   1  -6    5.24    0.62 
  -9   1  -6    1.03    0.31 
  -8   1  -6    5.02    0.93 
  -7   1  -6    0.67    0.22 
  -6   1  -6    1.29    0.25 
  -5   1  -6    3.79    0.28 
  -4   1  -6  162.51    2.82 
  -3   1  -6  147.12    3.00 
  -2   1  -6   42.22    1.10 
  -1   1  -6   52.48    0.54 
   0   1  -6  229.09    2.05 
   1   1  -6  498.24    3.45 
   2   1  -6  268.28   10.38 
   3   1  -6  317.56    6.08 
   4   1  -6  249.79    1.80 
   5   1  -6   91.92    1.17 
   6   1  -6   68.89    1.01 
   7   1  -6   73.20    1.90 
   8   1  -6    4.22    0.78 
   9   1  -6   35.08    1.63 
  10   1  -6    0.41    0.70 
  11   1  -6   20.80    1.43 
  12   1  -6    5.47    0.93 
 -14   2  -6   -0.06    0.51 
 -13   2  -6   -0.14    0.50 
 -12   2  -6    6.79    0.73 
 -11   2  -6    3.12    0.55 
 -10   2  -6   -0.28    0.29 
  -9   2  -6    0.54    0.29 
  -8   2  -6    1.17    0.26 
  -7   2  -6    0.49    0.22 
  -6   2  -6   10.59    0.41 
  -5   2  -6  138.76    2.70 
  -4   2  -6  267.30    7.72 
  -3   2  -6   22.17    0.47 
  -2   2  -6   90.62    0.83 
  -1   2  -6   79.48    0.71 
   0   2  -6  255.13   19.17 
   1   2  -6   20.50    0.57 
   2   2  -6   16.13    0.42 
   3   2  -6   16.61    0.70 
   4   2  -6    3.89    0.27 
   5   2  -6    3.25    0.30 
   6   2  -6    5.93    0.88 
   7   2  -6   24.15    1.39 
   8   2  -6    1.01    0.83 
   9   2  -6   24.13    1.43 
  10   2  -6    2.16    0.83 
  12   2  -6    0.40    0.79 
  13   2  -6    1.85    0.82 
 -14   3  -6    1.71    0.69 
 -13   3  -6    1.03    0.52 
 -12   3  -6    0.92    0.50 
 -11   3  -6    0.75    0.46 
 -10   3  -6    2.48    0.36 
  -9   3  -6   11.03    0.52 
  -8   3  -6   21.59    0.64 
  -7   3  -6   92.62    1.66 
  -6   3  -6   10.82    0.41 
  -5   3  -6    0.69    0.22 
  -4   3  -6    1.01    0.23 
  -3   3  -6  279.39    2.06 
  -2   3  -6  135.36    4.67 
  -1   3  -6  291.09    8.23 
   0   3  -6   22.83    0.83 
   1   3  -6  103.74    1.58 
   2   3  -6   44.65    0.93 
   3   3  -6   79.05    2.65 
   4   3  -6   30.49    1.01 
   5   3  -6   38.24    1.49 
   6   3  -6    7.19    1.01 
   7   3  -6    0.90    0.80 
   8   3  -6    1.36    1.04 
   9   3  -6   65.49    2.40 
  10   3  -6    2.65    0.92 
  11   3  -6    3.91    0.96 
  12   3  -6    1.67    0.91 
  13   3  -6    3.52    1.12 
  14   3  -6    0.91    1.00 
 -14   4  -6    0.42    0.64 
 -13   4  -6    0.86    0.57 
 -12   4  -6    0.96    0.49 
 -11   4  -6    1.56    0.34 
 -10   4  -6    0.55    0.30 
  -9   4  -6    2.84    0.34 
  -8   4  -6    0.17    0.25 
  -7   4  -6    0.20    0.30 
  -6   4  -6    0.57    0.33 
  -5   4  -6    3.11    0.34 
  -4   4  -6   14.77    0.50 
  -3   4  -6    0.11    0.26 
  -2   4  -6   29.09    0.69 
  -1   4  -6    8.26    0.44 
   0   4  -6    1.27    0.47 
   1   4  -6   76.76    1.37 
   2   4  -6    1.64    0.39 
   3   4  -6    5.65    0.36 
   4   4  -6    1.68    0.25 
   5   4  -6    2.57    0.67 
   6   4  -6    3.72    0.88 
   7   4  -6   16.66    1.34 
   8   4  -6   23.00    1.80 
   9   4  -6   31.35    2.00 
  10   4  -6    0.70    0.89 
  11   4  -6   17.65    1.60 
  12   4  -6    3.13    1.09 
  13   4  -6    1.17    1.05 
 -13   5  -6    0.25    0.56 
 -12   5  -6    2.52    0.41 
 -11   5  -6    0.57    0.32 
 -10   5  -6   19.33    1.35 
  -9   5  -6    0.93    0.30 
  -8   5  -6    1.04    0.31 
  -7   5  -6    0.66    0.34 
  -6   5  -6   15.46    0.64 
  -5   5  -6    1.84    0.36 
  -4   5  -6    0.41    0.30 
  -3   5  -6    0.41    0.35 
  -2   5  -6  112.46    2.48 
  -1   5  -6  108.19    5.41 
   0   5  -6   17.12    0.94 
   1   5  -6    0.63    0.38 
   2   5  -6    2.36    0.44 
   3   5  -6    1.11    0.29 
   4   5  -6    0.75    0.63 
   5   5  -6    1.12    0.77 
   6   5  -6    8.23    1.11 
   7   5  -6   11.66    1.30 
   8   5  -6    5.36    1.10 
   9   5  -6    0.52    1.13 
  10   5  -6    1.32    1.11 
  11   5  -6    3.50    1.16 
  12   5  -6   15.67    1.70 
  13   5  -6    1.00    1.36 
 -12   6  -6    0.69    0.47 
 -11   6  -6    0.33    0.29 
 -10   6  -6    0.88    0.26 
  -9   6  -6   -0.25    0.26 
  -8   6  -6    1.23    0.32 
  -7   6  -6    1.68    0.34 
  -6   6  -6    1.34    0.31 
  -5   6  -6    0.14    0.34 
  -4   6  -6   24.60    1.14 
  -3   6  -6    8.15    0.57 
  -2   6  -6    4.28    0.44 
  -1   6  -6   15.94    1.28 
   0   6  -6   11.45    0.65 
   1   6  -6    0.67    0.42 
   2   6  -6    4.09    0.51 
   3   6  -6   10.79    0.75 
   4   6  -6   -0.33    0.68 
   5   6  -6    1.33    0.79 
   6   6  -6    2.94    0.96 
   7   6  -6    0.85    0.96 
   8   6  -6    2.22    1.01 
   9   6  -6   -0.45    1.31 
  10   6  -6    4.93    1.55 
  11   6  -6    0.02    1.18 
  12   6  -6   -0.15    1.20 
 -11   7  -6    0.18    0.34 
 -10   7  -6    0.55    0.32 
  -9   7  -6    1.71    0.42 
  -8   7  -6    0.15    0.31 
  -7   7  -6    2.66    0.44 
  -6   7  -6    0.49    0.38 
  -5   7  -6    4.44    0.53 
  -4   7  -6    6.30    0.57 
  -3   7  -6    5.62    0.59 
  -1   7  -6    6.13    0.61 
   0   7  -6   11.55    0.81 
   1   7  -6    0.28    0.40 
   2   7  -6   22.85    0.96 
   3   7  -6    0.05    0.59 
   4   7  -6    7.04    1.01 
   5   7  -6   18.86    1.38 
   6   7  -6    0.31    0.98 
   7   7  -6    8.73    1.23 
   8   7  -6    0.91    1.00 
   9   7  -6   -0.10    1.00 
  10   7  -6    1.17    1.49 
  11   7  -6    4.69    1.63 
  -9   8  -6    0.65    0.32 
  -8   8  -6    0.25    0.26 
  -7   8  -6    0.58    0.29 
  -6   8  -6    0.61    0.26 
  -5   8  -6    1.20    0.32 
  -4   8  -6    0.21    0.28 
  -3   8  -6    0.89    0.30 
  -2   8  -6    0.66    0.31 
  -1   8  -6    3.33    0.49 
   0   8  -6    8.55    0.65 
   1   8  -6    1.36    0.37 
   3   8  -6    0.07    0.63 
   4   8  -6    7.93    1.04 
   5   8  -6    0.28    0.76 
   6   8  -6    0.36    0.85 
   7   8  -6    2.91    1.15 
  -7   9  -6    0.24    0.18 
  -6   9  -6    0.14    0.19 
  -5   9  -6    0.24    0.21 
  -4   9  -6   -0.02    0.18 
  -3   9  -6    0.00    0.22 
  -2   9  -6    1.67    0.33 
  -1   9  -6    0.03    0.25 
   0   9  -6    1.21    0.31 
   2   9  -6    0.68    0.52 
  -4  10  -6    0.04    0.15 
  -3  10  -6    0.00    0.16 
  -1  10  -6    0.16    0.17 
  -5 -10  -5    0.02    1.45 
  -4 -10  -5   -0.15    1.18 
  -3 -10  -5   -0.40    1.26 
  -2 -10  -5    2.03    1.54 
  -1 -10  -5    2.31    1.30 
  -7  -9  -5    0.24    1.12 
  -6  -9  -5    9.47    1.35 
  -5  -9  -5   -0.06    0.80 
  -4  -9  -5    0.09    1.06 
  -3  -9  -5    0.30    0.92 
  -2  -9  -5    1.11    1.14 
  -1  -9  -5   -0.27    1.15 
   0  -9  -5    1.88    1.29 
  -9  -8  -5    0.34    0.91 
  -8  -8  -5    3.59    0.97 
  -7  -8  -5    0.69    0.85 
  -6  -8  -5    2.28    0.85 
  -5  -8  -5    2.41    0.90 
  -4  -8  -5   -0.10    0.77 
  -3  -8  -5    0.74    1.02 
  -2  -8  -5   -0.72    0.98 
  -1  -8  -5   13.58    1.66 
   0  -8  -5   12.78    1.54 
 -11  -7  -5    0.98    1.10 
 -10  -7  -5    0.61    0.86 
  -9  -7  -5    0.97    0.84 
  -8  -7  -5    1.51    0.94 
  -7  -7  -5   -0.40    0.79 
  -6  -7  -5    1.00    0.70 
  -5  -7  -5   -0.11    0.73 
  -4  -7  -5    4.90    1.11 
  -3  -7  -5    1.19    0.68 
  -2  -7  -5    6.29    1.35 
  -1  -7  -5    4.97    1.33 
   0  -7  -5   28.32    2.22 
   1  -7  -5    5.38    1.39 
 -12  -6  -5    1.50    1.20 
 -11  -6  -5    4.47    1.18 
 -10  -6  -5    0.42    0.86 
  -9  -6  -5    0.15    0.75 
  -8  -6  -5    0.47    0.65 
  -7  -6  -5   -0.16    0.63 
  -6  -6  -5   19.78    1.40 
  -5  -6  -5    0.15    0.73 
  -4  -6  -5    1.92    0.83 
  -3  -6  -5   30.81    1.72 
  -2  -6  -5   12.44    1.20 
  -1  -6  -5  110.41    2.97 
   0  -6  -5   -0.08    1.11 
   1  -6  -5    4.70    1.17 
 -12  -5  -5   -0.38    1.04 
 -11  -5  -5    4.33    1.07 
 -10  -5  -5    1.27    0.85 
  -9  -5  -5   14.87    1.25 
  -8  -5  -5    1.70    0.78 
  -7  -5  -5    3.94    0.84 
  -6  -5  -5   -0.33    0.47 
  -5  -5  -5   61.35    1.94 
  -4  -5  -5    9.99    0.63 
  -3  -5  -5    2.12    0.58 
  -2  -5  -5    2.64    0.48 
  -1  -5  -5   67.12    2.08 
   0  -5  -5    7.68    1.11 
   1  -5  -5   40.14    1.73 
 -13  -4  -5    0.06    0.80 
 -12  -4  -5    7.07    1.09 
 -11  -4  -5    2.01    0.73 
 -10  -4  -5    7.76    0.97 
  -9  -4  -5    4.57    0.82 
  -8  -4  -5   72.90    2.30 
  -7  -4  -5   17.84    1.16 
  -6  -4  -5   14.53    1.00 
  -5  -4  -5   10.70    0.51 
  -4  -4  -5    0.41    0.31 
  -3  -4  -5    3.59    0.62 
  -2  -4  -5  114.64    1.56 
  -1  -4  -5    4.36    0.48 
   0  -4  -5   35.69    0.96 
   1  -4  -5    0.61    0.37 
 -14  -3  -5    0.12    0.92 
 -13  -3  -5    1.29    0.87 
 -12  -3  -5    9.89    1.15 
 -11  -3  -5    0.26    0.70 
 -10  -3  -5    0.20    0.64 
  -9  -3  -5    1.34    0.64 
  -8  -3  -5    2.14    0.66 
  -7  -3  -5    6.43    0.75 
  -6  -3  -5    6.83    0.42 
  -5  -3  -5    9.25    0.45 
  -4  -3  -5    7.26    0.42 
  -3  -3  -5   59.85    0.94 
  -2  -3  -5   61.45    1.01 
  -1  -3  -5    1.17    0.30 
   0  -3  -5    6.51    0.44 
   1  -3  -5    9.63    0.48 
   2  -3  -5  213.65    3.01 
 -14  -2  -5    0.95    0.85 
 -13  -2  -5    2.26    0.76 
 -12  -2  -5   -0.01    0.57 
 -11  -2  -5   18.47    1.14 
 -10  -2  -5    0.34    0.52 
  -9  -2  -5    2.09    0.60 
  -8  -2  -5   17.60    1.01 
  -7  -2  -5    7.20    0.67 
  -6  -2  -5    5.09    0.39 
  -5  -2  -5  124.62    3.64 
  -4  -2  -5  148.46    6.22 
  -3  -2  -5   -0.08    0.21 
  -2  -2  -5    6.32    0.32 
  -1  -2  -5   20.96    0.52 
   0  -2  -5   25.58    1.39 
   1  -2  -5   70.85    1.95 
   2  -2  -5    0.55    0.36 
   3  -2  -5    0.11    0.27 
 -14  -1  -5    0.04    0.59 
 -13  -1  -5    2.15    0.64 
 -12  -1  -5   -0.09    0.55 
 -11  -1  -5    3.23    0.69 
 -10  -1  -5    0.48    0.56 
  -9  -1  -5   -0.64    0.45 
  -8  -1  -5    1.60    0.51 
  -7  -1  -5    1.91    0.27 
  -6  -1  -5   47.67    1.93 
  -5  -1  -5  109.67    3.58 
  -4  -1  -5   95.55    4.36 
  -3  -1  -5  700.37    5.09 
  -2  -1  -5   31.17    0.53 
  -1  -1  -5   50.02    1.83 
   0  -1  -5  178.94    2.46 
   1  -1  -5  303.65    6.91 
   2  -1  -5   11.85    0.53 
   3  -1  -5   15.46    0.49 
   4  -1  -5   81.05    1.11 
   5  -1  -5   82.62    1.79 
   6  -1  -5   11.63    0.83 
   7  -1  -5   21.81    1.09 
 -14   0  -5    0.47    0.66 
 -13   0  -5    0.39    0.60 
 -12   0  -5    0.11    0.52 
 -11   0  -5    5.75    0.72 
 -10   0  -5    0.05    0.38 
  -9   0  -5    0.29    0.40 
  -8   0  -5   -0.10    0.24 
  -7   0  -5   12.79    0.72 
  -6   0  -5    0.13    0.21 
  -5   0  -5  442.11   45.32 
  -4   0  -5   -0.02    0.17 
  -3   0  -5 1148.96   16.71 
  -2   0  -5    0.18    0.16 
  -1   0  -5   25.56    0.64 
   0   0  -5    0.28    0.15 
   1   0  -5 3138.69   83.70 
   2   0  -5    0.11    0.24 
   3   0  -5   -0.10    0.22 
   4   0  -5   -0.09    0.24 
   5   0  -5    0.32    0.29 
   6   0  -5    1.76    0.64 
   7   0  -5  107.43    2.21 
   8   0  -5   -0.36    0.65 
   9   0  -5    5.99    0.90 
  10   0  -5   -0.08    0.60 
 -13   1  -5    1.23    0.51 
 -12   1  -5    0.21    0.49 
 -11   1  -5    3.00    0.60 
 -10   1  -5    0.58    0.47 
  -9   1  -5   -0.37    0.23 
  -8   1  -5    0.77    0.24 
  -7   1  -5    0.95    0.21 
  -6   1  -5   38.53    0.69 
  -5   1  -5   95.33    1.51 
  -4   1  -5   78.93    1.63 
  -3   1  -5  719.60    4.50 
  -2   1  -5   27.83    0.41 
  -1   1  -5   41.53    0.60 
   0   1  -5  182.68    1.80 
   1   1  -5  259.72    2.05 
   2   1  -5   13.65    0.33 
   3   1  -5   15.59    0.37 
   4   1  -5   81.39    0.87 
   5   1  -5   88.74    3.49 
   6   1  -5   13.39    0.95 
   7   1  -5   25.36    1.20 
   8   1  -5   20.68    1.17 
   9   1  -5   39.46    1.64 
  10   1  -5    0.46    0.71 
  11   1  -5    0.60    0.69 
 -14   2  -5    0.21    0.63 
 -13   2  -5    2.11    0.63 
 -12   2  -5   -0.01    0.47 
 -11   2  -5   15.24    0.90 
 -10   2  -5   -0.24    0.26 
  -9   2  -5    1.00    0.28 
  -8   2  -5   14.05    0.51 
  -7   2  -5    6.44    0.36 
  -6   2  -5    3.45    0.28 
  -5   2  -5   96.51    2.17 
  -4   2  -5  123.15    1.16 
  -3   2  -5    0.05    0.18 
  -2   2  -5    5.68    0.23 
  -1   2  -5   20.66    0.37 
   0   2  -5   27.08    0.72 
   1   2  -5   72.41    1.09 
   2   2  -5    0.50    0.18 
   3   2  -5    0.13    0.15 
   4   2  -5   56.12    0.71 
   5   2  -5   39.54    0.57 
   6   2  -5   18.44    1.17 
   7   2  -5   36.99    1.61 
   8   2  -5    8.16    0.96 
   9   2  -5   -0.35    0.74 
  10   2  -5   18.14    1.34 
  11   2  -5   10.40    1.14 
  12   2  -5    0.41    0.74 
  13   2  -5    0.51    0.82 
 -14   3  -5    0.59    0.60 
 -13   3  -5    1.25    0.58 
 -12   3  -5    6.24    0.70 
 -11   3  -5   -0.13    0.44 
 -10   3  -5    0.59    0.31 
  -9   3  -5    0.93    0.32 
  -8   3  -5    1.14    0.26 
  -7   3  -5    5.06    0.36 
  -6   3  -5    5.04    0.35 
  -5   3  -5    7.52    0.39 
  -4   3  -5    6.73    0.36 
  -3   3  -5   72.29    0.97 
  -2   3  -5   57.03    1.21 
  -1   3  -5    1.30    0.26 
   0   3  -5    6.74    0.57 
   1   3  -5    7.68    0.44 
   2   3  -5  197.47    2.13 
   3   3  -5   67.58    2.38 
   4   3  -5    0.35    0.21 
   5   3  -5  116.92    2.48 
   6   3  -5   10.66    0.98 
   7   3  -5    0.90    0.90 
   8   3  -5   45.29    1.99 
   9   3  -5    2.15    0.91 
  10   3  -5    4.39    0.95 
  11   3  -5   -1.10    0.76 
  12   3  -5   -0.14    0.87 
  13   3  -5    0.82    0.89 
  14   3  -5    0.43    1.01 
 -14   4  -5    1.13    0.73 
 -13   4  -5    0.84    0.55 
 -12   4  -5    6.05    0.69 
 -11   4  -5    1.55    0.35 
 -10   4  -5    5.18    0.41 
  -9   4  -5    4.00    0.38 
  -8   4  -5   52.85    1.66 
  -7   4  -5   14.77    0.58 
  -6   4  -5   14.19    0.55 
  -5   4  -5    9.15    0.44 
  -4   4  -5    0.19    0.27 
  -3   4  -5    4.66    0.53 
  -2   4  -5  121.73    1.84 
  -1   4  -5    5.46    0.60 
   0   4  -5   37.75    1.24 
   1   4  -5    0.28    0.38 
   2   4  -5   22.60    0.87 
   3   4  -5   42.24    1.94 
   4   4  -5   27.03    1.19 
   5   4  -5   10.75    0.97 
   6   4  -5   -0.68    0.74 
   7   4  -5   22.16    1.46 
   8   4  -5   55.62    2.24 
   9   4  -5    4.96    1.12 
  10   4  -5    2.01    0.94 
  11   4  -5   36.99    2.03 
  12   4  -5    0.16    0.98 
  13   4  -5    3.30    1.19 
  14   4  -5    0.41    1.33 
 -13   5  -5    1.25    0.60 
 -12   5  -5    0.26    0.33 
 -11   5  -5    2.87    0.36 
 -10   5  -5    1.05    0.31 
  -9   5  -5   11.98    0.66 
  -8   5  -5    1.39    0.34 
  -7   5  -5    3.08    0.39 
  -6   5  -5   -0.12    0.28 
  -5   5  -5   68.64    1.56 
  -4   5  -5    9.82    0.74 
  -3   5  -5    5.88    0.71 
  -2   5  -5    2.27    0.55 
  -1   5  -5   74.09    1.78 
   2   5  -5    4.15    0.48 
   3   5  -5   14.06    0.56 
   4   5  -5    1.63    0.71 
   5   5  -5    2.69    0.73 
   6   5  -5    0.85    0.83 
   7   5  -5    1.72    0.98 
   8   5  -5   13.18    1.33 
   9   5  -5    2.02    1.29 
  10   5  -5    2.22    1.07 
  11   5  -5    1.63    1.07 
  12   5  -5    2.09    1.11 
  13   5  -5    1.07    1.30 
 -12   6  -5    0.98    0.34 
 -11   6  -5    2.19    0.33 
 -10   6  -5    0.69    0.32 
  -9   6  -5    0.31    0.27 
  -8   6  -5    0.28    0.29 
  -7   6  -5    0.02    0.28 
  -6   6  -5   18.11    0.95 
  -5   6  -5   -0.05    0.48 
  -4   6  -5    2.46    0.62 
  -3   6  -5   30.06    1.21 
  -2   6  -5   10.84    0.91 
  -1   6  -5  107.02    2.29 
   2   6  -5    0.22    0.40 
   3   6  -5    2.00    0.35 
   4   6  -5    5.03    0.88 
   5   6  -5    0.98    0.75 
   6   6  -5    1.19    0.81 
   7   6  -5   -0.97    0.99 
   8   6  -5    0.54    0.91 
   9   6  -5    0.43    1.39 
  10   6  -5   -0.08    1.16 
  11   6  -5    3.09    1.19 
  12   6  -5    0.78    1.16 
 -11   7  -5    0.45    0.39 
 -10   7  -5    0.35    0.33 
  -9   7  -5    0.33    0.30 
  -8   7  -5    1.73    0.33 
  -7   7  -5   -0.01    0.26 
  -6   7  -5    1.15    0.61 
  -5   7  -5    0.20    0.56 
  -4   7  -5    4.66    0.75 
  -3   7  -5    1.63    0.70 
  -2   7  -5    3.10    0.71 
  -1   7  -5    3.69    0.86 
   0   7  -5   17.59    1.14 
   2   7  -5   -0.24    0.35 
   3   7  -5    1.07    0.67 
   4   7  -5    1.04    0.79 
   5   7  -5    4.21    0.90 
   6   7  -5    4.90    1.07 
   7   7  -5    5.78    1.26 
   8   7  -5    6.56    1.21 
   9   7  -5    3.52    1.56 
  10   7  -5   -0.79    1.39 
  -9   8  -5    0.12    0.23 
  -8   8  -5    1.14    0.28 
  -7   8  -5    0.45    0.24 
   3   8  -5    2.16    0.76 
   4   8  -5   10.13    1.12 
   5   8  -5    3.68    1.06 
   6   8  -5    0.94    0.94 
  -7   9  -5    0.32    0.16 
  -6   9  -5    1.90    0.24 
  -5   9  -5    0.08    0.13 
  -4  10  -5    0.00    0.11 
  -3  10  -5    0.01    0.10 
  -2  10  -5    0.19    0.11 
  -1  10  -5    0.45    0.15 
  -5 -10  -4    1.71    1.45 
  -4 -10  -4    1.09    1.30 
  -3 -10  -4    2.38    1.39 
  -2 -10  -4    2.49    1.62 
  -1 -10  -4    0.28    1.27 
  -8  -9  -4    0.78    1.08 
  -7  -9  -4    1.43    1.20 
  -6  -9  -4    3.00    1.10 
  -5  -9  -4    4.06    1.05 
  -4  -9  -4    1.90    1.19 
  -3  -9  -4    0.79    1.03 
  -2  -9  -4    3.03    1.28 
  -1  -9  -4    0.21    1.23 
   0  -9  -4    0.43    1.30 
  -9  -8  -4    0.34    0.98 
  -8  -8  -4    0.44    0.83 
  -7  -8  -4    2.15    0.88 
  -6  -8  -4    4.89    0.96 
  -5  -8  -4    0.72    0.93 
  -4  -8  -4   -0.33    0.85 
  -3  -8  -4    4.50    1.15 
  -2  -8  -4   -0.14    1.03 
  -1  -8  -4    3.15    1.33 
   0  -8  -4    9.40    1.44 
 -11  -7  -4    0.61    1.06 
 -10  -7  -4    0.10    0.82 
  -9  -7  -4    2.20    0.91 
  -8  -7  -4    0.24    0.85 
  -7  -7  -4    2.18    0.97 
  -6  -7  -4    1.70    0.74 
  -5  -7  -4    3.85    0.91 
  -4  -7  -4   29.29    1.80 
  -3  -7  -4    0.33    0.88 
  -2  -7  -4   11.86    1.46 
  -1  -7  -4   27.49    1.96 
   0  -7  -4   31.93    2.35 
   1  -7  -4   71.18    2.88 
 -12  -6  -4   -0.21    1.15 
 -11  -6  -4    0.24    0.94 
 -10  -6  -4    6.84    1.14 
  -9  -6  -4    0.34    0.75 
  -8  -6  -4    0.13    0.68 
  -7  -6  -4    0.28    0.64 
  -6  -6  -4    9.78    1.10 
  -5  -6  -4    4.60    0.95 
  -4  -6  -4    7.46    1.01 
  -3  -6  -4   -0.67    0.86 
  -2  -6  -4   54.42    2.06 
  -1  -6  -4    9.27    1.20 
   0  -6  -4   44.79    2.21 
   1  -6  -4   11.99    1.41 
 -13  -5  -4    0.91    1.35 
 -12  -5  -4    0.27    1.06 
 -11  -5  -4    0.62    0.99 
 -10  -5  -4    9.68    1.19 
  -9  -5  -4    4.17    0.93 
  -8  -5  -4    1.69    0.76 
  -7  -5  -4   16.76    1.13 
  -6  -5  -4    0.16    0.65 
  -5  -5  -4    0.73    0.61 
  -4  -5  -4   20.05    1.28 
  -3  -5  -4   25.11    1.33 
  -2  -5  -4   38.03    1.57 
  -1  -5  -4   10.64    0.95 
   0  -5  -4   31.77    1.67 
   1  -5  -4    1.48    0.84 
 -13  -4  -4    9.65    1.41 
 -12  -4  -4   -0.02    0.90 
 -11  -4  -4    2.84    0.91 
 -10  -4  -4    2.14    0.87 
  -9  -4  -4   16.54    1.25 
  -8  -4  -4    0.94    0.76 
  -7  -4  -4   32.89    1.52 
  -6  -4  -4   24.05    1.21 
  -5  -4  -4    5.99    0.42 
  -4  -4  -4   80.19    2.65 
  -3  -4  -4   84.52    1.34 
  -2  -4  -4   13.32    0.59 
  -1  -4  -4   70.53    3.34 
   0  -4  -4    0.94    0.61 
   1  -4  -4   87.85    2.13 
 -14  -3  -4    1.65    1.06 
 -13  -3  -4    9.16    1.25 
 -12  -3  -4    0.78    0.81 
 -11  -3  -4    8.05    1.09 
 -10  -3  -4    3.16    0.84 
  -9  -3  -4   33.79    1.59 
  -8  -3  -4    0.69    0.58 
  -7  -3  -4   43.17    1.44 
  -6  -3  -4    7.82    0.69 
  -5  -3  -4    5.06    0.35 
  -4  -3  -4   11.12    0.46 
  -3  -3  -4   95.09    1.18 
  -2  -3  -4    1.23    0.25 
  -1  -3  -4  277.26    3.50 
   0  -3  -4   25.64    1.13 
   1  -3  -4  207.81    3.87 
 -14  -2  -4    0.17    0.76 
 -13  -2  -4   -0.03    0.65 
 -12  -2  -4    9.67    1.02 
 -11  -2  -4    4.23    0.82 
 -10  -2  -4    0.33    0.63 
  -9  -2  -4   43.64    1.56 
  -8  -2  -4    0.83    0.50 
  -7  -2  -4   86.43    1.88 
  -6  -2  -4    4.61    0.32 
  -5  -2  -4   11.23    0.43 
  -4  -2  -4   62.21    2.06 
  -3  -2  -4    8.94    0.35 
  -2  -2  -4   27.50    4.69 
  -1  -2  -4  214.26    3.76 
   0  -2  -4    8.36    0.44 
   1  -2  -4   87.56    1.45 
   2  -2  -4   57.88    1.26 
   3  -2  -4    1.26    0.33 
 -14  -1  -4    0.15    0.65 
 -13  -1  -4    0.67    0.50 
 -12  -1  -4    4.09    0.78 
 -11  -1  -4    9.36    0.90 
 -10  -1  -4    4.96    0.71 
  -9  -1  -4    7.47    0.77 
  -8  -1  -4    9.13    0.72 
  -7  -1  -4   10.12    0.39 
  -6  -1  -4   44.11    0.69 
  -5  -1  -4   45.16    2.25 
  -4  -1  -4  111.18    4.32 
  -3  -1  -4 1797.52    7.71 
  -2  -1  -4 1767.67   48.92 
  -1  -1  -4   87.67    1.98 
   0  -1  -4  391.78    7.41 
   1  -1  -4   18.54    0.73 
   2  -1  -4   15.52    1.82 
   3  -1  -4  142.08    2.49 
   4  -1  -4   79.06    1.51 
   5  -1  -4  367.50    3.86 
   6  -1  -4    6.39    0.75 
 -14   0  -4    2.70    0.76 
 -13   0  -4   -0.57    0.52 
 -12   0  -4    7.39    0.84 
 -11   0  -4    0.26    0.47 
 -10   0  -4    4.91    0.59 
  -9   0  -4    0.13    0.40 
  -8   0  -4    1.63    0.28 
  -7   0  -4   -0.08    0.22 
  -6   0  -4   47.77    1.31 
  -5   0  -4    0.13    0.27 
  -4   0  -4  258.07    2.32 
  -3   0  -4    0.14    0.15 
  -2   0  -4  937.96    5.22 
  -1   0  -4    2.56    0.30 
   0   0  -4    7.69    0.18 
   1   0  -4    0.23    0.17 
   2   0  -4  639.27    4.65 
   3   0  -4    0.04    0.21 
   4   0  -4  237.25    1.83 
   5   0  -4    0.12    0.48 
   6   0  -4  535.88    5.23 
   7   0  -4   -0.05    0.52 
   8   0  -4   54.07    1.74 
   9   0  -4    0.24    0.68 
 -14   1  -4   -0.09    0.51 
 -13   1  -4    0.93    0.54 
 -12   1  -4    3.41    0.61 
 -11   1  -4    6.93    0.71 
 -10   1  -4    3.98    0.57 
  -9   1  -4    6.50    0.41 
  -8   1  -4    8.11    0.41 
  -7   1  -4    6.69    1.11 
  -6   1  -4   34.99    1.22 
  -5   1  -4   36.90    0.63 
  -4   1  -4   95.17    1.56 
  -3   1  -4 1769.14    7.51 
  -2   1  -4 1901.56   17.14 
  -1   1  -4   82.67    0.66 
   0   1  -4  356.41    2.72 
   1   1  -4   15.93    0.41 
   2   1  -4   17.26    0.43 
   3   1  -4  130.96    1.02 
   4   1  -4   88.71    0.97 
   5   1  -4  436.36    4.44 
   6   1  -4    6.43    0.71 
   7   1  -4   10.59    0.84 
   8   1  -4    1.83    0.66 
   9   1  -4   11.60    1.02 
  10   1  -4   24.05    1.41 
  11   1  -4    0.73    0.67 
 -13   2  -4   -0.09    0.49 
 -12   2  -4    6.91    0.73 
 -11   2  -4    3.69    0.58 
 -10   2  -4   -0.07    0.26 
  -9   2  -4   32.88    0.99 
  -8   2  -4    0.81    0.27 
  -7   2  -4   73.51    3.22 
  -6   2  -4    3.56    0.30 
  -5   2  -4   10.17    0.41 
  -4   2  -4   53.02    0.86 
  -3   2  -4    9.34    0.34 
  -2   2  -4   43.81    0.62 
  -1   2  -4  238.22    1.91 
   0   2  -4    6.62    0.38 
   1   2  -4   84.09    1.18 
   2   2  -4   57.57    1.59 
   3   2  -4    1.16    0.17 
   4   2  -4   60.46    0.88 
   5   2  -4   31.38    1.16 
   6   2  -4    0.02    0.64 
   7   2  -4   68.74    1.94 
   8   2  -4    0.46    0.66 
   9   2  -4    9.00    1.00 
  10   2  -4    0.39    0.75 
  11   2  -4   32.33    1.74 
  12   2  -4   -0.04    0.72 
 -14   3  -4    1.08    0.61 
 -13   3  -4    6.87    0.77 
 -12   3  -4    0.23    0.47 
 -11   3  -4    5.26    0.65 
 -10   3  -4    2.32    0.34 
  -9   3  -4   22.85    0.82 
  -8   3  -4    0.17    0.27 
  -7   3  -4   38.98    1.00 
  -6   3  -4    5.93    0.38 
  -5   3  -4    4.30    0.34 
  -4   3  -4    9.90    0.50 
  -3   3  -4   88.80    1.32 
  -2   3  -4    1.31    0.33 
  -1   3  -4  309.92    2.95 
   1   3  -4  224.35    2.60 
   2   3  -4   16.27    0.66 
   3   3  -4  399.98   11.40 
   4   3  -4  133.65    3.12 
   5   3  -4    0.52    0.68 
   6   3  -4    7.58    0.88 
   7   3  -4   12.62    1.11 
   8   3  -4    0.15    0.82 
   9   3  -4    0.85    0.68 
  10   3  -4    1.78    0.86 
  11   3  -4    0.05    0.76 
  12   3  -4    3.18    1.04 
  13   3  -4    1.30    0.89 
 -14   4  -4   -0.36    0.62 
 -13   4  -4    6.97    0.80 
 -12   4  -4    0.70    0.47 
 -11   4  -4    1.94    0.35 
 -10   4  -4    1.65    0.34 
  -9   4  -4   11.21    0.51 
  -8   4  -4    1.37    0.35 
  -7   4  -4   28.20    1.12 
  -6   4  -4   25.95    0.98 
  -5   4  -4    5.52    0.51 
  -4   4  -4   76.71    1.43 
  -3   4  -4   80.68    1.47 
  -2   4  -4   15.32    0.77 
  -1   4  -4   91.56    1.86 
   3   4  -4   23.50    0.68 
   4   4  -4   16.11    0.49 
   5   4  -4    6.20    0.82 
   6   4  -4    0.91    0.90 
   7   4  -4   -0.29    0.86 
   8   4  -4   39.85    1.91 
   9   4  -4    0.65    0.95 
  10   4  -4    3.47    0.93 
  11   4  -4   29.33    1.79 
  12   4  -4    3.88    1.10 
  13   4  -4    0.70    1.06 
  14   4  -4    3.35    1.20 
 -13   5  -4    0.34    0.58 
 -12   5  -4    1.83    0.59 
 -11   5  -4    0.69    0.32 
 -10   5  -4    6.09    0.45 
  -9   5  -4    2.32    0.35 
  -8   5  -4    1.18    0.35 
  -7   5  -4   19.16    0.99 
  -6   5  -4   -0.22    0.46 
  -5   5  -4    0.37    0.47 
  -4   5  -4   21.37    1.01 
  -3   5  -4   26.57    1.09 
  -2   5  -4   36.10    1.18 
  -1   5  -4   12.42    1.00 
   3   5  -4    0.65    0.54 
   4   5  -4   22.73    1.30 
   5   5  -4   -0.28    0.58 
   6   5  -4   68.62    2.30 
   7   5  -4    0.96    0.86 
   8   5  -4    8.04    1.45 
   9   5  -4   10.81    1.57 
  10   5  -4    0.99    0.95 
  11   5  -4    0.56    0.95 
  12   5  -4    2.41    1.06 
  13   5  -4    3.81    1.34 
 -13   6  -4    1.69    0.77 
 -12   6  -4    0.32    0.30 
 -11   6  -4    0.30    0.30 
 -10   6  -4    4.60    0.44 
  -9   6  -4    0.44    0.29 
  -8   6  -4    0.97    0.55 
  -7   6  -4    0.23    0.46 
  -6   6  -4   10.25    0.87 
  -5   6  -4    4.59    0.71 
  -4   6  -4    9.44    0.85 
  -3   6  -4   -0.42    0.72 
  -2   6  -4   62.03    1.88 
  -1   6  -4    9.59    1.17 
   3   6  -4    4.75    0.79 
   4   6  -4    3.14    0.81 
   5   6  -4    0.30    0.67 
   6   6  -4    2.67    0.91 
   7   6  -4    0.13    0.99 
   8   6  -4    5.90    1.15 
   9   6  -4   -0.43    1.15 
  10   6  -4   -0.55    1.13 
  11   6  -4    0.03    0.98 
  12   6  -4    1.16    1.06 
  13   6  -4    1.79    1.49 
 -11   7  -4    0.22    0.30 
 -10   7  -4    0.01    0.24 
  -9   7  -4    0.63    0.26 
  -8   7  -4   -0.10    0.55 
  -7   7  -4    1.37    0.61 
  -6   7  -4    3.43    0.71 
  -5   7  -4    5.54    0.81 
  -4   7  -4   29.96    1.34 
  -3   7  -4    0.44    0.68 
  -2   7  -4   11.85    1.14 
  -1   7  -4   21.16    1.29 
   0   7  -4   22.82    1.31 
   3   7  -4    1.91    0.71 
   4   7  -4    6.03    1.01 
   5   7  -4    0.63    0.78 
   6   7  -4    9.80    1.18 
   7   7  -4    3.22    1.17 
   8   7  -4    1.20    1.05 
   9   7  -4    1.00    1.36 
  -9   8  -4    0.15    0.20 
  -8   8  -4    0.10    0.17 
  -5   8  -4    0.70    0.72 
  -4   8  -4    0.20    0.63 
  -3   8  -4    3.61    0.77 
  -2   8  -4    0.40    0.59 
  -1   8  -4    2.27    0.79 
   0   8  -4    6.62    0.87 
   3   8  -4    0.53    0.69 
   4   8  -4    1.53    0.86 
  -6 -10  -3    0.82    1.27 
  -5 -10  -3    0.11    1.43 
  -4 -10  -3    1.40    1.29 
  -3 -10  -3    1.37    1.35 
  -2 -10  -3    1.16    1.56 
  -1 -10  -3    0.62    1.33 
  -8  -9  -3    0.55    1.09 
  -7  -9  -3    2.73    1.07 
  -6  -9  -3    1.18    1.01 
  -5  -9  -3    0.12    0.95 
  -4  -9  -3   -0.12    1.00 
  -3  -9  -3    1.21    1.10 
  -2  -9  -3   -0.59    1.16 
  -1  -9  -3    0.04    1.27 
   0  -9  -3    0.40    1.30 
 -10  -8  -3    1.26    1.33 
  -9  -8  -3    0.56    1.09 
  -8  -8  -3    0.51    0.81 
  -7  -8  -3    5.74    1.05 
  -6  -8  -3    2.39    0.82 
  -5  -8  -3    7.76    1.27 
  -4  -8  -3    1.41    0.92 
  -3  -8  -3    0.37    1.03 
  -2  -8  -3   -0.12    1.02 
  -1  -8  -3    4.90    1.43 
   0  -8  -3    0.98    1.17 
 -11  -7  -3    0.00    1.08 
 -10  -7  -3    0.56    0.89 
  -9  -7  -3    0.73    0.82 
  -8  -7  -3    2.47    0.97 
  -7  -7  -3    2.20    0.95 
  -6  -7  -3    2.33    0.77 
  -5  -7  -3    5.16    0.97 
  -4  -7  -3   37.04    1.82 
  -3  -7  -3    4.02    1.12 
  -2  -7  -3   -0.83    1.10 
  -1  -7  -3   90.91    3.12 
   0  -7  -3   13.51    1.98 
   1  -7  -3  121.57    3.59 
 -12  -6  -3    0.35    1.18 
 -11  -6  -3   -0.86    0.85 
 -10  -6  -3    3.04    0.97 
  -9  -6  -3    2.11    0.89 
  -8  -6  -3    2.08    0.77 
  -7  -6  -3   -0.02    0.66 
  -6  -6  -3    5.22    0.96 
  -5  -6  -3   62.79    2.21 
  -4  -6  -3   44.97    1.79 
  -3  -6  -3   16.15    1.34 
  -2  -6  -3    3.10    0.87 
  -1  -6  -3  105.06    3.07 
   0  -6  -3   14.02    1.54 
   1  -6  -3   -0.82    1.00 
 -13  -5  -3    0.01    1.22 
 -12  -5  -3    1.76    1.07 
 -11  -5  -3    5.41    1.17 
 -10  -5  -3   -0.05    0.87 
  -9  -5  -3    3.87    0.90 
  -8  -5  -3    0.64    0.71 
  -7  -5  -3   11.66    1.10 
  -6  -5  -3    0.25    0.67 
  -5  -5  -3    6.50    0.79 
  -4  -5  -3    8.05    0.97 
  -3  -5  -3  114.84    2.51 
  -2  -5  -3   35.03    1.56 
  -1  -5  -3    2.05    0.81 
   0  -5  -3    8.82    1.16 
   1  -5  -3   15.96    1.27 
 -13  -4  -3    0.49    1.05 
 -12  -4  -3    4.91    1.12 
 -11  -4  -3    1.68    0.90 
 -10  -4  -3   15.96    1.33 
  -9  -4  -3    4.77    0.94 
  -8  -4  -3   57.37    1.94 
  -7  -4  -3   17.41    1.15 
  -6  -4  -3   21.19    1.14 
  -5  -4  -3    5.88    0.40 
  -4  -4  -3   33.11    0.75 
  -3  -4  -3    3.00    0.39 
  -2  -4  -3   27.97    1.24 
  -1  -4  -3    3.34    0.84 
   0  -4  -3  200.62    3.19 
   1  -4  -3   91.49    2.22 
 -14  -3  -3    5.45    1.28 
 -13  -3  -3    1.29    1.00 
 -12  -3  -3   11.36    1.26 
 -11  -3  -3    4.82    0.96 
 -10  -3  -3   -0.12    0.77 
  -9  -3  -3   14.18    1.26 
  -8  -3  -3    1.47    0.73 
  -7  -3  -3    4.93    0.72 
  -6  -3  -3   20.14    0.96 
  -5  -3  -3   41.43    0.81 
  -4  -3  -3   14.69    0.46 
  -3  -3  -3  264.70    4.65 
  -2  -3  -3    7.23    1.84 
  -1  -3  -3   13.92    0.50 
   0  -3  -3  103.80    7.61 
   1  -3  -3    4.44    0.55 
 -14  -2  -3    2.45    0.88 
 -13  -2  -3    0.62    0.77 
 -12  -2  -3    5.70    0.93 
 -11  -2  -3    3.71    0.79 
 -10  -2  -3    4.82    0.82 
  -9  -2  -3    0.64    0.60 
  -8  -2  -3    4.92    0.70 
  -7  -2  -3    0.07    0.43 
  -6  -2  -3   16.80    0.66 
  -5  -2  -3    0.89    0.24 
  -4  -2  -3  151.50    4.10 
  -3  -2  -3  144.62    1.22 
  -2  -2  -3   63.01    3.38 
  -1  -2  -3  166.62    3.23 
   0  -2  -3  135.05    4.54 
   1  -2  -3  177.65    6.04 
   2  -2  -3 1460.46    9.67 
 -14  -1  -3    0.51    0.64 
 -13  -1  -3    0.34    0.51 
 -12  -1  -3    1.10    0.63 
 -11  -1  -3    3.87    0.74 
 -10  -1  -3    8.18    0.85 
  -9  -1  -3    0.42    0.54 
  -8  -1  -3    9.41    0.72 
  -7  -1  -3    1.87    0.27 
  -6  -1  -3   82.40    1.35 
  -5  -1  -3   10.52    0.34 
  -4  -1  -3  109.62    2.86 
  -3  -1  -3  227.25    7.96 
  -2  -1  -3 1212.31  121.56 
  -1  -1  -3 1160.15   17.07 
   0  -1  -3  252.41    8.61 
   1  -1  -3    7.56    0.48 
   2  -1  -3  592.36    7.25 
   3  -1  -3  667.96    3.54 
   4  -1  -3   34.50    0.98 
 -14   0  -3    0.74    0.73 
 -13   0  -3    1.34    0.62 
 -12   0  -3    0.05    0.51 
 -11   0  -3   22.56    1.06 
 -10   0  -3   -0.47    0.49 
  -9   0  -3   38.59    1.28 
  -8   0  -3   -0.17    0.23 
  -7   0  -3   39.24    0.69 
  -6   0  -3    0.15    0.19 
  -5   0  -3  171.25    1.33 
  -4   0  -3    0.15    0.17 
  -3   0  -3   26.33    0.61 
  -2   0  -3    0.13    0.13 
  -1   0  -3 1311.93    6.15 
   0   0  -3    0.30    0.12 
   1   0  -3  317.87    4.51 
   2   0  -3    0.12    0.20 
   3   0  -3  332.11    3.20 
   4   0  -3    0.33    0.39 
   5   0  -3    1.45    0.41 
   6   0  -3    0.28    0.44 
   7   0  -3   60.12    1.63 
   8   0  -3    0.12    0.54 
 -14   1  -3    0.84    0.55 
 -13   1  -3    0.09    0.42 
 -12   1  -3    0.51    0.53 
 -11   1  -3    2.82    0.58 
 -10   1  -3    6.45    0.60 
  -9   1  -3    0.07    0.26 
  -8   1  -3    8.49    0.40 
  -7   1  -3    1.38    0.25 
  -6   1  -3   68.66    1.28 
  -5   1  -3    8.00    0.36 
  -4   1  -3  103.43    1.92 
  -3   1  -3  199.86    7.12 
  -2   1  -3 1534.78    6.60 
  -1   1  -3 1182.73   10.46 
   0   1  -3  231.35    1.95 
   1   1  -3    5.12    0.25 
   2   1  -3  542.13   11.53 
   3   1  -3  635.72    3.58 
   4   1  -3   36.16    1.03 
   5   1  -3   19.66    0.93 
   6   1  -3    1.50    0.44 
   7   1  -3    9.10    0.79 
   8   1  -3    0.80    0.56 
   9   1  -3    0.85    0.66 
  10   1  -3   12.79    1.08 
 -14   2  -3    2.57    0.69 
 -13   2  -3    0.41    0.52 
 -12   2  -3    3.67    0.61 
 -11   2  -3    2.94    0.57 
 -10   2  -3    4.25    0.60 
  -9   2  -3    0.17    0.18 
  -8   2  -3    4.56    0.37 
  -7   2  -3    0.27    0.22 
  -6   2  -3   13.05    0.46 
  -5   2  -3    0.38    0.21 
  -4   2  -3  143.77    1.75 
  -3   2  -3  140.74    1.58 
  -2   2  -3   78.14    1.06 
  -1   2  -3  169.88    1.67 
   1   2  -3  185.78    1.93 
   2   2  -3 1480.40   15.95 
   3   2  -3    7.95    0.23 
   4   2  -3   41.76    1.20 
   5   2  -3   -0.14    0.51 
   6   2  -3   41.50    1.48 
   7   2  -3   16.27    1.02 
   8   2  -3   76.09    2.03 
   9   2  -3    2.70    0.78 
  10   2  -3    3.76    0.85 
  11   2  -3    2.95    0.87 
  12   2  -3    5.89    0.98 
 -14   3  -3    3.84    0.75 
 -13   3  -3    1.74    0.60 
 -12   3  -3    9.37    0.84 
 -11   3  -3    3.98    0.57 
 -10   3  -3    0.13    0.30 
  -9   3  -3    9.05    0.49 
  -8   3  -3    0.54    0.28 
  -7   3  -3    3.54    0.45 
  -6   3  -3   21.58    0.85 
  -5   3  -3   39.13    1.01 
  -4   3  -3   12.94    0.57 
  -3   3  -3  257.14    2.60 
  -2   3  -3   10.25    0.59 
  -1   3  -3   16.23    0.74 
   2   3  -3   86.19    1.66 
   3   3  -3  476.08    3.62 
   4   3  -3    1.04    0.21 
   5   3  -3   30.50    1.25 
   6   3  -3    8.59    0.87 
   7   3  -3   11.54    1.12 
   8   3  -3   -0.64    0.69 
   9   3  -3   22.31    1.38 
  10   3  -3  110.27    2.91 
  11   3  -3    1.54    0.80 
  12   3  -3    0.09    0.83 
  13   3  -3    2.72    0.92 
 -14   4  -3    3.40    0.78 
 -13   4  -3    1.15    0.58 
 -12   4  -3    3.89    0.63 
 -11   4  -3    1.46    0.36 
 -10   4  -3   11.40    0.69 
  -9   4  -3    3.94    0.41 
  -8   4  -3   49.19    1.32 
  -7   4  -3   17.10    0.88 
  -6   4  -3   19.16    0.80 
  -5   4  -3    6.03    0.55 
  -4   4  -3   38.62    1.12 
  -3   4  -3    3.55    0.52 
  -2   4  -3   29.36    1.00 
  -1   4  -3    3.86    0.93 
   3   4  -3   11.09    0.82 
   4   4  -3   17.52    0.53 
   5   4  -3  128.70    2.63 
   6   4  -3   14.60    1.12 
   7   4  -3    0.20    0.70 
   8   4  -3   11.55    1.31 
   9   4  -3   11.16    1.23 
  10   4  -3    1.36    0.84 
  11   4  -3    5.39    1.08 
  12   4  -3    3.96    1.05 
  13   4  -3    0.34    0.91 
  14   4  -3    1.00    1.19 
 -13   5  -3    0.62    0.57 
 -12   5  -3    0.85    0.47 
 -11   5  -3    3.30    0.40 
 -10   5  -3    0.19    0.31 
  -9   5  -3    2.47    0.33 
  -8   5  -3    0.69    0.53 
  -7   5  -3   13.36    0.84 
  -6   5  -3    0.60    0.47 
  -5   5  -3    8.72    0.71 
  -4   5  -3    9.83    0.73 
  -3   5  -3  144.69    2.60 
  -2   5  -3   38.83    1.40 
  -1   5  -3    3.80    0.92 
   3   5  -3   28.07    1.29 
   4   5  -3    0.69    0.59 
   5   5  -3   11.68    1.04 
   6   5  -3    2.81    0.92 
   7   5  -3   13.01    1.22 
   8   5  -3   -0.24    1.01 
   9   5  -3   13.18    1.39 
  10   5  -3    5.92    1.09 
  11   5  -3    0.65    0.96 
  12   5  -3    1.65    1.08 
  13   5  -3    4.31    1.33 
 -12   6  -3    0.18    0.47 
 -11   6  -3    0.01    0.36 
 -10   6  -3    1.42    0.31 
  -9   6  -3    2.91    0.68 
  -8   6  -3    2.81    0.71 
  -7   6  -3    0.50    0.58 
  -6   6  -3    7.53    0.84 
  -5   6  -3   72.72    1.98 
  -4   6  -3   48.80    1.60 
  -3   6  -3   15.85    1.02 
  -2   6  -3    3.55    0.80 
  -1   6  -3  125.12    3.07 
   3   6  -3    6.18    0.83 
   4   6  -3    2.00    0.79 
   5   6  -3   15.41    1.16 
   6   6  -3    0.67    0.92 
   7   6  -3    8.95    1.24 
   8   6  -3    0.55    0.95 
   9   6  -3    1.05    1.20 
  10   6  -3    0.29    0.98 
  11   6  -3    1.26    0.99 
  12   6  -3    0.33    1.07 
 -12   7  -3    0.46    0.37 
 -11   7  -3    0.00    0.27 
 -10   7  -3    0.35    0.25 
  -9   7  -3    0.23    0.57 
  -8   7  -3    2.12    0.59 
  -7   7  -3    2.32    0.66 
  -6   7  -3    2.07    0.66 
  -5   7  -3    5.49    0.88 
  -4   7  -3   42.74    1.69 
  -3   7  -3    3.65    0.79 
  -2   7  -3   -0.22    0.69 
  -1   7  -3   75.98    2.18 
   0   7  -3    9.19    0.94 
   3   7  -3    8.18    0.98 
   4   7  -3    0.53    0.75 
   5   7  -3    7.88    1.03 
   6   7  -3    6.79    1.18 
   7   7  -3    3.47    1.13 
 -10   8  -3    0.10    0.21 
  -9   8  -3    0.10    0.68 
  -8   8  -3    0.30    0.69 
  -7   8  -3    5.85    0.88 
  -6   8  -3    3.37    0.83 
  -5   8  -3    8.83    1.00 
  -4   8  -3    2.39    0.87 
  -3   8  -3    0.61    0.65 
  -2   8  -3    0.45    0.71 
  -1   8  -3    3.02    0.80 
   0   8  -3    0.68    0.62 
   2   8  -3   17.48    1.25 
   0   9  -3    0.77    0.66 
   1   9  -3    0.38    0.34 
  -6 -10  -2    2.42    1.41 
  -5 -10  -2    0.30    1.51 
  -4 -10  -2    0.38    1.27 
  -3 -10  -2    0.01    1.34 
  -2 -10  -2    1.33    1.60 
  -1 -10  -2    1.63    1.40 
  -8  -9  -2    0.22    1.07 
  -7  -9  -2    0.80    1.05 
  -6  -9  -2    6.37    1.24 
  -5  -9  -2   -0.22    0.90 
  -4  -9  -2    0.58    1.12 
  -3  -9  -2    2.33    1.18 
  -2  -9  -2    0.03    1.26 
  -1  -9  -2    0.80    1.30 
   0  -9  -2   -1.45    1.23 
 -10  -8  -2   -0.03    1.31 
  -9  -8  -2    3.53    1.32 
  -8  -8  -2   -0.10    0.77 
  -7  -8  -2    0.49    0.84 
  -6  -8  -2    6.20    1.07 
  -5  -8  -2   10.26    1.34 
  -4  -8  -2    2.09    1.03 
  -3  -8  -2    8.85    1.35 
  -2  -8  -2    9.28    1.43 
  -1  -8  -2    8.97    1.61 
   0  -8  -2   -0.09    1.22 
 -11  -7  -2    1.32    1.16 
 -10  -7  -2   -0.15    0.82 
  -9  -7  -2    0.26    0.79 
  -8  -7  -2    0.34    0.84 
  -7  -7  -2    0.08    0.84 
  -6  -7  -2    5.27    0.89 
  -5  -7  -2    5.24    0.99 
  -4  -7  -2    2.07    0.93 
  -3  -7  -2    2.09    1.01 
  -2  -7  -2    6.37    1.32 
  -1  -7  -2   11.14    1.57 
   0  -7  -2   -0.35    1.48 
   1  -7  -2    7.42    1.37 
 -12  -6  -2    3.18    1.30 
 -11  -6  -2    0.10    0.97 
 -10  -6  -2    0.70    0.91 
  -9  -6  -2    1.92    0.89 
  -8  -6  -2    2.05    0.82 
  -7  -6  -2   14.37    1.14 
  -6  -6  -2   23.13    1.42 
  -5  -6  -2    3.79    1.01 
  -4  -6  -2   24.86    1.39 
  -3  -6  -2    1.20    0.81 
  -2  -6  -2   30.65    1.69 
  -1  -6  -2    1.60    1.11 
   0  -6  -2    1.57    1.16 
   1  -6  -2    0.29    1.10 
 -13  -5  -2    0.58    1.15 
 -12  -5  -2    0.07    0.97 
 -11  -5  -2    2.99    1.10 
 -10  -5  -2    5.70    1.13 
  -9  -5  -2    0.42    0.85 
  -8  -5  -2    1.30    0.80 
  -7  -5  -2    2.67    0.81 
  -6  -5  -2    2.32    0.73 
  -5  -5  -2    3.06    0.66 
  -4  -5  -2    5.67    0.76 
  -3  -5  -2    4.45    0.74 
  -2  -5  -2   23.07    1.43 
  -1  -5  -2   28.85    1.38 
   0  -5  -2   55.46    2.10 
   1  -5  -2    0.63    0.77 
 -13  -4  -2    1.05    1.10 
 -12  -4  -2    1.96    1.04 
 -11  -4  -2    0.31    0.87 
 -10  -4  -2    5.64    1.01 
  -9  -4  -2    3.17    0.88 
  -8  -4  -2   24.11    1.39 
  -7  -4  -2    1.22    0.67 
  -6  -4  -2    2.41    0.66 
  -5  -4  -2    0.77    0.49 
  -4  -4  -2   87.57    1.95 
  -3  -4  -2  156.51    2.79 
  -2  -4  -2   57.23    1.66 
  -1  -4  -2  166.49    3.00 
   0  -4  -2    6.07    0.83 
   1  -4  -2   25.23    1.24 
 -14  -3  -2    2.98    1.23 
 -13  -3  -2   10.84    1.34 
 -12  -3  -2    0.18    0.81 
 -11  -3  -2   13.28    1.25 
 -10  -3  -2    1.32    0.77 
  -9  -3  -2  105.67    2.63 
  -8  -3  -2   56.53    1.94 
  -7  -3  -2   27.01    1.15 
  -6  -3  -2    1.02    0.49 
  -5  -3  -2   21.80    0.51 
  -4  -3  -2  145.43    1.46 
  -3  -3  -2    5.97    0.36 
  -2  -3  -2   33.96    1.24 
  -1  -3  -2   62.10    1.51 
   0  -3  -2   18.48    1.04 
   1  -3  -2  101.04    1.96 
 -14  -2  -2   -0.07    0.83 
 -13  -2  -2    6.78    1.06 
 -12  -2  -2    0.54    0.72 
 -11  -2  -2    8.98    0.97 
 -10  -2  -2    0.89    0.66 
  -9  -2  -2   25.43    1.24 
  -8  -2  -2    8.47    0.74 
  -7  -2  -2    6.85    0.67 
  -6  -2  -2    8.08    0.33 
  -5  -2  -2   24.45    0.54 
  -4  -2  -2    8.09    0.31 
  -3  -2  -2    0.85    0.18 
  -2  -2  -2  511.36   10.06 
  -1  -2  -2  814.00   30.17 
   0  -2  -2  413.99   18.34 
   1  -2  -2   76.70    1.40 
 -14  -1  -2    0.86    0.74 
 -13  -1  -2    0.19    0.63 
 -12  -1  -2    0.07    0.57 
 -11  -1  -2    0.43    0.64 
 -10  -1  -2   11.38    0.94 
  -9  -1  -2   10.48    0.84 
  -8  -1  -2   16.73    0.91 
  -7  -1  -2   27.32    0.73 
  -6  -1  -2   27.88    0.58 
  -5  -1  -2  218.38    4.28 
  -4  -1  -2    5.99    0.25 
  -3  -1  -2  188.92    4.23 
  -2  -1  -2 1187.36    7.29 
  -1  -1  -2  320.15    2.69 
   0  -1  -2  683.62   26.37 
   1  -1  -2  983.81    6.58 
 -14   0  -2    6.53    0.95 
 -13   0  -2    0.30    0.52 
 -12   0  -2    0.39    0.46 
 -11   0  -2    0.40    0.55 
 -10   0  -2   -0.62    0.49 
  -9   0  -2   -0.13    0.49 
  -8   0  -2    8.85    0.40 
  -7   0  -2   -0.25    0.21 
  -6   0  -2   27.73    0.54 
  -5   0  -2    0.05    0.15 
  -4   0  -2  188.00    3.30 
  -3   0  -2    0.13    0.14 
  -2   0  -2  667.59    4.41 
  -1   0  -2    0.42    0.07 
   0   0  -2  216.30    1.83 
   1   0  -2    0.20    0.08 
   2   0  -2 2248.45   10.35 
   3   0  -2    0.21    0.39 
   4   0  -2   29.58    0.89 
   5   0  -2   -0.39    0.37 
   6   0  -2  638.35    5.68 
   7   0  -2    0.37    0.50 
 -14   1  -2    0.62    0.62 
 -13   1  -2    0.57    0.55 
 -12   1  -2   -0.23    0.52 
 -11   1  -2   -0.08    0.45 
 -10   1  -2    9.75    0.80 
  -9   1  -2    7.78    0.44 
  -8   1  -2   14.55    0.49 
  -7   1  -2   21.08    0.57 
  -6   1  -2   19.79    1.62 
  -5   1  -2  152.50   17.23 
  -4   1  -2    4.80    0.26 
  -3   1  -2  176.14    1.70 
  -2   1  -2 1264.70    7.88 
  -1   1  -2  311.55    5.86 
   0   1  -2  705.85    5.01 
   1   1  -2  937.01   15.56 
   2   1  -2   27.29    0.68 
   3   1  -2   27.88    0.82 
   4   1  -2    0.02    0.34 
   5   1  -2   33.30    1.04 
   6   1  -2   67.80    1.56 
   7   1  -2    6.27    0.71 
   8   1  -2    9.22    0.86 
   9   1  -2    0.11    0.62 
 -14   2  -2   -0.30    0.55 
 -13   2  -2    5.02    0.75 
 -12   2  -2    0.41    0.52 
 -11   2  -2    9.11    0.75 
 -10   2  -2    0.52    0.47 
  -9   2  -2   21.91    0.95 
  -8   2  -2    7.02    0.40 
  -7   2  -2    5.20    0.32 
  -6   2  -2    7.06    0.50 
  -5   2  -2   23.43    0.80 
  -4   2  -2    8.38    0.48 
  -3   2  -2    1.00    0.27 
  -2   2  -2  509.56    3.71 
  -1   2  -2  758.53    5.17 
   2   2  -2  312.25    3.06 
   3   2  -2   85.03    1.66 
   4   2  -2    1.02    0.47 
   5   2  -2    5.71    0.68 
   6   2  -2   14.23    0.90 
   7   2  -2    2.81    0.59 
   8   2  -2    9.26    0.88 
   9   2  -2   49.65    1.73 
  10   2  -2    0.76    0.76 
  11   2  -2    1.74    0.78 
 -14   3  -2    2.27    0.67 
 -13   3  -2    7.61    0.81 
 -12   3  -2    0.22    0.54 
 -11   3  -2   10.09    0.78 
 -10   3  -2    1.04    0.31 
  -9   3  -2   75.96    1.21 
  -8   3  -2   43.87    1.28 
  -7   3  -2   27.68    0.98 
  -6   3  -2    1.16    0.39 
  -5   3  -2   19.08    0.71 
  -4   3  -2  152.28    2.06 
  -3   3  -2    6.72    0.50 
  -2   3  -2   35.27    0.94 
  -1   3  -2   94.91    1.93 
   2   3  -2   21.70    0.83 
   3   3  -2  117.08    1.98 
   4   3  -2   14.81    0.43 
   5   3  -2    1.35    0.59 
   6   3  -2    0.91    0.68 
   7   3  -2   11.01    0.98 
   8   3  -2    5.46    0.84 
   9   3  -2    0.44    0.77 
  10   3  -2   31.69    1.67 
  11   3  -2    7.77    1.10 
  12   3  -2    1.15    0.82 
 -14   4  -2    1.11    0.71 
 -13   4  -2    1.04    0.56 
 -12   4  -2    2.70    0.60 
 -11   4  -2    0.43    0.30 
 -10   4  -2    4.22    0.39 
  -9   4  -2    2.28    0.53 
  -8   4  -2   23.36    1.11 
  -7   4  -2    2.10    0.52 
  -6   4  -2    2.13    0.46 
  -5   4  -2    0.54    0.45 
  -4   4  -2  103.77    1.91 
  -3   4  -2  149.82    2.23 
  -2   4  -2   62.28    1.53 
  -1   4  -2  216.00    3.41 
   3   4  -2   30.66    1.23 
   4   4  -2   25.33    1.07 
   5   4  -2   97.98    2.13 
   6   4  -2    3.36    0.75 
   7   4  -2   -0.05    0.81 
   8   4  -2    1.43    0.91 
   9   4  -2   74.81    2.36 
  10   4  -2    2.66    0.98 
  11   4  -2    1.01    0.88 
  12   4  -2    4.05    1.05 
  13   4  -2    1.70    0.95 
 -13   5  -2    0.09    0.57 
 -12   5  -2    0.17    0.45 
 -11   5  -2    1.66    0.34 
 -10   5  -2    4.55    0.64 
  -9   5  -2    0.38    0.57 
  -8   5  -2    1.43    0.56 
  -7   5  -2    2.68    0.55 
  -6   5  -2    2.79    0.62 
  -5   5  -2    2.91    0.61 
  -4   5  -2    5.67    0.68 
  -3   5  -2    5.02    0.68 
  -2   5  -2   20.38    1.09 
  -1   5  -2   40.20    1.65 
   3   5  -2   36.53    1.35 
   4   5  -2   21.30    1.10 
   5   5  -2   14.43    1.03 
   6   5  -2    0.37    0.83 
   7   5  -2    7.05    1.12 
   8   5  -2   14.52    1.39 
   9   5  -2    0.90    0.99 
  10   5  -2    0.05    0.80 
  11   5  -2    0.54    0.91 
  12   5  -2    1.93    0.97 
  13   5  -2    2.53    1.21 
 -12   6  -2    1.81    0.38 
 -11   6  -2    0.32    0.30 
 -10   6  -2    1.09    0.64 
  -9   6  -2    2.15    0.68 
  -8   6  -2    1.61    0.64 
  -7   6  -2   16.28    1.03 
  -6   6  -2   26.58    1.27 
  -5   6  -2    3.83    0.82 
  -4   6  -2   33.19    1.45 
  -3   6  -2    2.16    0.69 
  -2   6  -2   26.98    1.27 
  -1   6  -2    0.38    0.91 
   3   6  -2    2.80    0.66 
   4   6  -2    3.42    0.82 
   5   6  -2   32.65    1.56 
   6   6  -2   47.78    1.99 
   7   6  -2   -0.84    0.97 
   8   6  -2    0.17    1.25 
   9   6  -2   -1.09    1.05 
  10   6  -2    1.50    0.95 
  11   6  -2    0.03    0.94 
 -12   7  -2    0.25    0.36 
 -11   7  -2    0.65    0.29 
 -10   7  -2    0.93    0.71 
  -9   7  -2    0.15    0.65 
  -8   7  -2   -0.15    0.55 
  -7   7  -2   -0.10    0.65 
  -6   7  -2    6.91    0.87 
  -5   7  -2    6.21    0.88 
  -4   7  -2    1.16    0.72 
  -3   7  -2    1.25    0.77 
  -2   7  -2    3.73    0.71 
  -1   7  -2    8.44    1.14 
   3   7  -2    0.93    0.65 
   4   7  -2    1.31    0.83 
   5   7  -2   10.09    1.06 
   6   7  -2    8.20    1.23 
 -10   8  -2    0.54    0.74 
  -9   8  -2    4.72    0.88 
  -8   8  -2    0.40    0.65 
  -7   8  -2    0.95    0.83 
  -6   8  -2    7.60    0.99 
  -5   8  -2    9.39    0.96 
  -4   8  -2    1.71    0.82 
  -3   8  -2    8.65    0.96 
  -2   8  -2    8.94    0.98 
  -1   8  -2    5.84    0.86 
   0   8  -2    0.55    0.56 
  -7   9  -2    0.29    0.86 
  -6   9  -2    7.28    1.00 
  -5   9  -2    0.85    0.75 
  -4   9  -2    0.87    0.68 
  -3   9  -2    1.95    0.71 
  -2   9  -2   -0.13    0.55 
  -1   9  -2    1.34    0.62 
   0   9  -2   -0.54    0.60 
  -2 -11  -1   -0.37    1.66 
  -6 -10  -1   -0.12    1.25 
  -5 -10  -1    1.10    1.52 
  -4 -10  -1    0.53    1.28 
  -3 -10  -1    3.95    1.52 
  -2 -10  -1   -0.11    1.46 
  -1 -10  -1   -0.73    1.38 
  -8  -9  -1   -0.01    1.05 
  -7  -9  -1    1.34    1.03 
  -6  -9  -1    0.41    1.06 
  -5  -9  -1    2.89    1.05 
  -4  -9  -1    1.05    1.16 
  -3  -9  -1    2.76    1.21 
  -2  -9  -1   -0.68    1.19 
  -1  -9  -1   -0.03    1.31 
   0  -9  -1   -0.52    1.21 
 -10  -8  -1    0.46    1.35 
  -9  -8  -1    1.28    1.19 
  -8  -8  -1    2.36    0.99 
  -7  -8  -1    1.88    0.88 
  -6  -8  -1    1.15    0.89 
  -5  -8  -1    5.55    1.16 
  -4  -8  -1   39.77    2.14 
  -3  -8  -1   10.02    1.53 
  -2  -8  -1   10.87    1.49 
  -1  -8  -1   -0.71    1.25 
   0  -8  -1   -0.20    1.17 
 -11  -7  -1    2.79    1.32 
 -10  -7  -1   -0.25    0.84 
  -9  -7  -1    0.49    0.80 
  -8  -7  -1    0.03    0.81 
  -7  -7  -1   -0.13    0.78 
  -6  -7  -1   20.34    1.39 
  -5  -7  -1    3.47    0.94 
  -4  -7  -1    0.52    0.79 
  -3  -7  -1    6.03    1.19 
  -2  -7  -1    3.10    1.21 
  -1  -7  -1    2.30    1.28 
   0  -7  -1    7.63    1.60 
   1  -7  -1  174.81    3.90 
 -12  -6  -1    1.60    1.23 
 -11  -6  -1    0.41    1.00 
 -10  -6  -1    0.11    0.87 
  -9  -6  -1    1.16    0.86 
  -8  -6  -1    2.92    0.88 
  -7  -6  -1   10.59    1.05 
  -6  -6  -1    6.07    0.94 
  -5  -6  -1   33.03    1.76 
  -4  -6  -1    7.46    0.95 
  -3  -6  -1   14.89    1.20 
  -2  -6  -1    4.75    1.01 
  -1  -6  -1   87.00    2.79 
   0  -6  -1   10.71    1.40 
   1  -6  -1    5.66    1.22 
 -13  -5  -1    0.19    1.16 
 -12  -5  -1    0.03    0.91 
 -11  -5  -1    1.87    0.96 
 -10  -5  -1   -0.24    0.85 
  -9  -5  -1   12.27    1.19 
  -8  -5  -1    0.07    0.75 
  -7  -5  -1   17.06    1.22 
  -6  -5  -1    6.84    0.88 
  -5  -5  -1   15.59    1.01 
  -4  -5  -1   56.50    1.88 
  -3  -5  -1   30.73    1.33 
  -2  -5  -1   52.16    1.84 
  -1  -5  -1    1.68    0.75 
   0  -5  -1   13.24    1.21 
   1  -5  -1    9.14    1.03 
 -13  -4  -1   -0.24    1.03 
 -12  -4  -1    7.06    1.26 
 -11  -4  -1    1.07    0.96 
 -10  -4  -1    4.53    1.03 
  -9  -4  -1    8.47    0.96 
  -8  -4  -1    9.43    1.04 
  -7  -4  -1   12.68    1.00 
  -6  -4  -1    8.40    0.88 
  -5  -4  -1    0.69    0.48 
  -4  -4  -1    9.16    0.78 
  -3  -4  -1   35.78    1.33 
  -2  -4  -1    0.67    0.61 
  -1  -4  -1    9.98    0.96 
   0  -4  -1    5.28    0.78 
   1  -4  -1   14.22    1.02 
 -14  -3  -1    0.10    1.05 
 -13  -3  -1    0.76    0.97 
 -12  -3  -1    1.21    0.94 
 -11  -3  -1    0.79    0.69 
 -10  -3  -1    3.99    0.94 
  -9  -3  -1    2.22    0.82 
  -8  -3  -1   14.50    1.01 
  -7  -3  -1    1.31    0.63 
  -6  -3  -1   23.71    1.02 
  -5  -3  -1   12.95    0.73 
  -4  -3  -1   39.89    1.25 
  -3  -3  -1    9.14    0.61 
  -2  -3  -1  856.04    6.74 
  -1  -3  -1   88.60    1.80 
   0  -3  -1   86.85    1.95 
   1  -3  -1   80.94    1.70 
 -14  -2  -1    0.45    1.00 
 -13  -2  -1    2.63    0.81 
 -12  -2  -1    7.51    1.01 
 -11  -2  -1    2.19    0.78 
 -10  -2  -1   28.64    1.35 
  -9  -2  -1    3.26    0.72 
  -8  -2  -1   29.35    1.23 
  -7  -2  -1    1.50    0.46 
  -6  -2  -1   66.00    0.71 
  -5  -2  -1    0.83    0.18 
  -4  -2  -1   12.29    0.31 
  -3  -2  -1    4.18    0.23 
  -2  -2  -1   40.75    0.59 
  -1  -2  -1  166.12    2.27 
   0  -2  -1  506.00    4.30 
 -14  -1  -1    1.36    0.79 
 -13  -1  -1    1.19    0.70 
 -12  -1  -1    3.68    0.77 
 -11  -1  -1    0.75    0.68 
 -10  -1  -1   66.59    1.91 
  -9  -1  -1   47.47    1.51 
  -8  -1  -1   12.42    0.79 
  -7  -1  -1    1.93    0.24 
  -6  -1  -1    4.52    0.28 
  -5  -1  -1   21.92    0.54 
  -4  -1  -1  152.59    5.77 
  -3  -1  -1   16.94    0.58 
  -2  -1  -1   11.53    0.28 
  -1  -1  -1   19.94    0.97 
   0  -1  -1   41.14    1.58 
 -15   0  -1    2.83    0.94 
 -14   0  -1    0.62    0.65 
 -13   0  -1    2.45    0.58 
 -12   0  -1   -0.05    0.37 
 -11   0  -1   19.76    1.13 
 -10   0  -1   -0.58    0.54 
  -9   0  -1    1.36    0.48 
  -8   0  -1   -0.13    0.22 
  -7   0  -1  129.95    1.71 
  -6   0  -1   -0.23    0.18 
  -5   0  -1    1.27    0.19 
  -4   0  -1    0.16    0.13 
  -3   0  -1  168.47    1.12 
  -2   0  -1    0.11    0.11 
  -1   0  -1  483.10    3.73 
   1   0  -1  620.38    4.74 
   2   0  -1    0.63    0.28 
   3   0  -1  599.95    4.54 
   4   0  -1   -0.10    0.27 
   5   0  -1  168.88    2.33 
   6   0  -1    0.85    0.54 
 -14   1  -1    1.04    0.67 
 -13   1  -1    0.87    0.48 
 -12   1  -1    2.66    0.61 
 -11   1  -1    0.48    0.53 
 -10   1  -1   60.84    1.65 
  -9   1  -1   44.32    1.33 
  -8   1  -1   12.40    0.48 
  -7   1  -1    1.80    0.27 
  -6   1  -1    3.74    0.41 
  -5   1  -1   18.26    0.63 
  -4   1  -1  138.27    1.66 
  -3   1  -1   17.84    0.57 
  -2   1  -1   11.70    0.40 
  -1   1  -1   24.69    0.47 
   1   1  -1 1048.35    7.11 
   2   1  -1  890.90    5.91 
   3   1  -1   42.22    0.93 
   4   1  -1   -0.13    0.36 
   5   1  -1    1.82    0.43 
   6   1  -1    4.95    0.62 
   7   1  -1    1.20    0.53 
   8   1  -1   39.34    1.43 
   9   1  -1    0.44    0.62 
 -14   2  -1    0.32    0.54 
 -13   2  -1    1.94    0.61 
 -12   2  -1    5.47    0.72 
 -11   2  -1    2.01    0.55 
 -10   2  -1   25.06    1.09 
  -9   2  -1    2.59    0.34 
  -8   2  -1   25.86    0.95 
  -7   2  -1    0.76    0.35 
  -6   2  -1   53.23    1.13 
  -5   2  -1    0.04    0.34 
  -4   2  -1   11.71    0.50 
  -3   2  -1    3.90    0.37 
  -2   2  -1   46.01    0.94 
  -1   2  -1  146.15    1.79 
   2   2  -1  774.83    5.55 
   3   2  -1  139.59    1.90 
   4   2  -1   71.29    1.44 
   5   2  -1   34.32    1.18 
   6   2  -1   70.48    1.62 
   7   2  -1    4.27    0.64 
   8   2  -1   17.40    1.06 
   9   2  -1   28.25    1.39 
  10   2  -1   44.09    1.75 
 -14   3  -1    0.25    0.59 
 -13   3  -1    0.49    0.56 
 -12   3  -1    1.23    0.54 
 -11   3  -1    0.80    0.48 
 -10   3  -1    3.41    0.39 
  -9   3  -1    1.48    0.46 
  -8   3  -1   12.56    0.76 
  -7   3  -1    1.43    0.47 
  -6   3  -1   25.50    0.92 
  -5   3  -1   13.35    0.64 
  -4   3  -1   35.66    0.97 
  -3   3  -1    8.22    0.54 
  -2   3  -1  825.01    6.06 
  -1   3  -1  123.07    2.24 
   2   3  -1  147.94    2.12 
   3   3  -1  144.28    2.12 
   4   3  -1  222.54    2.77 
   5   3  -1  100.57    1.98 
   6   3  -1   -0.19    0.62 
   7   3  -1    0.56    0.61 
   8   3  -1   93.14    2.23 
   9   3  -1    4.26    0.88 
  10   3  -1    6.76    1.00 
  11   3  -1    1.09    0.89 
  12   3  -1   15.48    1.33 
 -14   4  -1    3.80    0.84 
 -13   4  -1    0.23    0.51 
 -12   4  -1    5.62    0.74 
 -11   4  -1    1.00    0.36 
 -10   4  -1    3.52    0.59 
  -9   4  -1    7.07    0.66 
  -8   4  -1    9.63    0.80 
  -7   4  -1   14.09    0.87 
  -6   4  -1    9.01    0.68 
  -5   4  -1    1.03    0.44 
  -4   4  -1    8.25    0.65 
  -3   4  -1   39.68    1.32 
  -2   4  -1    1.61    0.53 
  -1   4  -1    9.80    0.82 
   2   4  -1  468.90    4.40 
   3   4  -1   84.13    1.83 
   4   4  -1  218.68    3.05 
   5   4  -1   10.05    0.91 
   6   4  -1    0.83    0.66 
   7   4  -1    2.11    0.89 
   8   4  -1   50.66    1.81 
   9   4  -1    1.81    0.81 
  10   4  -1    2.10    0.86 
  11   4  -1    2.87    0.92 
  12   4  -1    1.80    0.88 
  13   4  -1    4.07    1.08 
 -13   5  -1    0.60    0.62 
 -12   5  -1   -0.05    0.46 
 -11   5  -1    1.12    0.33 
 -10   5  -1    0.33    0.45 
  -9   5  -1   12.08    0.97 
  -8   5  -1    0.50    0.61 
  -7   5  -1   17.66    1.00 
  -6   5  -1    7.31    0.78 
  -5   5  -1   18.09    1.04 
  -4   5  -1   56.66    1.61 
  -3   5  -1   32.69    1.24 
  -2   5  -1   48.18    1.52 
  -1   5  -1    1.32    0.62 
   3   5  -1    2.80    0.59 
   4   5  -1   57.27    1.72 
   5   5  -1    0.49    0.70 
   6   5  -1    1.85    0.81 
   7   5  -1    6.13    1.14 
   8   5  -1    3.42    1.05 
   9   5  -1    2.30    0.86 
  10   5  -1    0.23    0.80 
  11   5  -1   10.67    1.33 
  12   5  -1    1.41    1.06 
  13   5  -1    3.87    1.21 
 -12   6  -1    0.42    0.35 
 -11   6  -1   -0.09    0.48 
 -10   6  -1   -0.31    0.54 
  -9   6  -1    1.02    0.59 
  -8   6  -1    2.38    0.62 
  -7   6  -1   13.17    1.01 
  -6   6  -1    8.51    0.86 
  -5   6  -1   38.52    1.60 
  -4   6  -1    7.53    0.88 
  -3   6  -1   12.59    1.00 
  -2   6  -1    2.28    0.70 
  -1   6  -1   88.68    2.53 
   3   6  -1    7.33    0.83 
   4   6  -1    0.27    0.57 
   5   6  -1    0.69    0.75 
   6   6  -1    1.53    1.00 
   7   6  -1    1.51    0.91 
   8   6  -1    1.05    1.05 
   9   6  -1    2.09    1.01 
 -12   7  -1    0.40    0.44 
 -11   7  -1    2.91    0.79 
 -10   7  -1    1.08    0.74 
  -9   7  -1    1.03    0.66 
  -8   7  -1    0.34    0.62 
  -7   7  -1   -0.48    0.68 
  -6   7  -1   25.53    1.43 
  -5   7  -1    2.98    0.77 
  -4   7  -1    1.48    0.73 
  -3   7  -1    4.90    0.83 
  -2   7  -1    1.97    0.65 
  -1   7  -1    2.58    1.08 
   2   7  -1    0.29    0.60 
   3   7  -1    0.82    0.69 
 -10   8  -1    0.62    0.79 
  -9   8  -1    0.32    0.62 
  -7   8  -1    3.15    0.83 
  -6   8  -1    1.31    0.86 
  -5   8  -1    4.41    0.88 
  -4   8  -1   35.96    1.64 
  -3   8  -1    7.76    0.95 
  -2   8  -1    9.08    1.00 
  -1   8  -1   -0.66    0.64 
   0   8  -1    0.58    0.59 
  -9   9  -1    0.47    0.79 
  -8   9  -1    0.65    0.77 
  -7   9  -1    0.99    0.74 
  -6   9  -1    0.04    0.74 
  -5   9  -1    2.82    0.81 
  -4   9  -1    0.20    0.80 
  -3   9  -1    3.47    0.77 
  -2   9  -1   -0.09    0.62 
  -1   9  -1    0.42    0.63 
   0   9  -1   -0.18    0.56 
  -3  10  -1    1.82    0.72 
  -2  10  -1   -0.37    0.52 
  -1  10  -1    0.15    0.48 
   0  10  -1   -0.21    0.36 
   1  10  -1    0.16    0.19 
  -6 -10   0    0.08    1.27 
  -5 -10   0   -0.04    1.47 
  -4 -10   0    0.70    1.32 
  -3 -10   0    0.57    1.35 
  -2 -10   0   -0.27    1.53 
  -1 -10   0    0.62    1.49 
  -9  -9   0    1.55    1.31 
  -8  -9   0   -0.58    1.08 
  -7  -9   0    4.05    1.14 
  -6  -9   0   -0.59    0.95 
  -5  -9   0    2.29    1.03 
  -4  -9   0    2.00    1.24 
  -3  -9   0   17.33    1.71 
  -2  -9   0   -0.43    1.24 
  -1  -9   0   -1.27    1.42 
   0  -9   0   -1.78    1.09 
 -10  -8   0   -0.12    1.40 
  -9  -8   0   -0.38    1.08 
  -8  -8   0    0.65    0.95 
  -7  -8   0   13.70    1.34 
  -6  -8   0   10.89    1.28 
  -5  -8   0    0.39    1.02 
  -4  -8   0    7.58    1.29 
  -3  -8   0   17.30    1.63 
  -2  -8   0    1.82    1.22 
  -1  -8   0    0.19    1.42 
   0  -8   0   26.64    2.01 
 -11  -7   0    0.90    1.23 
 -10  -7   0   -0.68    0.81 
  -9  -7   0    1.27    0.89 
  -8  -7   0    0.14    0.77 
  -7  -7   0    4.13    0.98 
  -6  -7   0    2.38    0.91 
  -5  -7   0    8.65    1.09 
  -4  -7   0   -0.04    0.79 
  -3  -7   0    3.50    1.07 
  -2  -7   0    2.00    1.20 
   0  -7   0    0.04    1.41 
 -12  -6   0    1.24    1.26 
 -11  -6   0   -0.02    0.99 
 -10  -6   0    3.75    1.05 
  -9  -6   0    1.40    0.87 
  -8  -6   0    1.49    0.83 
  -7  -6   0   -0.18    0.68 
  -6  -6   0   16.80    1.21 
  -5  -6   0   17.19    1.35 
  -4  -6   0   24.26    1.37 
  -3  -6   0   19.23    1.27 
  -2  -6   0    0.64    0.84 
  -1  -6   0    0.56    0.98 
   0  -6   0   95.06    3.11 
   1  -6   0    0.49    1.06 
 -13  -5   0    3.17    1.38 
 -12  -5   0    0.07    0.98 
 -11  -5   0    2.02    0.96 
 -10  -5   0    0.27    0.86 
  -9  -5   0   -0.40    0.86 
  -8  -5   0   37.30    1.82 
  -7  -5   0   13.05    1.03 
  -6  -5   0   16.00    1.13 
  -5  -5   0    1.02    0.60 
  -4  -5   0    6.21    0.86 
  -3  -5   0    8.83    0.85 
  -2  -5   0   29.51    1.49 
  -1  -5   0   41.18    1.65 
   0  -5   0    1.47    0.88 
   1  -5   0   46.89    1.83 
 -13  -4   0    0.19    1.10 
 -12  -4   0    0.54    1.02 
 -11  -4   0   27.82    1.77 
 -10  -4   0   24.53    1.60 
  -9  -4   0   16.90    1.36 
  -8  -4   0   17.00    1.20 
  -7  -4   0   16.86    1.12 
  -6  -4   0    3.43    0.67 
  -5  -4   0    0.84    0.49 
  -4  -4   0   28.61    1.16 
  -3  -4   0   84.47    1.91 
  -2  -4   0   51.07    1.55 
  -1  -4   0    5.56    0.81 
   0  -4   0   43.83    1.57 
   1  -4   0    7.08    0.83 
 -14  -3   0    0.03    1.16 
 -13  -3   0    9.41    1.37 
 -12  -3   0    2.16    0.96 
 -11  -3   0    0.56    0.87 
 -10  -3   0   31.68    1.63 
  -9  -3   0    1.78    0.83 
  -8  -3   0   23.99    1.18 
  -7  -3   0    8.40    0.79 
  -6  -3   0    1.45    0.52 
  -5  -3   0    3.35    0.53 
  -4  -3   0  125.00    2.00 
  -3  -3   0   33.27    1.05 
  -2  -3   0  315.52    3.35 
  -1  -3   0   -0.07    0.50 
   0  -3   0    0.13    0.61 
   1  -3   0    0.18    0.54 
 -14  -2   0    0.99    0.97 
 -13  -2   0    7.05    1.10 
 -12  -2   0   10.91    1.05 
 -11  -2   0    1.22    0.80 
 -10  -2   0   16.24    1.21 
  -9  -2   0    0.35    0.68 
  -8  -2   0    1.17    0.60 
  -7  -2   0   67.10    1.65 
  -6  -2   0    3.31    0.50 
  -5  -2   0   46.63    1.21 
  -4  -2   0   72.28    1.34 
  -3  -2   0    0.22    0.29 
  -2  -2   0   50.23    1.07 
  -1  -2   0 1148.11    8.02 
   0  -2   0 1329.32    8.98 
 -14  -1   0    0.83    0.83 
 -13  -1   0    0.80    0.82 
 -12  -1   0    1.92    0.84 
 -11  -1   0    3.27    0.84 
 -10  -1   0    1.68    0.67 
  -9  -1   0   21.33    0.98 
  -8  -1   0   36.82    1.16 
  -7  -1   0    6.99    0.50 
  -6  -1   0    0.07    0.18 
  -5  -1   0   38.68    1.38 
  -4  -1   0   47.16    0.94 
  -3  -1   0  201.94    1.97 
  -2  -1   0    7.73    0.38 
  -1  -1   0  169.83    1.64 
   0  -1   0    0.61    0.17 
 -14   0   0    2.38    0.69 
 -13   0   0   -0.16    0.47 
 -12   0   0    3.28    0.69 
 -11   0   0    0.56    0.61 
 -10   0   0    3.06    0.62 
  -9   0   0    0.06    0.43 
  -8   0   0   20.97    0.94 
  -7   0   0    0.37    0.20 
  -6   0   0   74.56    0.88 
  -5   0   0   -0.02    0.19 
  -4   0   0  182.07    1.97 
  -3   0   0    0.17    0.25 
  -2   0   0 1209.62    7.59 
  -1   0   0    5.50    0.17 
   1   0   0    0.41    0.09 
   2   0   0 1143.20    7.40 
   3   0   0    0.01    0.33 
   4   0   0  171.47    2.06 
 -14   1   0    0.55    0.64 
 -13   1   0    0.39    0.56 
 -12   1   0    1.28    0.57 
 -11   1   0    2.65    0.64 
 -10   1   0    1.27    0.56 
  -9   1   0   24.21    1.06 
  -8   1   0   44.13    1.31 
  -7   1   0    8.16    0.59 
  -6   1   0    0.29    0.31 
  -5   1   0   36.49    0.94 
  -4   1   0   47.69    0.91 
  -3   1   0  256.79    2.38 
  -2   1   0    9.73    0.43 
  -1   1   0  151.23    1.40 
   1   1   0  157.19    1.48 
   2   1   0    9.16    0.44 
   3   1   0  231.90    2.30 
   4   1   0   52.30    1.10 
   5   1   0   38.78    1.10 
   6   1   0    0.04    0.42 
   7   1   0    8.48    0.73 
   8   1   0   45.54    1.47 
 -14   2   0    0.31    0.60 
 -13   2   0    5.69    0.75 
 -12   2   0    9.26    0.84 
 -11   2   0    0.46    0.50 
 -10   2   0   11.56    0.83 
  -9   2   0    0.45    0.43 
  -8   2   0    0.91    0.36 
  -7   2   0   66.11    1.49 
  -6   2   0    3.60    0.49 
  -5   2   0   48.64    1.13 
  -4   2   0   76.95    1.29 
  -3   2   0    0.50    0.31 
  -2   2   0   51.98    1.03 
  -1   2   0 1384.46    9.50 
   2   2   0   50.51    0.96 
   3   2   0    0.17    0.37 
   4   2   0   79.82    1.42 
   5   2   0   50.44    1.28 
   6   2   0    3.61    0.55 
   7   2   0   72.26    1.77 
   8   2   0    0.54    0.55 
   9   2   0    0.48    0.64 
  10   2   0   14.26    1.16 
 -14   3   0    0.93    0.66 
 -13   3   0    6.38    0.83 
 -12   3   0    2.06    0.57 
 -11   3   0   -0.17    0.44 
 -10   3   0   24.32    1.09 
  -9   3   0    1.20    0.52 
  -8   3   0   20.71    0.90 
  -7   3   0    8.86    0.68 
  -6   3   0    1.10    0.41 
  -5   3   0    3.40    0.48 
  -4   3   0  134.72    1.96 
  -3   3   0   37.57    1.08 
  -2   3   0  322.39    3.25 
  -1   3   0   -0.67    0.44 
   2   3   0  312.18    3.05 
   3   3   0   32.46    0.91 
   4   3   0  153.74    2.24 
   5   3   0    3.89    0.67 
   6   3   0    1.24    0.57 
   7   3   0    8.62    0.78 
   8   3   0   25.88    1.24 
   9   3   0    1.16    0.70 
  10   3   0   34.46    1.65 
  11   3   0    1.42    0.78 
 -14   4   0    2.87    0.79 
 -13   4   0    0.54    0.52 
 -12   4   0    0.94    0.54 
 -11   4   0   17.78    0.96 
 -10   4   0   19.97    1.08 
  -9   4   0   14.79    0.94 
  -8   4   0   18.64    1.04 
  -7   4   0   17.65    0.94 
  -6   4   0    3.26    0.53 
  -5   4   0    0.60    0.44 
  -4   4   0   31.02    1.09 
  -3   4   0   85.93    1.78 
  -2   4   0   46.43    1.26 
  -1   4   0    5.58    0.72 
   2   4   0   51.36    1.33 
   3   4   0   87.31    1.74 
   4   4   0   32.21    1.13 
   5   4   0    0.86    0.64 
   6   4   0    4.33    0.79 
   7   4   0   21.09    1.25 
   8   4   0   20.75    1.22 
   9   4   0   18.82    1.25 
  10   4   0   25.34    1.52 
  11   4   0   28.21    1.65 
  12   4   0    2.31    0.84 
 -13   5   0    2.19    0.66 
 -12   5   0    0.55    0.46 
 -11   5   0    1.18    0.57 
 -10   5   0    0.87    0.47 
  -9   5   0    0.46    0.54 
  -8   5   0   40.06    1.53 
  -7   5   0   14.24    0.92 
  -6   5   0   17.41    1.01 
  -5   5   0    0.52    0.61 
  -4   5   0    5.52    0.75 
  -3   5   0    9.64    0.81 
  -2   5   0   27.86    1.31 
  -1   5   0   41.29    1.57 
   2   5   0   22.48    0.96 
   3   5   0    9.24    0.79 
   4   5   0    5.39    0.67 
   5   5   0    0.67    0.83 
   6   5   0   20.86    1.25 
   7   5   0   16.32    1.27 
   8   5   0   44.90    1.83 
   9   5   0   -0.05    0.78 
  10   5   0    0.53    0.87 
  11   5   0    1.92    0.85 
  12   5   0    0.48    0.89 
 -12   6   0    0.57    0.64 
 -11   6   0    0.05    0.49 
 -10   6   0    3.26    0.71 
  -9   6   0    1.64    0.70 
  -8   6   0    1.04    0.57 
  -7   6   0    0.33    0.67 
  -6   6   0   22.29    1.26 
  -5   6   0   17.57    1.11 
  -4   6   0   27.88    1.34 
  -3   6   0   21.19    1.18 
  -2   6   0    0.24    0.74 
  -1   6   0    0.69    0.79 
   2   6   0    0.89    0.49 
   3   6   0   23.18    1.22 
   4   6   0   27.53    1.27 
   5   6   0   18.59    1.25 
   6   6   0   22.39    1.45 
   7   6   0    0.09    1.21 
 -11   7   0    0.40    0.76 
 -10   7   0   -0.16    0.63 
  -9   7   0    1.81    0.66 
  -8   7   0    0.69    0.64 
  -7   7   0    4.80    0.90 
  -6   7   0    1.95    0.83 
  -5   7   0   10.43    1.03 
  -4   7   0    0.13    0.76 
  -3   7   0    1.06    0.74 
  -2   7   0    2.04    0.82 
  -1   7   0    3.10    1.04 
 -10   8   0    0.29    0.83 
  -8   8   0    0.01    0.65 
  -7   8   0   15.91    1.26 
  -6   8   0   12.40    1.21 
  -5   8   0    0.95    0.76 
  -4   8   0    8.75    1.13 
  -3   8   0   15.09    1.17 
  -2   8   0    1.56    0.65 
  -1   8   0   -0.35    0.68 
   0   8   0   15.46    1.03 
  -9   9   0    0.91    0.92 
  -8   9   0    0.39    0.81 
  -7   9   0    4.73    0.92 
  -6   9   0   -0.52    0.76 
  -5   9   0    2.03    0.77 
  -4   9   0    0.84    0.80 
  -3   9   0   15.05    1.14 
  -2   9   0    0.23    0.62 
  -1   9   0   -0.26    0.47 
   0   9   0    0.79    0.52 
  -6  10   0    0.99    0.92 
  -5  10   0   -0.15    0.74 
  -4  10   0    0.98    0.69 
  -3  10   0   -0.02    0.58 
  -2  10   0   -0.66    0.47 
  -1  10   0    0.40    0.44 
   0  10   0    0.99    0.40 
   1  10   0    0.16    0.16 
  -6 -10   1   -0.99    1.27 
  -5 -10   1    2.49    1.68 
  -4 -10   1   -0.11    1.34 
  -3 -10   1    1.99    1.45 
  -2 -10   1   -0.39    1.42 
  -1 -10   1   -1.39    1.43 
  -9  -9   1    0.52    1.29 
  -8  -9   1    2.73    1.19 
  -7  -9   1   -0.04    0.97 
  -6  -9   1    1.78    1.08 
  -5  -9   1    1.28    1.03 
  -4  -9   1   10.90    1.60 
  -3  -9   1    3.67    1.39 
  -2  -9   1    6.37    1.56 
  -1  -9   1   -0.41    1.28 
 -10  -8   1    0.49    1.36 
  -9  -8   1    0.79    1.18 
  -8  -8   1    0.36    1.00 
  -7  -8   1    0.74    0.92 
  -6  -8   1    5.74    1.11 
  -5  -8   1    0.34    1.03 
  -4  -8   1    2.57    1.11 
  -3  -8   1   14.67    1.58 
  -2  -8   1    0.92    1.14 
  -1  -8   1   -0.35    1.36 
   0  -8   1    0.82    1.29 
 -11  -7   1    0.44    1.17 
 -10  -7   1    1.06    0.99 
  -9  -7   1    0.07    0.81 
  -8  -7   1    0.44    0.82 
  -7  -7   1    0.31    0.87 
  -6  -7   1    0.43    0.81 
  -5  -7   1   18.54    1.36 
  -4  -7   1   -0.30    0.78 
  -3  -7   1    0.44    0.96 
  -2  -7   1   -0.34    1.14 
  -1  -7   1  205.79    4.59 
   0  -7   1    7.02    1.61 
 -12  -6   1    2.48    1.35 
 -11  -6   1    2.13    1.14 
 -10  -6   1    0.22    0.93 
  -9  -6   1    2.12    0.91 
  -8  -6   1    0.50    0.78 
  -7  -6   1    0.28    0.74 
  -6  -6   1    0.62    0.71 
  -5  -6   1    1.38    0.89 
  -4  -6   1    0.20    0.68 
  -3  -6   1    8.31    0.99 
  -2  -6   1   26.40    1.53 
  -1  -6   1    4.67    1.02 
   0  -6   1   14.97    1.76 
   1  -6   1   79.93    2.41 
 -13  -5   1    3.29    1.46 
 -12  -5   1    0.82    1.06 
 -11  -5   1    8.99    1.31 
 -10  -5   1    0.07    0.85 
  -9  -5   1    1.96    0.94 
  -8  -5   1    2.00    0.98 
  -7  -5   1    4.23    0.86 
  -6  -5   1    1.35    0.71 
  -5  -5   1    0.35    0.56 
  -4  -5   1   50.69    1.67 
  -3  -5   1    3.23    0.69 
  -2  -5   1    1.85    0.84 
  -1  -5   1    9.98    1.01 
   0  -5   1   14.00    1.23 
   1  -5   1    1.27    0.89 
 -14  -4   1   -0.37    1.30 
 -13  -4   1    3.76    1.29 
 -12  -4   1    1.92    1.07 
 -11  -4   1    2.09    1.05 
 -10  -4   1    0.42    0.92 
  -9  -4   1   -0.64    0.82 
  -8  -4   1   45.93    1.80 
  -7  -4   1    1.89    0.66 
  -6  -4   1    0.69    0.50 
  -5  -4   1    8.92    0.79 
  -4  -4   1  195.92    2.94 
  -3  -4   1   72.00    1.68 
  -2  -4   1  529.94    5.25 
  -1  -4   1   12.98    1.00 
   0  -4   1    4.99    0.82 
   1  -4   1   11.62    0.99 
 -14  -3   1    0.72    1.22 
 -13  -3   1   -0.03    0.94 
 -12  -3   1   16.11    1.45 
 -11  -3   1    0.55    0.82 
 -10  -3   1    7.09    1.02 
  -9  -3   1    4.52    0.89 
  -8  -3   1   85.89    2.22 
  -7  -3   1    0.17    0.53 
  -6  -3   1   -0.15    0.49 
  -5  -3   1   86.20    1.78 
  -4  -3   1  199.43    2.60 
  -3  -3   1  131.63    2.04 
  -2  -3   1  140.27    2.08 
  -1  -3   1   88.92    1.80 
   0  -3   1   92.55    1.93 
   1  -3   1  101.82    1.90 
 -14  -2   1    0.34    0.90 
 -13  -2   1    2.58    0.93 
 -12  -2   1    3.04    0.96 
 -11  -2   1    1.56    0.84 
 -10  -2   1   48.10    1.86 
  -9  -2   1   27.87    1.37 
  -8  -2   1   18.13    1.05 
  -7  -2   1    3.96    0.59 
  -6  -2   1   70.03    1.59 
  -5  -2   1   25.97    0.87 
  -4  -2   1   57.11    1.15 
  -3  -2   1  120.13    1.65 
  -2  -2   1  805.68    5.77 
  -1  -2   1  269.24    2.79 
   0  -2   1  584.27    4.77 
 -14  -1   1    2.49    1.00 
 -13  -1   1    6.74    0.93 
 -12  -1   1   12.59    1.17 
 -11  -1   1    7.71    0.93 
 -10  -1   1   -0.28    0.56 
  -9  -1   1    0.35    0.52 
  -8  -1   1   30.58    1.13 
  -7  -1   1    1.01    0.45 
  -6  -1   1    4.67    0.24 
  -5  -1   1    1.51    0.35 
  -4  -1   1   -0.05    0.23 
  -3  -1   1   40.80    0.79 
  -2  -1   1  821.68    5.37 
  -1  -1   1  717.43    5.03 
 -15   0   1    3.85    1.02 
 -14   0   1    0.44    0.66 
 -13   0   1    0.10    0.67 
 -12   0   1    0.69    0.71 
 -11   0   1   14.71    1.09 
 -10   0   1    0.51    0.45 
  -9   0   1    8.10    0.75 
  -8   0   1    0.10    0.46 
  -7   0   1    2.27    0.28 
  -6   0   1    0.68    0.34 
  -5   0   1  166.05    2.04 
  -4   0   1    0.54    0.28 
  -3   0   1  589.74    4.18 
  -2   0   1   -0.03    0.14 
  -1   0   1  579.68    4.42 
 -14   1   1    2.11    0.71 
 -13   1   1    6.60    0.80 
 -12   1   1   11.58    0.95 
 -11   1   1    6.61    0.79 
 -10   1   1   -0.29    0.48 
  -9   1   1    0.52    0.43 
  -8   1   1   31.79    1.09 
  -7   1   1    0.92    0.34 
  -6   1   1    4.16    0.41 
  -5   1   1    1.30    0.33 
  -4   1   1   -0.31    0.29 
  -3   1   1   42.74    0.81 
  -2   1   1  891.23    5.77 
  -1   1   1  923.55    6.09 
   1   1   1   21.94    0.40 
   2   1   1   11.95    0.45 
   3   1   1   15.67    0.57 
   4   1   1  148.52    1.93 
   5   1   1   21.28    0.83 
   6   1   1    4.98    0.55 
   7   1   1    1.91    0.53 
 -14   2   1    0.24    0.62 
 -13   2   1    2.80    0.65 
 -12   2   1    1.56    0.58 
 -11   2   1    1.16    0.53 
 -10   2   1   39.45    1.41 
  -9   2   1   20.87    0.94 
  -8   2   1   15.14    0.74 
  -7   2   1    3.94    0.49 
  -6   2   1   75.51    1.60 
  -5   2   1   30.71    0.94 
  -4   2   1   63.26    1.22 
  -3   2   1  130.02    1.73 
  -2   2   1  759.91    5.38 
  -1   2   1  321.95    3.40 
   2   2   1   41.34    0.81 
   3   2   1    4.88    0.46 
   4   2   1   13.76    0.64 
   5   2   1    0.38    0.39 
   6   2   1   66.95    1.54 
   7   2   1    0.56    0.44 
   8   2   1   30.69    1.26 
   9   2   1    3.60    0.72 
 -14   3   1    1.09    0.66 
 -13   3   1    0.34    0.52 
 -12   3   1   11.76    0.91 
 -11   3   1    0.98    0.48 
 -10   3   1    4.87    0.63 
  -9   3   1    4.28    0.64 
  -8   3   1   73.32    1.67 
  -7   3   1    0.29    0.42 
  -6   3   1   -0.17    0.33 
  -5   3   1   94.51    1.80 
  -4   3   1  244.23    2.97 
  -3   3   1  132.97    1.95 
  -2   3   1  147.00    2.13 
  -1   3   1   79.75    1.62 
   2   3   1  823.00    5.91 
   3   3   1    7.98    0.54 
   4   3   1   38.18    1.07 
   5   3   1   16.39    0.87 
   6   3   1   26.51    1.03 
   7   3   1    1.41    0.55 
   8   3   1   14.17    1.01 
   9   3   1    2.05    0.78 
  10   3   1    4.52    0.90 
 -14   4   1    0.29    0.68 
 -13   4   1    2.06    0.64 
 -12   4   1    0.81    0.49 
 -11   4   1    1.43    0.48 
 -10   4   1    1.17    0.51 
  -9   4   1    1.49    0.62 
  -8   4   1   45.91    1.52 
  -7   4   1    1.46    0.46 
  -6   4   1    0.38    0.50 
  -5   4   1    9.88    0.77 
  -4   4   1  204.09    2.85 
  -3   4   1   79.17    1.73 
  -2   4   1  525.18    5.06 
  -1   4   1   10.09    0.90 
   2   4   1    1.17    0.43 
   3   4   1   34.86    1.10 
   4   4   1    8.53    0.78 
   5   4   1    0.82    0.55 
   6   4   1   12.07    0.94 
   7   4   1   14.43    1.03 
   8   4   1   11.22    0.97 
   9   4   1    9.85    1.04 
  10   4   1    4.27    0.85 
  11   4   1    1.91    0.82 
 -13   5   1    2.12    0.66 
 -12   5   1    0.85    0.48 
 -11   5   1    6.16    0.79 
 -10   5   1   -0.07    0.51 
  -9   5   1    1.28    0.59 
  -8   5   1    1.75    0.59 
  -7   5   1    4.47    0.71 
  -6   5   1    1.22    0.58 
  -5   5   1   -0.09    0.56 
  -4   5   1   52.99    1.61 
  -3   5   1    3.12    0.63 
  -2   5   1    1.14    0.65 
  -1   5   1   10.49    0.94 
   2   5   1   44.88    1.27 
   3   5   1   33.81    1.21 
   4   5   1   58.34    1.56 
   5   5   1   20.68    1.19 
   6   5   1    8.27    0.86 
   7   5   1   20.53    1.33 
   8   5   1    0.83    0.76 
   9   5   1   13.31    1.16 
  10   5   1    0.20    0.77 
 -12   6   1    1.33    0.70 
 -11   6   1    1.13    0.60 
 -10   6   1    0.23    0.60 
  -9   6   1    1.70    0.67 
  -8   6   1    0.30    0.61 
  -7   6   1    1.41    0.71 
  -6   6   1    1.67    0.74 
  -5   6   1    1.41    0.68 
  -4   6   1    0.29    0.76 
  -3   6   1    6.06    0.81 
  -2   6   1   24.53    1.37 
  -1   6   1    3.23    0.70 
   2   6   1    2.70    0.55 
   3   6   1   15.13    1.00 
   4   6   1    8.86    0.87 
   5   6   1   36.73    1.56 
 -11   7   1    0.22    0.81 
 -10   7   1    1.03    0.73 
  -9   7   1    0.54    0.59 
  -8   7   1    1.09    0.66 
  -7   7   1    0.32    0.71 
  -6   7   1   -0.10    0.71 
  -5   7   1   23.35    1.41 
  -4   7   1   -0.93    0.70 
  -3   7   1   -0.02    0.66 
  -2   7   1   -1.72    0.76 
  -1   7   1  149.63    3.20 
 -10   8   1    0.88    0.87 
  -9   8   1    0.86    0.75 
  -8   8   1    0.53    0.78 
  -7   8   1    0.98    0.73 
  -6   8   1    6.67    1.08 
  -5   8   1   -0.15    0.71 
  -4   8   1    2.20    0.90 
  -3   8   1   11.88    1.08 
  -2   8   1    0.55    0.65 
  -1   8   1   -0.20    0.71 
   0   8   1    0.49    0.51 
  -8   9   1    4.34    1.10 
  -6   9   1    2.51    0.93 
  -5   9   1    2.59    0.86 
  -4   9   1   11.00    1.22 
  -3   9   1    2.22    0.79 
  -2   9   1    2.40    0.66 
  -1   9   1    0.06    0.57 
   0   9   1    0.26    0.41 
  -6  10   1   -1.28    0.90 
  -5  10   1    1.86    0.82 
  -4  10   1   -0.37    0.70 
  -3  10   1    1.25    0.64 
  -2  10   1   -0.13    0.53 
  -1  10   1    0.57    0.46 
   0  10   1   -0.01    0.38 
   1  10   1    0.23    0.17 
  -2  11   1   -0.09    0.52 
  -1  11   1    0.32    0.39 
   0  11   1    0.01    0.25 
   1  11   1    0.08    0.06 
   2  11   1   -0.31    0.00 
  -9  -9   2    0.98    1.30 
  -8  -9   2    1.02    1.23 
  -7  -9   2    1.54    1.04 
  -6  -9   2    2.21    1.12 
  -5  -9   2   -0.57    0.94 
  -4  -9   2    2.54    1.36 
  -3  -9   2    9.38    1.56 
  -2  -9   2   -1.08    1.33 
  -1  -9   2    8.53    1.59 
 -10  -8   2    0.77    1.31 
  -9  -8   2    9.60    1.55 
  -8  -8   2    0.39    0.99 
  -7  -8   2    2.74    0.95 
  -6  -8   2    1.57    0.93 
  -5  -8   2    0.70    1.02 
  -4  -8   2    1.89    1.08 
  -3  -8   2    0.85    1.14 
  -2  -8   2    1.59    1.29 
  -1  -8   2   -0.39    1.49 
   0  -8   2   -0.85    1.34 
 -11  -7   2   -0.11    1.22 
 -10  -7   2    0.05    1.02 
  -9  -7   2    0.50    0.84 
  -8  -7   2    0.95    0.81 
  -7  -7   2    7.23    1.16 
  -6  -7   2    6.72    1.15 
  -5  -7   2    7.54    1.06 
  -4  -7   2    1.23    0.84 
  -3  -7   2    1.52    1.05 
  -2  -7   2    2.26    1.29 
  -1  -7   2   11.24    1.64 
   0  -7   2   -0.12    1.25 
 -12  -6   2    0.13    1.31 
 -11  -6   2   -0.78    1.01 
 -10  -6   2    1.38    0.99 
  -9  -6   2    0.03    0.85 
  -8  -6   2   -0.26    0.87 
  -7  -6   2    0.45    0.79 
  -6  -6   2   30.79    1.49 
  -5  -6   2   33.25    1.68 
  -4  -6   2    3.64    0.84 
  -3  -6   2    3.49    0.81 
  -2  -6   2   38.31    1.80 
  -1  -6   2    1.96    1.07 
   0  -6   2    2.02    1.27 
 -13  -5   2    0.95    1.40 
 -12  -5   2    1.27    1.12 
 -11  -5   2    0.16    0.99 
 -10  -5   2    0.36    0.88 
  -9  -5   2   -0.40    0.82 
  -8  -5   2   10.90    1.27 
  -7  -5   2    4.86    0.91 
  -6  -5   2    0.16    0.65 
  -5  -5   2   12.51    0.95 
  -4  -5   2   22.01    1.21 
  -3  -5   2   38.30    1.48 
  -2  -5   2   20.06    1.21 
  -1  -5   2    1.77    0.75 
   0  -5   2   54.97    1.98 
   1  -5   2   32.83    1.45 
 -14  -4   2    0.02    1.44 
 -13  -4   2   -0.49    1.19 
 -12  -4   2    2.12    1.19 
 -11  -4   2    0.21    1.03 
 -10  -4   2    0.81    0.89 
  -9  -4   2   68.02    2.32 
  -8  -4   2    0.02    0.74 
  -7  -4   2   -0.73    0.59 
  -6  -4   2    2.67    0.60 
  -5  -4   2   88.68    2.00 
  -4  -4   2   24.85    1.08 
  -3  -4   2   25.29    1.04 
  -2  -4   2  142.91    2.50 
  -1  -4   2   27.74    1.37 
   0  -4   2    8.56    0.93 
   1  -4   2  190.21    3.07 
 -14  -3   2   -0.23    1.12 
 -13  -3   2    0.43    0.93 
 -12  -3   2    1.06    0.91 
 -11  -3   2    6.88    1.14 
 -10  -3   2   32.19    1.72 
  -9  -3   2    1.24    0.78 
  -8  -3   2    4.31    0.77 
  -7  -3   2    8.64    0.81 
  -6  -3   2    1.36    0.50 
  -5  -3   2    1.13    0.43 
  -4  -3   2   13.38    0.73 
  -3  -3   2  113.46    1.88 
  -2  -3   2   22.97    0.86 
  -1  -3   2  116.29    2.02 
   0  -3   2   19.42    0.94 
 -14  -2   2   -0.59    0.91 
 -13  -2   2    5.45    1.15 
 -12  -2   2    1.73    0.89 
 -11  -2   2    1.81    0.91 
 -10  -2   2    2.35    0.86 
  -9  -2   2   49.97    1.73 
  -8  -2   2    9.78    0.87 
  -7  -2   2    2.83    0.59 
  -6  -2   2   13.61    0.80 
  -5  -2   2    5.14    0.52 
  -4  -2   2    0.39    0.34 
  -3  -2   2   80.93    1.26 
  -2  -2   2  270.38    2.51 
   0  -2   2  223.66    2.53 
 -14  -1   2    0.28    0.87 
 -13  -1   2    0.55    0.86 
 -12  -1   2    8.05    1.01 
 -11  -1   2   19.50    1.13 
 -10  -1   2    0.71    0.63 
  -9  -1   2   -0.51    0.57 
  -8  -1   2    9.16    0.77 
  -7  -1   2    6.60    0.66 
  -6  -1   2   71.65    0.74 
  -5  -1   2   36.48    0.99 
  -4  -1   2   -0.21    0.26 
  -3  -1   2   23.30    0.59 
  -2  -1   2   24.72    0.53 
  -1  -1   2  676.94    4.91 
 -14   0   2    2.62    0.77 
 -13   0   2    0.28    0.70 
 -12   0   2   19.51    1.29 
 -11   0   2    0.34    0.67 
 -10   0   2   38.84    1.37 
  -9   0   2    0.64    0.54 
  -8   0   2   23.67    1.02 
  -7   0   2    0.44    0.45 
  -6   0   2  635.72    5.17 
  -5   0   2    0.08    0.32 
  -4   0   2   30.79    0.76 
  -3   0   2   -0.10    0.25 
  -2   0   2 2271.04   13.69 
  -1   0   2    0.08    0.06 
 -14   1   2    0.29    0.66 
 -13   1   2    0.43    0.57 
 -12   1   2    6.39    0.80 
 -11   1   2   19.96    1.12 
 -10   1   2    0.75    0.57 
  -9   1   2   -0.17    0.46 
  -8   1   2    8.66    0.70 
  -7   1   2    5.16    0.47 
  -6   1   2   74.00    1.50 
  -5   1   2   30.12    0.80 
  -4   1   2    0.06    0.29 
  -3   1   2   26.12    0.70 
  -2   1   2   32.44    0.74 
  -1   1   2 1028.23    6.71 
   2   1   2 1330.10    8.61 
   3   1   2  186.10    1.90 
   4   1   2    4.67    0.41 
   5   1   2  198.29    2.36 
 -14   2   2   -0.16    0.54 
 -13   2   2    4.75    0.74 
 -12   2   2    1.22    0.54 
 -11   2   2    1.64    0.54 
 -10   2   2    0.94    0.53 
  -9   2   2   40.85    1.29 
  -8   2   2    8.73    0.72 
  -7   2   2    2.94    0.46 
  -6   2   2   14.15    0.76 
  -5   2   2    5.34    0.47 
  -4   2   2    0.44    0.37 
  -3   2   2   88.40    1.38 
  -2   2   2  281.25    2.69 
  -1   2   2   79.31    1.40 
   1   2   2  836.52    5.96 
   2   2   2  510.16    3.70 
   3   2   2    1.03    0.34 
   4   2   2    7.81    0.51 
   5   2   2   23.33    0.84 
   6   2   2    7.53    0.63 
   7   2   2    6.67    0.66 
   8   2   2    8.37    0.77 
 -14   3   2    0.49    0.60 
 -13   3   2    0.13    0.48 
 -12   3   2    0.33    0.46 
 -11   3   2    4.70    0.62 
 -10   3   2   22.31    1.05 
  -9   3   2   -0.15    0.40 
  -8   3   2    5.87    0.69 
  -7   3   2    8.53    0.70 
  -6   3   2    1.17    0.45 
  -5   3   2    1.23    0.41 
  -4   3   2   16.05    0.84 
  -3   3   2  117.48    1.92 
  -2   3   2   19.17    0.75 
  -1   3   2  106.97    2.00 
   2   3   2   31.33    0.75 
   3   3   2    6.03    0.53 
   4   3   2  144.40    1.93 
   5   3   2   24.22    0.90 
   6   3   2    1.55    0.46 
   7   3   2   32.98    1.25 
   8   3   2   50.47    1.60 
   9   3   2  101.97    2.33 
 -13   4   2    0.69    0.59 
 -12   4   2    1.02    0.50 
 -11   4   2    1.35    0.50 
 -10   4   2    1.33    0.50 
  -9   4   2   62.81    1.90 
  -8   4   2    0.82    0.58 
  -7   4   2    0.10    0.48 
  -6   4   2    2.77    0.62 
  -5   4   2   93.49    1.99 
  -4   4   2   26.90    1.13 
  -3   4   2   25.90    1.06 
  -2   4   2  143.80    2.55 
   2   4   2   53.81    1.17 
   3   4   2  148.95    2.07 
   4   4   2  100.99    1.77 
   5   4   2    0.25    0.58 
   6   4   2    2.51    0.61 
   7   4   2    1.69    0.66 
   8   4   2   22.44    1.21 
   9   4   2    3.26    0.85 
  10   4   2    7.08    0.97 
  11   4   2    0.88    0.75 
 -13   5   2    0.61    0.63 
 -12   5   2    1.13    0.57 
 -11   5   2    0.22    0.48 
 -10   5   2   -0.01    0.58 
  -9   5   2    0.54    0.57 
  -8   5   2   10.23    0.85 
  -7   5   2    4.24    0.62 
  -6   5   2   -0.12    0.54 
  -5   5   2   12.39    0.89 
  -4   5   2   24.18    1.27 
  -3   5   2   34.42    1.31 
  -2   5   2   18.62    1.08 
  -1   5   2    0.64    0.49 
   2   5   2   21.48    0.93 
   3   5   2    5.02    0.60 
   4   5   2    6.64    0.72 
   5   5   2    3.36    0.68 
   6   5   2    3.02    0.82 
   7   5   2    3.59    0.84 
   8   5   2    1.50    0.69 
   9   5   2    1.07    0.74 
 -12   6   2    0.07    0.61 
 -11   6   2    0.10    0.63 
 -10   6   2    0.53    0.68 
  -9   6   2   -0.64    0.52 
  -8   6   2    0.00    0.57 
  -7   6   2    0.23    0.67 
  -6   6   2   39.08    1.64 
  -5   6   2   37.33    1.58 
  -4   6   2    4.58    0.88 
  -3   6   2    2.82    0.73 
  -2   6   2   33.23    1.51 
  -1   6   2    1.03    0.65 
   2   6   2   28.79    1.16 
 -11   7   2    0.38    0.81 
 -10   7   2   -0.07    0.67 
  -9   7   2    0.86    0.63 
  -8   7   2    1.82    0.74 
  -7   7   2    6.90    0.92 
  -6   7   2    6.57    1.03 
  -5   7   2   10.88    1.13 
  -4   7   2    0.18    0.63 
  -3   7   2   -0.25    0.64 
  -2   7   2   -0.26    0.79 
  -1   7   2    7.19    1.08 
 -10   8   2   -0.02    0.88 
  -9   8   2    9.83    1.19 
  -8   8   2    0.62    0.79 
  -7   8   2    2.71    0.85 
  -6   8   2    1.54    0.82 
  -5   8   2    0.98    0.79 
  -4   8   2    0.70    0.76 
  -3   8   2    0.30    0.63 
  -2   8   2    1.98    0.72 
  -1   8   2    0.37    0.79 
   0   8   2    0.35    0.50 
  -8   9   2    0.41    1.01 
  -7   9   2    1.67    0.87 
  -6   9   2    1.16    0.80 
  -5   9   2   -0.09    0.73 
  -4   9   2    2.91    0.88 
  -3   9   2    6.66    0.85 
  -2   9   2    0.15    0.50 
  -1   9   2    3.46    0.65 
   0   9   2   -0.19    0.37 
  -6  10   2    0.69    0.88 
  -5  10   2   -0.64    0.75 
  -2  10   2    1.95    0.62 
  -1  10   2    0.72    0.48 
   0  10   2    0.20    0.37 
   1  10   2    0.43    0.15 
  -2  11   2   -0.21    0.49 
  -1  11   2   -0.15    0.32 
   0  11   2    0.00    0.20 
   1  11   2    0.09    0.04 
  -7  -9   3    1.04    1.05 
  -6  -9   3   -0.10    1.14 
  -5  -9   3   -0.43    1.05 
  -4  -9   3   -0.36    1.50 
  -3  -9   3    6.30    1.52 
  -2  -9   3    1.92    1.60 
  -1  -9   3   -0.50    1.41 
 -10  -8   3    1.49    1.37 
  -9  -8   3    2.76    1.38 
  -8  -8   3    5.48    1.28 
  -7  -8   3    0.56    0.88 
  -6  -8   3   10.54    1.29 
  -5  -8   3   -0.22    1.01 
  -4  -8   3    0.26    1.01 
  -3  -8   3    2.25    1.30 
  -2  -8   3   23.77    1.98 
  -1  -8   3    5.00    1.72 
   0  -8   3   -0.49    1.44 
 -11  -7   3    0.76    1.35 
 -10  -7   3    0.33    1.05 
  -9  -7   3    0.09    0.86 
  -8  -7   3    2.29    0.97 
  -7  -7   3    2.64    1.01 
  -6  -7   3    6.05    1.14 
  -5  -7   3    7.20    1.05 
  -4  -7   3    0.51    0.84 
  -3  -7   3   10.60    1.33 
  -2  -7   3   10.13    1.56 
  -1  -7   3  136.74    3.68 
   0  -7   3   12.50    1.65 
 -12  -6   3   -0.67    1.27 
 -11  -6   3    0.20    1.03 
 -10  -6   3   -0.28    1.02 
  -9  -6   3    0.46    0.89 
  -8  -6   3    0.07    0.83 
  -7  -6   3    7.71    1.12 
  -6  -6   3    0.50    0.72 
  -5  -6   3   15.31    1.29 
  -4  -6   3    1.74    0.77 
  -3  -6   3    5.58    0.87 
  -2  -6   3   14.02    1.20 
  -1  -6   3    0.50    0.92 
   0  -6   3   20.86    1.78 
 -13  -5   3    3.46    1.53 
 -12  -5   3   -0.41    1.23 
 -11  -5   3    0.39    1.00 
 -10  -5   3    5.62    1.13 
  -9  -5   3   10.17    1.20 
  -8  -5   3   -0.15    0.88 
  -7  -5   3    8.38    1.03 
  -6  -5   3    3.04    0.76 
  -5  -5   3   10.00    0.91 
  -4  -5   3    0.63    0.57 
  -3  -5   3   28.05    1.32 
  -2  -5   3   16.29    1.16 
  -1  -5   3   18.39    1.21 
   0  -5   3   10.57    1.16 
 -14  -4   3   -0.25    1.56 
 -13  -4   3    0.20    1.31 
 -12  -4   3    4.06    1.32 
 -11  -4   3    5.31    1.28 
 -10  -4   3    0.66    1.05 
  -9  -4   3    9.74    1.21 
  -8  -4   3    9.53    1.08 
  -7  -4   3   -0.12    0.59 
  -6  -4   3   12.40    0.91 
  -5  -4   3  118.56    2.39 
  -4  -4   3   17.33    0.92 
  -3  -4   3    9.87    0.77 
  -2  -4   3   76.37    1.80 
  -1  -4   3   96.18    2.19 
   0  -4   3  150.13    2.80 
 -14  -3   3    3.62    1.26 
 -13  -3   3    1.75    1.09 
 -12  -3   3    0.56    0.98 
 -11  -3   3    0.70    0.92 
 -10  -3   3  116.14    3.04 
  -9  -3   3   24.51    1.48 
  -8  -3   3   -0.23    0.66 
  -7  -3   3    9.57    0.80 
  -6  -3   3    6.77    0.67 
  -5  -3   3   30.06    1.12 
  -4  -3   3    1.14    0.41 
  -3  -3   3  473.72    4.33 
  -2  -3   3   68.46    1.37 
  -1  -3   3    1.53    0.33 
   0  -3   3  100.30    1.84 
 -14  -2   3    0.13    1.00 
 -13  -2   3   -0.05    0.94 
 -12  -2   3    7.88    1.15 
 -11  -2   3    1.88    0.86 
 -10  -2   3    5.39    0.92 
  -9  -2   3    2.94    0.76 
  -8  -2   3   77.83    1.98 
  -7  -2   3   15.73    0.91 
  -6  -2   3   34.70    1.14 
  -5  -2   3   -0.38    0.38 
  -4  -2   3   35.54    0.90 
  -3  -2   3    7.79    0.44 
  -1  -2   3  205.76    2.12 
   0  -2   3  206.62    2.35 
 -14  -1   3    0.16    0.90 
 -13  -1   3    1.46    0.88 
 -12  -1   3    3.50    0.80 
 -11  -1   3    9.85    0.92 
 -10  -1   3   12.92    1.04 
  -9  -1   3    0.72    0.65 
  -8  -1   3    0.51    0.55 
  -7  -1   3    9.20    0.67 
  -6  -1   3    0.55    0.45 
  -5  -1   3   19.30    0.75 
  -4  -1   3   35.40    0.84 
  -3  -1   3  644.08    4.52 
  -1  -1   3    5.19    0.23 
 -14   0   3    0.71    0.77 
 -13   0   3    9.30    1.09 
 -12   0   3    0.66    0.72 
 -11   0   3    4.18    0.77 
 -10   0   3   -0.11    0.61 
  -9   0   3   23.49    1.13 
  -8   0   3   -0.19    0.44 
  -7   0   3   73.73    1.61 
  -5   0   3    1.12    0.31 
  -4   0   3    0.21    0.29 
  -3   0   3  375.49    3.06 
  -2   0   3   -0.06    0.33 
  -1   0   3  183.43    1.62 
 -14   1   3    0.51    0.75 
 -13   1   3    1.20    0.71 
 -12   1   3    3.15    0.74 
 -11   1   3   10.82    0.91 
 -10   1   3   12.00    0.91 
  -9   1   3    1.29    0.54 
  -8   1   3    0.01    0.43 
  -7   1   3    8.34    0.61 
  -6   1   3    1.76    0.45 
  -5   1   3   22.00    0.88 
  -4   1   3   41.92    1.01 
  -3   1   3  644.48    4.62 
  -2   1   3  535.45    3.82 
  -1   1   3    5.57    0.37 
 -14   2   3    0.11    0.60 
 -13   2   3    0.39    0.50 
 -12   2   3    4.93    0.70 
 -11   2   3    1.53    0.56 
 -10   2   3    3.41    0.57 
  -9   2   3    2.43    0.45 
  -8   2   3   67.01    1.64 
  -7   2   3   15.73    0.85 
  -6   2   3   32.62    1.06 
  -5   2   3   -0.02    0.38 
  -4   2   3   37.72    1.00 
  -3   2   3   11.22    0.56 
  -2   2   3 1386.38    8.83 
  -1   2   3  183.54    2.21 
   1   2   3  156.81    1.47 
   2   2   3   72.38    0.94 
   3   2   3  145.46    1.60 
   4   2   3  150.26    1.89 
   5   2   3    0.51    0.34 
   6   2   3   14.91    0.75 
   7   2   3    0.95    0.48 
 -14   3   3    1.91    0.73 
 -13   3   3    1.13    0.57 
 -12   3   3   -0.25    0.46 
 -11   3   3    0.78    0.47 
 -10   3   3   87.80    2.14 
  -9   3   3   16.90    0.93 
  -8   3   3    0.05    0.47 
  -7   3   3    9.42    0.75 
  -6   3   3    6.53    0.62 
  -5   3   3   25.40    0.95 
  -4   3   3    0.87    0.37 
  -3   3   3  457.23    4.23 
  -2   3   3   71.89    1.36 
  -1   3   3    4.68    0.54 
   2   3   3    8.86    0.45 
   3   3   3  255.91    2.45 
   4   3   3   16.09    0.70 
   5   3   3   39.39    1.04 
   6   3   3   23.52    0.93 
   7   3   3    3.72    0.65 
   8   3   3    0.82    0.59 
   9   3   3   13.19    1.02 
 -13   4   3    0.12    0.55 
 -12   4   3    2.03    0.57 
 -11   4   3    4.45    0.70 
  -9   4   3    9.32    0.89 
  -8   4   3    9.35    0.90 
  -7   4   3   -0.09    0.46 
  -6   4   3   13.21    0.89 
  -5   4   3  120.33    2.37 
  -4   4   3   19.16    0.99 
  -3   4   3   10.14    0.76 
  -2   4   3   71.73    1.77 
   2   4   3   29.23    0.89 
   3   4   3    3.19    0.48 
   4   4   3   38.66    1.08 
   5   4   3    6.51    0.65 
   6   4   3   21.75    0.96 
   7   4   3   19.65    1.03 
   8   4   3   61.87    1.75 
   9   4   3    4.31    0.86 
  10   4   3   16.19    1.09 
 -13   5   3    2.20    0.68 
 -12   5   3    0.19    0.58 
 -11   5   3    0.17    0.47 
 -10   5   3    5.31    0.79 
  -9   5   3   11.29    1.01 
  -8   5   3   -0.15    0.54 
  -7   5   3    9.99    0.96 
  -6   5   3    2.79    0.56 
  -5   5   3    9.54    0.85 
  -4   5   3    0.62    0.68 
  -3   5   3   26.81    1.17 
  -2   5   3   12.02    0.91 
  -1   5   3   13.55    1.00 
   2   5   3   33.32    1.03 
   3   5   3  109.47    1.77 
   4   5   3   11.47    0.87 
   5   5   3    8.62    0.90 
   6   5   3    1.46    0.67 
 -12   6   3   -0.09    0.63 
 -11   6   3    0.50    0.69 
 -10   6   3   -0.08    0.62 
  -9   6   3    0.69    0.54 
  -8   6   3    0.36    0.56 
  -7   6   3    7.72    0.89 
  -6   6   3    0.57    0.74 
  -5   6   3   16.41    1.15 
  -4   6   3    0.91    0.64 
  -3   6   3    4.97    0.84 
  -2   6   3   12.70    1.03 
  -1   6   3    0.23    0.61 
 -11   7   3    0.69    0.85 
 -10   7   3    0.11    0.72 
  -9   7   3   -0.10    0.63 
  -8   7   3    2.32    0.86 
  -7   7   3    2.53    0.77 
  -6   7   3    5.55    0.94 
  -5   7   3    8.21    1.05 
  -4   7   3    0.63    0.66 
  -3   7   3    5.88    0.74 
  -2   7   3    6.59    0.94 
  -1   7   3   82.56    2.22 
 -10   8   3    0.67    0.86 
  -9   8   3    1.68    0.84 
  -8   8   3    6.15    1.07 
  -7   8   3    0.76    0.74 
  -6   8   3   12.26    1.16 
  -5   8   3   -0.70    0.73 
  -4   8   3   -0.81    0.61 
  -3   8   3    1.15    0.64 
  -2   8   3   16.03    1.11 
  -1   8   3    3.56    0.86 
   0   8   3    1.12    0.49 
  -8   9   3    0.33    0.92 
  -7   9   3    0.39    0.86 
  -6   9   3    0.08    0.64 
  -5   9   3   -0.28    0.72 
  -4   9   3    0.37    0.71 
  -3   9   3    3.68    0.75 
  -2   9   3    0.60    0.48 
  -1   9   3    0.07    0.49 
   0   9   3    0.34    0.35 
  -6  10   3   -0.71    0.80 
  -5  10   3   -0.66    0.78 
  -4  10   3    1.18    0.81 
  -3  10   3    0.60    0.60 
  -2  10   3    1.27    0.59 
  -1  10   3    1.45    0.48 
   0  10   3    0.13    0.37 
   1  10   3    0.10    0.11 
 -10  -8   4    0.57    1.41 
  -9  -8   4    1.94    1.34 
  -8  -8   4    2.26    1.14 
  -7  -8   4    3.95    1.02 
  -6  -8   4    2.13    0.98 
  -5  -8   4   15.56    1.62 
  -4  -8   4    1.80    1.03 
  -3  -8   4   -0.43    1.40 
  -2  -8   4   14.55    1.73 
  -1  -8   4    5.66    1.68 
   0  -8   4    8.49    1.41 
 -12  -7   4    1.15    1.68 
 -11  -7   4    1.21    1.31 
 -10  -7   4    1.69    1.15 
  -9  -7   4   -0.09    0.96 
  -8  -7   4    1.52    0.85 
  -7  -7   4    4.18    1.11 
  -6  -7   4    8.89    1.26 
  -5  -7   4    1.80    0.86 
  -4  -7   4    5.87    1.01 
  -3  -7   4    2.55    1.21 
  -2  -7   4    0.17    1.24 
  -1  -7   4   85.73    3.02 
   0  -7   4   29.88    2.05 
 -12  -6   4    0.27    1.35 
 -11  -6   4    0.62    1.19 
 -10  -6   4   -0.73    0.97 
  -9  -6   4   -0.38    0.85 
  -8  -6   4    4.33    1.01 
  -7  -6   4    0.15    0.81 
  -6  -6   4    2.04    0.79 
  -5  -6   4   -0.09    0.85 
  -4  -6   4    3.93    0.82 
  -3  -6   4    5.37    0.92 
  -2  -6   4   11.88    1.21 
  -1  -6   4   15.18    1.43 
   0  -6   4   52.11    2.26 
 -13  -5   4    2.71    1.66 
 -12  -5   4   -0.42    1.19 
 -11  -5   4   -0.39    1.14 
 -10  -5   4   -0.45    0.98 
  -9  -5   4    8.59    1.17 
  -8  -5   4    6.45    1.08 
  -7  -5   4    0.09    0.77 
  -6  -5   4   51.56    1.78 
  -5  -5   4   -0.24    0.57 
  -4  -5   4   20.17    1.15 
  -3  -5   4    0.81    0.62 
  -2  -5   4    6.69    0.83 
  -1  -5   4    1.45    0.58 
   0  -5   4    2.65    0.64 
 -14  -4   4    0.93    1.70 
 -13  -4   4   -0.17    1.39 
 -12  -4   4    3.54    1.24 
 -11  -4   4   34.36    2.17 
 -10  -4   4    2.71    1.14 
  -9  -4   4    0.53    0.95 
  -8  -4   4   31.14    1.59 
  -7  -4   4   -0.53    0.63 
  -6  -4   4    0.45    0.52 
  -5  -4   4    5.59    0.72 
  -4  -4   4   19.73    0.99 
  -3  -4   4   23.83    0.99 
  -2  -4   4    1.77    0.35 
  -1  -4   4   82.31    2.05 
   0  -4   4    0.07    0.70 
 -14  -3   4    0.43    1.16 
 -13  -3   4    1.06    1.11 
 -12  -3   4    3.87    1.13 
 -11  -3   4    0.16    0.84 
 -10  -3   4    2.77    0.99 
  -9  -3   4    1.14    0.84 
  -8  -3   4   -0.15    0.69 
  -7  -3   4   11.83    0.86 
  -6  -3   4    6.33    0.67 
  -5  -3   4    0.58    0.54 
  -4  -3   4  149.55    2.16 
  -3  -3   4  325.76    3.43 
  -2  -3   4   13.35    0.65 
  -1  -3   4  300.87    3.36 
   0  -3   4   43.03    1.27 
 -14  -2   4    1.39    1.11 
 -13  -2   4   -1.02    0.87 
 -12  -2   4    0.14    0.88 
 -11  -2   4   31.58    1.70 
 -10  -2   4    1.24    0.84 
  -9  -2   4    9.98    1.02 
  -8  -2   4    0.62    0.61 
  -7  -2   4   64.86    1.70 
  -6  -2   4   -0.22    0.44 
  -5  -2   4   29.77    0.98 
  -4  -2   4   58.29    1.16 
  -3  -2   4    0.53    0.19 
  -2  -2   4   59.33    0.99 
  -1  -2   4  107.66    1.39 
   0  -2   4   12.94    0.60 
 -14  -1   4    2.75    1.06 
 -13  -1   4    4.59    0.90 
 -12  -1   4    0.53    0.69 
 -11  -1   4    0.14    0.71 
 -10  -1   4   23.93    1.30 
  -9  -1   4   11.60    0.97 
  -8  -1   4    1.67    0.59 
  -7  -1   4   10.48    0.73 
  -6  -1   4    4.81    0.53 
  -5  -1   4  394.62    3.63 
  -4  -1   4   86.00    1.34 
  -3  -1   4  132.85    1.50 
  -2  -1   4   19.84    0.47 
  -1  -1   4   16.09    0.33 
 -14   0   4    0.43    0.84 
 -13   0   4    1.04    0.79 
 -12   0   4    7.72    0.94 
 -11   0   4    0.61    0.64 
 -10   0   4    0.17    0.63 
  -9   0   4   -0.02    0.56 
  -8   0   4   51.64    1.50 
  -7   0   4    0.42    0.45 
  -6   0   4  522.48    4.63 
  -5   0   4   -0.19    0.34 
  -4   0   4  218.07    2.21 
  -3   0   4    0.08    0.27 
  -2   0   4  584.03    4.19 
  -1   0   4    0.22    0.23 
 -14   1   4    2.57    0.80 
 -13   1   4    4.25    0.72 
 -12   1   4    0.32    0.63 
 -11   1   4    0.25    0.62 
 -10   1   4   20.61    1.11 
  -9   1   4   10.45    0.85 
  -8   1   4    1.60    0.48 
  -7   1   4    9.25    0.62 
  -6   1   4    6.14    0.55 
  -5   1   4  428.95    4.00 
  -4   1   4   77.54    1.27 
  -3   1   4  152.76    1.84 
  -2   1   4   20.26    0.62 
  -1   1   4   17.80    0.57 
 -14   2   4    0.68    0.76 
 -13   2   4    0.16    0.65 
 -12   2   4   -0.18    0.54 
 -11   2   4   23.88    1.24 
 -10   2   4    0.19    0.51 
  -9   2   4    6.32    0.64 
  -8   2   4    0.40    0.48 
  -7   2   4   61.08    1.59 
  -6   2   4   -0.18    0.43 
  -5   2   4   29.63    0.97 
  -4   2   4   55.75    1.18 
  -3   2   4    0.77    0.27 
  -2   2   4   55.82    1.07 
  -1   2   4   91.39    1.52 
   2   2   4   42.97    0.66 
   3   2   4    9.21    0.42 
   4   2   4   57.96    1.07 
   5   2   4   10.09    0.61 
 -14   3   4    0.55    0.64 
 -13   3   4    0.91    0.54 
 -12   3   4    2.32    0.53 
 -11   3   4    0.16    0.43 
 -10   3   4    1.74    0.59 
  -9   3   4    0.70    0.53 
  -8   3   4    0.00    0.49 
  -7   3   4   10.77    0.73 
  -6   3   4    5.55    0.58 
  -5   3   4    0.30    0.42 
  -4   3   4  138.64    2.05 
  -3   3   4  405.05    3.91 
  -2   3   4   13.12    0.65 
   1   3   4  288.63    2.47 
   2   3   4    1.25    0.30 
   3   3   4   96.47    1.32 
   4   3   4   10.03    0.53 
   5   3   4    5.26    0.51 
   6   3   4    8.34    0.65 
   7   3   4   45.02    1.30 
 -13   4   4   -0.10    0.47 
 -12   4   4    2.93    0.60 
 -11   4   4   23.27    1.26 
 -10   4   4    2.66    0.62 
  -9   4   4   -0.08    0.59 
  -8   4   4   27.38    1.23 
  -7   4   4    0.27    0.49 
  -6   4   4    0.47    0.49 
  -5   4   4    5.51    0.64 
  -4   4   4   18.17    0.89 
  -3   4   4   23.64    1.01 
  -2   4   4   20.99    1.00 
   2   4   4   13.21    0.56 
   3   4   4   78.39    1.27 
   4   4   4   85.14    1.50 
   5   4   4    5.56    0.55 
   6   4   4   26.64    1.02 
   7   4   4   31.59    1.16 
   8   4   4    2.77    0.68 
   9   4   4   17.56    1.07 
 -13   5   4    1.16    0.64 
 -12   5   4    0.23    0.61 
 -11   5   4    0.34    0.51 
 -10   5   4    0.65    0.59 
  -9   5   4   11.37    1.01 
  -8   5   4    5.88    0.79 
  -7   5   4    0.47    0.63 
  -6   5   4   55.32    1.77 
  -5   5   4    0.44    0.56 
  -4   5   4   22.33    1.22 
  -3   5   4    0.63    0.55 
  -2   5   4    5.58    0.75 
  -1   5   4    2.30    0.64 
   2   5   4   37.52    1.02 
   3   5   4   25.09    0.89 
 -12   6   4   -0.15    0.54 
 -11   6   4    1.05    0.75 
 -10   6   4   -0.09    0.60 
  -9   6   4    0.30    0.55 
  -8   6   4    2.98    0.74 
  -7   6   4    0.46    0.61 
  -6   6   4    2.96    0.83 
  -5   6   4    0.24    0.55 
  -4   6   4    2.56    0.71 
  -3   6   4    4.34    0.78 
  -2   6   4    9.68    0.95 
  -1   6   4   10.55    0.95 
 -11   7   4    1.13    0.86 
 -10   7   4    1.13    0.80 
  -9   7   4    0.53    0.70 
  -8   7   4    0.56    0.77 
  -7   7   4    3.50    0.83 
  -6   7   4    8.39    0.98 
  -5   7   4    0.94    0.74 
  -4   7   4    4.48    0.81 
  -3   7   4    0.94    0.75 
  -2   7   4   -0.74    0.68 
  -1   7   4   50.57    1.79 
 -10   8   4    0.91    0.78 
  -8   8   4    1.42    0.84 
  -7   8   4    4.62    0.90 
  -6   8   4    1.73    0.74 
  -5   8   4   12.11    1.13 
  -4   8   4    1.47    0.70 
  -3   8   4    0.69    0.64 
  -2   8   4    8.77    0.96 
  -1   8   4    3.61    0.88 
  -8   9   4    0.08    0.90 
  -7   9   4    2.00    0.94 
  -6   9   4    0.05    0.72 
  -5   9   4    0.18    0.73 
  -4   9   4   -0.20    0.63 
  -3   9   4    1.13    0.62 
  -2   9   4    0.93    0.50 
  -1   9   4   -0.43    0.46 
   0   9   4    0.25    0.33 
  -5  10   4   -0.27    0.82 
  -4  10   4    1.57    0.85 
  -3  10   4   -0.31    0.59 
  -2  10   4    0.46    0.52 
  -1  10   4    0.15    0.42 
   0  10   4    0.86    0.37 
   1  10   4    0.15    0.09 
 -11  -7   5    0.31    1.25 
 -10  -7   5    4.49    1.33 
  -9  -7   5    3.62    1.07 
  -8  -7   5    4.35    1.01 
  -7  -7   5    4.93    1.16 
  -6  -7   5    5.39    1.16 
  -5  -7   5    3.39    1.01 
  -4  -7   5    1.65    0.97 
  -3  -7   5    2.29    1.15 
  -2  -7   5    2.60    1.36 
  -1  -7   5    5.91    1.27 
   0  -7   5   14.26    1.51 
 -12  -6   5   -0.66    1.43 
 -11  -6   5    3.99    1.50 
 -10  -6   5    0.24    1.14 
  -9  -6   5    1.85    1.00 
  -8  -6   5    0.04    0.87 
  -7  -6   5   -0.32    0.88 
  -6  -6   5    1.13    0.82 
  -5  -6   5    0.25    0.85 
  -4  -6   5    4.03    0.80 
  -3  -6   5    2.34    0.78 
  -2  -6   5    0.45    0.56 
  -1  -6   5    1.64    0.71 
   0  -6   5    0.74    0.67 
 -13  -5   5    0.12    1.49 
 -12  -5   5    1.97    1.36 
 -11  -5   5    0.55    1.16 
 -10  -5   5    1.39    1.05 
  -9  -5   5    2.25    0.95 
  -8  -5   5   11.22    1.21 
  -7  -5   5    1.22    0.83 
  -6  -5   5    0.27    0.75 
  -5  -5   5    2.41    0.69 
  -4  -5   5    2.56    0.68 
  -3  -5   5    7.43    0.77 
  -2  -5   5    4.83    0.73 
  -1  -5   5   53.79    1.96 
   0  -5   5   11.29    1.24 
 -14  -4   5    0.30    1.79 
 -13  -4   5    2.67    1.49 
 -12  -4   5   -0.59    1.19 
 -11  -4   5   42.04    2.36 
 -10  -4   5    1.38    1.07 
  -9  -4   5    4.18    1.13 
  -8  -4   5   44.12    1.83 
  -7  -4   5   17.83    1.19 
  -6  -4   5    0.19    0.53 
  -5  -4   5    9.39    0.78 
  -4  -4   5   34.88    1.23 
  -2  -4   5   28.21    1.14 
  -1  -4   5    0.22    0.75 
   0  -4   5   66.98    1.94 
 -14  -3   5    0.73    1.26 
 -13  -3   5    0.13    1.09 
 -12  -3   5    0.78    1.00 
 -11  -3   5    0.06    0.85 
 -10  -3   5    5.79    1.06 
  -9  -3   5    1.31    0.84 
  -8  -3   5   39.61    1.62 
  -7  -3   5   -0.19    0.58 
  -6  -3   5   10.35    0.82 
  -5  -3   5   97.65    1.87 
  -4  -3   5    0.64    0.37 
  -3  -3   5   64.83    1.39 
  -2  -3   5  241.17    2.71 
  -1  -3   5   15.13    0.79 
   0  -3   5    9.11    0.68 
 -14  -2   5    1.79    1.15 
 -13  -2   5   -0.32    0.91 
 -12  -2   5    0.48    0.88 
 -11  -2   5   10.64    1.21 
 -10  -2   5   19.54    1.25 
  -9  -2   5    0.16    0.69 
  -8  -2   5    8.91    0.91 
  -7  -2   5   37.41    1.36 
  -6  -2   5   18.74    0.92 
  -5  -2   5   36.99    1.07 
  -4  -2   5   56.14    1.17 
  -3  -2   5    0.08    0.21 
  -2  -2   5    0.66    0.27 
  -1  -2   5   98.38    1.29 
   0  -2   5   46.20    0.94 
 -14  -1   5   -0.02    0.94 
 -13  -1   5    2.07    0.80 
 -12  -1   5    6.39    0.79 
 -11  -1   5   -0.16    0.75 
 -10  -1   5    0.67    0.75 
  -9  -1   5   42.03    1.57 
  -8  -1   5   17.81    0.96 
  -7  -1   5   27.05    1.07 
  -6  -1   5   12.79    0.76 
  -5  -1   5   82.38    1.49 
  -4  -1   5   85.22    1.38 
  -2  -1   5   13.85    0.42 
  -1  -1   5  248.01    2.02 
 -14   0   5    1.19    0.90 
 -13   0   5    4.99    0.93 
 -12   0   5    0.70    0.72 
 -11   0   5   23.30    1.31 
 -10   0   5    0.12    0.61 
  -9   0   5    5.87    0.67 
  -8   0   5    0.57    0.50 
  -7   0   5  121.02    2.11 
  -5   0   5   -0.06    0.36 
  -4   0   5   -0.13    0.32 
  -3   0   5   -0.32    0.36 
  -2   0   5    0.02    0.15 
  -1   0   5 2948.26   18.67 
 -14   1   5   -0.11    0.68 
 -13   1   5    2.77    0.76 
 -12   1   5    7.18    0.88 
 -11   1   5    0.65    0.60 
 -10   1   5    0.42    0.55 
  -9   1   5   35.28    1.31 
  -8   1   5   18.30    0.93 
  -7   1   5   24.11    0.96 
  -6   1   5   12.80    0.71 
  -5   1   5   80.91    1.54 
  -4   1   5   76.89    1.32 
  -3   1   5   14.71    0.57 
  -2   1   5   13.66    0.53 
  -1   1   5  304.70    2.57 
 -14   2   5    1.55    0.78 
 -13   2   5    0.13    0.64 
 -12   2   5    0.32    0.58 
 -11   2   5    8.35    0.87 
 -10   2   5   14.50    0.95 
  -9   2   5    0.38    0.58 
  -8   2   5    5.85    0.63 
  -7   2   5   33.72    1.23 
  -6   2   5   17.00    0.86 
  -5   2   5   31.76    0.96 
  -4   2   5   53.30    1.19 
  -3   2   5    0.18    0.27 
  -2   2   5    0.69    0.33 
  -1   2   5   77.25    1.37 
 -14   3   5    0.45    0.71 
 -13   3   5    0.65    0.59 
 -12   3   5   -0.04    0.50 
 -11   3   5   -0.17    0.43 
 -10   3   5    3.76    0.70 
  -9   3   5    0.39    0.46 
  -8   3   5   33.44    1.33 
  -7   3   5    0.25    0.45 
  -6   3   5    9.46    0.72 
  -5   3   5   86.75    1.68 
  -4   3   5    0.63    0.46 
  -3   3   5   70.39    1.47 
  -2   3   5  188.01    2.42 
   1   3   5    0.82    0.19 
   2   3   5   59.31    0.83 
   3   3   5   70.61    1.04 
   4   3   5    6.68    0.43 
   5   3   5    8.45    0.54 
   6   3   5    6.41    0.56 
 -13   4   5    2.57    0.64 
 -12   4   5    0.35    0.44 
 -11   4   5   23.90    1.23 
 -10   4   5    0.77    0.57 
  -9   4   5    3.86    0.69 
  -8   4   5   36.47    1.37 
  -7   4   5   16.68    0.97 
  -6   4   5    0.34    0.48 
  -5   4   5    8.80    0.73 
  -4   4   5   34.33    1.25 
  -3   4   5   41.16    1.25 
  -2   4   5   22.84    1.02 
   1   4   5    4.26    0.40 
   2   4   5  113.81    1.39 
   3   4   5    3.58    0.45 
   4   4   5   -0.09    0.34 
   5   4   5   11.09    0.65 
   6   4   5   15.95    0.78 
   7   4   5   19.54    0.96 
   8   4   5   63.95    1.63 
 -13   5   5    0.26    0.58 
 -12   5   5    1.38    0.65 
 -11   5   5    0.09    0.42 
 -10   5   5    1.79    0.63 
  -9   5   5    2.48    0.61 
  -8   5   5   10.07    0.91 
  -7   5   5    0.85    0.66 
  -6   5   5    0.17    0.63 
  -5   5   5    2.69    0.65 
  -4   5   5    1.51    0.62 
  -3   5   5   14.74    1.00 
  -2   5   5    3.96    0.57 
  -1   5   5   32.26    1.31 
 -12   6   5    0.34    0.63 
 -11   6   5    2.89    0.86 
 -10   6   5    0.25    0.67 
  -9   6   5    1.46    0.62 
  -8   6   5    0.49    0.66 
  -7   6   5   -0.60    0.56 
  -6   6   5    1.37    0.72 
  -5   6   5    0.29    0.55 
  -4   6   5    3.81    0.64 
  -3   6   5    2.55    0.78 
  -2   6   5    0.15    0.63 
  -1   6   5    5.24    0.74 
 -11   7   5    0.58    0.79 
 -10   7   5    0.49    0.70 
  -9   7   5    2.61    0.80 
  -8   7   5    4.81    0.93 
  -7   7   5    4.39    0.88 
  -6   7   5    3.14    0.74 
  -5   7   5    3.61    0.80 
  -4   7   5    0.15    0.63 
  -3   7   5    1.30    0.75 
  -2   7   5    0.69    0.63 
  -1   7   5    4.65    0.77 
  -9   8   5    0.60    0.76 
  -8   8   5    5.18    0.98 
  -7   8   5    0.61    0.74 
  -6   8   5    0.67    0.72 
  -5   8   5    2.07    0.70 
  -4   8   5    8.24    0.94 
  -3   8   5    1.34    0.67 
  -2   8   5    6.36    0.83 
  -1   8   5    0.67    0.73 
  -8   9   5    0.40    0.87 
  -7   9   5    0.54    0.88 
  -6   9   5    0.41    0.70 
  -5   9   5    1.22    0.73 
  -4   9   5   -0.32    0.55 
  -3   9   5    0.39    0.51 
  -2   9   5    3.48    0.61 
  -1   9   5    1.37    0.51 
   0   9   5    0.61    0.33 
  -5  10   5   -0.44    0.73 
  -4  10   5    0.67    0.71 
  -3  10   5   -0.18    0.56 
  -2  10   5    0.10    0.49 
  -1  10   5   -0.13    0.40 
   0  10   5    0.24    0.30 
   1  10   5    0.20    0.07 
  -9  -7   6   -0.66    0.94 
  -8  -7   6    0.90    0.91 
  -7  -7   6   10.40    1.35 
  -6  -7   6    0.10    1.14 
  -5  -7   6   18.64    1.44 
  -4  -7   6    7.56    1.20 
  -3  -7   6   -0.20    0.72 
  -2  -7   6   23.67    1.51 
  -1  -7   6    1.26    1.34 
   0  -7   6   24.61    1.64 
 -12  -6   6    0.94    1.54 
 -11  -6   6    2.32    1.37 
 -10  -6   6    3.18    1.20 
  -9  -6   6   -0.14    0.93 
  -8  -6   6    1.94    1.05 
  -7  -6   6    0.80    0.95 
  -6  -6   6    1.25    0.85 
  -5  -6   6    0.94    0.97 
  -4  -6   6   -0.67    0.57 
  -3  -6   6    9.44    0.96 
  -2  -6   6    8.39    1.04 
  -1  -6   6    2.14    1.13 
   0  -6   6   21.97    1.53 
 -13  -5   6   -1.08    1.43 
 -12  -5   6   16.65    1.95 
 -11  -5   6    3.26    1.27 
 -10  -5   6    0.34    1.02 
  -9  -5   6    0.00    0.93 
  -8  -5   6    3.28    0.96 
  -7  -5   6    8.77    1.13 
  -6  -5   6    6.28    0.88 
  -5  -5   6    0.74    0.72 
  -4  -5   6    0.01    0.40 
  -3  -5   6    1.85    0.60 
  -2  -5   6    4.78    0.99 
  -1  -5   6    1.25    0.87 
   0  -5   6   30.78    1.48 
 -14  -4   6    0.58    1.75 
 -13  -4   6    0.27    1.28 
 -12  -4   6    3.10    1.31 
 -11  -4   6   19.17    1.73 
 -10  -4   6    0.80    1.10 
  -9  -4   6   28.11    1.82 
  -8  -4   6   20.67    1.45 
  -7  -4   6   13.89    1.08 
  -6  -4   6    2.40    0.60 
  -5  -4   6    3.09    0.55 
  -4  -4   6    0.94    0.32 
  -3  -4   6    7.41    0.70 
  -2  -4   6    3.76    0.66 
  -1  -4   6  149.60    2.48 
   0  -4   6    1.68    0.85 
 -14  -3   6    1.05    1.39 
 -13  -3   6    3.17    1.18 
 -12  -3   6    2.05    1.01 
 -11  -3   6    3.49    0.97 
 -10  -3   6    3.33    0.95 
  -9  -3   6   56.35    1.99 
  -8  -3   6    1.54    0.78 
  -7  -3   6    0.58    0.64 
  -6  -3   6    5.06    0.63 
  -5  -3   6   33.05    1.12 
  -4  -3   6   12.78    0.63 
  -3  -3   6   91.66    1.55 
  -2  -3   6   61.26    1.28 
  -1  -3   6  169.65    2.26 
   0  -3   6   41.07    1.21 
 -14  -2   6    0.04    1.13 
 -13  -2   6    1.64    1.00 
 -12  -2   6    0.25    0.86 
 -11  -2   6    2.64    0.96 
 -10  -2   6    3.05    0.90 
  -9  -2   6   26.38    1.39 
  -8  -2   6    1.87    0.67 
  -7  -2   6   26.47    1.14 
  -6  -2   6    5.53    0.66 
  -5  -2   6    2.54    0.47 
  -4  -2   6    0.48    0.20 
  -3  -2   6   18.22    0.58 
  -2  -2   6   19.20    0.56 
  -1  -2   6   31.81    0.70 
 -14  -1   6    0.45    0.93 
 -13  -1   6    1.63    0.79 
 -12  -1   6    6.14    0.98 
 -11  -1   6   21.46    1.35 
 -10  -1   6    0.81    0.76 
  -9  -1   6   33.48    1.39 
  -8  -1   6    4.32    0.65 
  -7  -1   6   91.17    1.92 
  -6  -1   6   62.88    1.45 
  -5  -1   6   92.32    1.62 
  -4  -1   6  248.17    2.53 
  -3  -1   6  358.62    2.94 
  -2  -1   6  324.93    2.52 
  -1  -1   6  583.35    4.55 
 -14   0   6    2.38    0.98 
 -13   0   6    0.85    0.78 
 -12   0   6    6.59    0.90 
 -11   0   6   -0.08    0.67 
 -10   0   6   19.51    1.16 
  -9   0   6   -0.08    0.58 
  -8   0   6   10.40    0.78 
  -7   0   6    0.08    0.47 
  -6   0   6   49.49    1.24 
  -5   0   6    0.56    0.36 
  -4   0   6   15.89    0.64 
  -3   0   6   -0.17    0.31 
  -2   0   6  649.04    4.46 
  -1   0   6   -0.16    0.25 
 -14   1   6   -0.37    0.69 
 -13   1   6    1.77    0.76 
 -12   1   6    5.28    0.82 
 -11   1   6   16.56    1.10 
 -10   1   6    0.71    0.58 
  -9   1   6   28.43    1.19 
  -8   1   6    3.83    0.56 
  -7   1   6   85.20    1.84 
  -6   1   6   62.38    1.52 
  -5   1   6   86.04    1.61 
  -4   1   6  239.67    2.58 
  -3   1   6  314.55    2.81 
  -2   1   6  256.08    2.28 
  -1   1   6  542.26    3.91 
 -14   2   6   -0.19    0.68 
 -13   2   6    1.39    0.69 
 -12   2   6    0.43    0.57 
 -11   2   6    2.56    0.57 
 -10   2   6    2.01    0.59 
  -9   2   6   20.47    1.09 
  -8   2   6    1.00    0.51 
  -7   2   6   22.34    1.03 
  -6   2   6    4.24    0.52 
  -5   2   6    3.18    0.48 
  -4   2   6    3.74    0.48 
  -3   2   6   18.97    0.72 
  -2   2   6   16.48    0.66 
  -1   2   6   23.20    0.76 
 -14   3   6    0.58    0.74 
 -13   3   6    2.39    0.62 
 -12   3   6    0.96    0.57 
 -11   3   6    2.26    0.59 
 -10   3   6    2.29    0.64 
  -9   3   6   49.36    1.70 
  -8   3   6    0.62    0.59 
  -7   3   6    0.57    0.47 
  -6   3   6    4.84    0.62 
  -5   3   6   30.39    1.10 
  -4   3   6   33.23    1.05 
  -3   3   6   80.19    1.55 
  -2   3   6   49.05    1.29 
   2   3   6  136.44    1.27 
   3   3   6  286.04    2.32 
 -13   4   6   -0.18    0.56 
 -12   4   6    2.15    0.62 
 -11   4   6    9.23    0.86 
 -10   4   6    0.03    0.47 
  -9   4   6   18.41    1.11 
  -8   4   6   12.14    0.81 
  -7   4   6   12.28    0.93 
  -6   4   6    2.34    0.49 
  -5   4   6    1.82    0.54 
  -4   4   6    2.40    0.63 
  -3   4   6    5.85    0.56 
  -2   4   6    2.17    0.46 
   1   4   6    6.89    0.37 
   2   4   6   26.57    0.58 
   3   4   6    0.26    0.29 
   4   4   6   16.30    0.62 
   5   4   6    3.08    0.45 
 -12   5   6   10.07    0.98 
 -11   5   6    2.97    0.74 
 -10   5   6    0.78    0.56 
  -9   5   6    0.65    0.51 
  -8   5   6    3.88    0.61 
  -7   5   6    9.27    0.91 
  -6   5   6    6.72    0.87 
  -5   5   6    0.75    0.61 
  -4   5   6    0.64    0.54 
  -3   5   6    1.60    0.48 
  -2   5   6    3.23    0.66 
  -1   5   6    0.09    0.52 
 -12   6   6    0.04    0.64 
 -11   6   6    0.50    0.69 
 -10   6   6    2.26    0.76 
  -9   6   6   -0.09    0.55 
  -8   6   6    1.90    0.72 
  -7   6   6    0.44    0.60 
  -6   6   6    1.77    0.66 
  -5   6   6    0.38    0.64 
  -4   6   6   -0.91    0.55 
  -3   6   6   16.49    1.07 
  -2   6   6    4.79    0.75 
  -1   6   6    1.45    0.60 
 -10   7   6   -0.19    0.63 
  -9   7   6    0.36    0.64 
  -8   7   6    0.99    0.72 
  -7   7   6    8.11    1.00 
  -6   7   6    0.33    0.65 
  -5   7   6   16.12    1.17 
  -4   7   6    4.86    0.81 
  -3   7   6   -1.21    0.63 
  -2   7   6   29.89    1.39 
  -1   7   6    0.04    0.55 
  -9   8   6    0.14    0.74 
  -8   8   6    1.54    0.78 
  -7   8   6    2.62    0.89 
  -6   8   6   -0.05    0.65 
  -5   8   6    0.07    0.63 
  -4   8   6    6.06    0.83 
  -3   8   6    0.08    0.61 
  -2   8   6   -0.44    0.49 
  -1   8   6    1.94    0.72 
  -7   9   6    0.15    0.83 
  -6   9   6   -0.40    0.68 
  -5   9   6    0.66    0.62 
  -4   9   6    1.19    0.66 
  -3   9   6    1.29    0.58 
  -2   9   6    0.54    0.51 
  -1   9   6    0.48    0.46 
   0   9   6    1.39    0.35 
  -4  10   6   -0.26    0.68 
  -3  10   6    0.18    0.55 
   0  10   6    1.43    0.32 
 -12  -6   7    1.14    1.81 
 -11  -6   7    0.10    1.28 
 -10  -6   7    0.08    1.08 
  -9  -6   7    0.07    0.93 
  -8  -6   7    0.43    1.01 
  -7  -6   7    0.63    0.97 
  -6  -6   7    0.35    0.82 
  -5  -6   7    0.39    0.67 
  -4  -6   7    1.16    0.77 
  -3  -6   7    8.76    1.20 
  -2  -6   7   19.78    1.40 
  -1  -6   7   42.39    1.95 
   0  -6   7    4.13    1.13 
 -13  -5   7   -0.34    1.53 
 -12  -5   7    2.72    1.42 
 -11  -5   7    2.03    1.25 
 -10  -5   7    7.00    1.31 
  -9  -5   7   -0.12    0.95 
  -8  -5   7   -0.38    0.90 
  -7  -5   7   13.34    1.26 
  -6  -5   7    0.31    0.66 
  -4  -5   7    1.41    0.63 
  -3  -5   7    5.90    0.75 
  -2  -5   7    0.76    0.76 
  -1  -5   7   44.42    1.59 
   0  -5   7   75.57    2.05 
 -14  -4   7   -0.41    1.77 
 -13  -4   7    1.65    1.45 
 -12  -4   7    1.72    1.21 
 -11  -4   7   12.02    1.48 
 -10  -4   7   23.16    1.75 
  -9  -4   7    6.14    1.21 
  -8  -4   7    4.45    1.09 
  -7  -4   7    0.06    0.79 
  -6  -4   7    6.80    0.84 
  -5  -4   7    0.44    0.32 
  -4  -4   7   56.97    1.51 
  -3  -4   7   75.26    1.65 
  -2  -4   7  207.29    2.90 
  -1  -4   7    1.11    0.69 
   0  -4   7  264.27    3.25 
 -14  -3   7    0.97    1.37 
 -13  -3   7   -0.41    1.08 
 -12  -3   7    3.06    1.11 
 -11  -3   7    8.72    1.29 
 -10  -3   7    5.38    1.04 
  -9  -3   7   10.48    1.12 
  -8  -3   7   43.92    1.68 
  -7  -3   7    4.57    0.79 
  -6  -3   7    0.19    0.49 
  -4  -3   7    0.21    0.40 
  -3  -3   7  143.50    1.94 
  -2  -3   7   40.48    1.05 
  -1  -3   7    1.26    0.61 
   0  -3   7   22.68    0.79 
 -14  -2   7    0.31    1.14 
 -13  -2   7    1.70    1.06 
 -12  -2   7   -0.59    0.88 
 -11  -2   7    0.86    0.92 
 -10  -2   7    3.45    0.92 
  -9  -2   7   13.43    1.13 
  -8  -2   7   49.94    1.62 
  -7  -2   7    3.67    0.63 
  -6  -2   7   44.91    1.25 
  -5  -2   7    0.57    0.37 
  -4  -2   7    2.91    0.38 
  -3  -2   7   27.17    0.71 
  -2  -2   7   36.73    0.77 
  -1  -2   7   33.75    0.70 
 -14  -1   7    1.05    0.89 
 -13  -1   7   -0.14    0.70 
 -12  -1   7    3.04    0.88 
 -11  -1   7    5.55    0.96 
 -10  -1   7    8.59    0.99 
  -9  -1   7    1.06    0.66 
  -8  -1   7    3.83    0.71 
  -7  -1   7   62.74    1.60 
  -6  -1   7  219.19    2.85 
  -5  -1   7  147.74    2.09 
  -3  -1   7   41.12    0.86 
  -2  -1   7  173.41    1.63 
  -1  -1   7   11.36    0.30 
 -14   0   7    0.56    0.92 
 -13   0   7   17.53    1.29 
 -12   0   7    0.08    0.68 
 -11   0   7    9.03    0.97 
 -10   0   7   -0.15    0.61 
  -9   0   7    1.88    0.63 
  -8   0   7    0.12    0.52 
  -7   0   7   21.45    1.00 
  -6   0   7    0.44    0.42 
  -5   0   7    2.56    0.48 
  -4   0   7    0.32    0.35 
  -2   0   7   -0.04    0.32 
  -1   0   7 2275.87   13.86 
 -14   1   7    0.37    0.73 
 -13   1   7    0.87    0.73 
 -12   1   7    1.27    0.67 
 -11   1   7    3.80    0.74 
 -10   1   7    6.37    0.79 
  -9   1   7    0.38    0.49 
  -8   1   7    2.93    0.53 
  -7   1   7   55.30    1.46 
  -6   1   7  218.16    2.97 
  -5   1   7  148.40    2.23 
  -4   1   7    9.75    0.55 
  -3   1   7   32.81    0.83 
  -2   1   7  137.23    1.62 
  -1   1   7    5.80    0.32 
 -14   2   7   -0.53    0.70 
 -13   2   7    0.70    0.64 
 -12   2   7    0.16    0.57 
 -11   2   7    0.15    0.49 
 -10   2   7    1.75    0.56 
  -9   2   7   10.19    0.85 
  -8   2   7   45.38    1.50 
  -7   2   7    3.66    0.60 
  -6   2   7   34.89    1.05 
  -5   2   7    0.10    0.43 
  -4   2   7    2.42    0.43 
  -3   2   7   24.04    0.76 
  -2   2   7   27.82    0.79 
  -1   2   7   20.16    0.69 
 -13   3   7    0.01    0.51 
 -12   3   7    1.04    0.59 
 -11   3   7    4.78    0.74 
 -10   3   7    3.55    0.65 
  -9   3   7    9.63    0.94 
  -8   3   7   36.64    1.40 
  -7   3   7    3.84    0.61 
  -6   3   7   -0.18    0.38 
  -5   3   7   66.65    1.55 
  -4   3   7    0.15    0.42 
  -3   3   7  117.43    1.85 
  -2   3   7   28.82    0.98 
  -1   3   7    0.77    0.43 
 -13   4   7    1.31    0.69 
 -12   4   7    1.19    0.65 
 -11   4   7    7.00    0.78 
 -10   4   7   16.45    1.10 
  -9   4   7    5.43    0.79 
  -8   4   7    1.97    0.50 
  -7   4   7   -0.04    0.63 
  -6   4   7    4.83    0.59 
  -5   4   7    3.37    0.60 
  -4   4   7   46.82    1.42 
  -3   4   7   52.92    1.37 
  -2   4   7  138.80    2.36 
 -12   5   7    1.04    0.60 
 -11   5   7    2.94    0.73 
 -10   5   7    5.42    0.78 
  -9   5   7    0.21    0.46 
  -8   5   7    0.17    0.42 
  -7   5   7    9.93    0.89 
  -6   5   7    0.78    0.70 
  -5   5   7   63.78    1.88 
  -4   5   7    1.10    0.47 
  -3   5   7    3.90    0.70 
  -2   5   7    0.39    0.55 
  -1   5   7   23.72    1.11 
 -11   6   7    0.07    0.67 
 -10   6   7    0.17    0.63 
  -9   6   7   -0.49    0.54 
  -8   6   7    0.66    0.64 
  -7   6   7    0.16    0.59 
  -6   6   7    0.29    0.55 
  -5   6   7    0.50    0.60 
  -4   6   7    0.73    0.58 
  -3   6   7    5.59    0.79 
  -2   6   7   11.98    0.92 
  -1   6   7   19.41    1.07 
 -10   7   7    0.49    0.66 
  -9   7   7   -0.10    0.60 
  -8   7   7    0.37    0.62 
  -7   7   7    1.43    0.66 
  -6   7   7    0.73    0.62 
  -5   7   7    9.10    0.94 
  -4   7   7   10.10    0.96 
  -3   7   7    1.43    0.59 
  -1   7   7    0.38    0.54 
  -9   8   7    0.27    0.83 
  -8   8   7    1.74    0.76 
  -7   8   7    0.43    0.79 
  -6   8   7    4.45    0.81 
  -5   8   7    0.06    0.59 
  -4   8   7    0.57    0.58 
  -3   8   7    0.08    0.58 
  -2   8   7    0.13    0.51 
  -1   8   7    1.10    0.64 
   0   8   7    0.34    0.34 
  -7   9   7   -0.21    0.86 
  -6   9   7    0.22    0.65 
  -5   9   7   -0.19    0.64 
  -4   9   7    0.83    0.58 
  -3   9   7    0.83    0.56 
  -2   9   7    1.01    0.48 
  -1   9   7   -0.02    0.37 
   0   9   7    0.62    0.27 
  -4  10   7    0.94    0.63 
  -3  10   7    0.77    0.55 
  -2  10   7    0.16    0.41 
  -1  10   7    0.34    0.33 
   0  10   7    0.26    0.24 
   1  10   7    0.01    0.02 
 -13  -5   8   -1.45    1.73 
 -12  -5   8    0.34    1.30 
 -11  -5   8    0.66    1.28 
 -10  -5   8    9.86    1.43 
  -9  -5   8   -0.25    0.99 
  -8  -5   8    1.10    0.88 
  -7  -5   8   12.50    1.30 
  -6  -5   8    2.58    0.55 
  -5  -5   8    7.57    0.90 
  -4  -5   8   34.24    1.39 
  -3  -5   8    5.36    0.79 
  -2  -5   8    1.70    0.77 
  -1  -5   8   13.77    1.18 
 -14  -4   8   -0.56    1.75 
 -13  -4   8    0.91    1.34 
 -12  -4   8    0.33    1.21 
 -11  -4   8    7.48    1.36 
 -10  -4   8    0.83    1.04 
  -9  -4   8   -0.09    1.03 
  -8  -4   8    0.96    1.06 
  -7  -4   8    3.09    0.77 
  -5  -4   8   -0.32    0.52 
  -4  -4   8   17.15    0.92 
  -3  -4   8    3.59    0.60 
  -2  -4   8   63.14    1.64 
  -1  -4   8   37.63    1.41 
 -14  -3   8    1.40    1.47 
 -13  -3   8    0.54    1.12 
 -12  -3   8    0.56    0.99 
 -11  -3   8   12.32    1.34 
 -10  -3   8    0.21    0.86 
  -9  -3   8   50.72    1.95 
  -8  -3   8    1.52    0.77 
  -7  -3   8   64.81    1.87 
  -6  -3   8    4.94    0.65 
  -5  -3   8   52.04    1.36 
  -4  -3   8   12.24    0.72 
  -3  -3   8   45.81    1.08 
  -2  -3   8   87.61    1.45 
  -1  -3   8  135.05    1.94 
 -14  -2   8    0.35    1.28 
 -13  -2   8    0.25    1.01 
 -12  -2   8    1.39    1.02 
 -11  -2   8    7.20    1.18 
 -10  -2   8    2.63    0.89 
  -9  -2   8    0.96    0.76 
  -8  -2   8   14.44    1.00 
  -7  -2   8    8.83    0.71 
  -6  -2   8   16.06    0.81 
  -4  -2   8   27.01    0.84 
  -3  -2   8   -0.07    0.31 
  -2  -2   8  123.39    1.34 
  -1  -2   8   61.35    0.91 
 -14  -1   8    1.71    0.97 
 -13  -1   8    1.15    0.76 
 -12  -1   8    1.63    0.84 
 -11  -1   8    7.20    1.02 
 -10  -1   8    7.09    0.95 
  -9  -1   8   13.86    1.01 
  -8  -1   8   25.86    1.20 
  -7  -1   8   55.51    1.54 
  -6  -1   8    7.41    0.66 
  -5  -1   8    3.91    0.49 
  -4  -1   8   10.51    0.57 
  -3  -1   8    6.76    0.43 
  -2  -1   8  192.55    1.80 
  -1  -1   8   26.77    0.47 
 -14   0   8    0.05    0.88 
 -13   0   8    1.17    0.77 
 -12   0   8    4.43    0.86 
 -11   0   8    0.13    0.68 
 -10   0   8    0.25    0.61 
  -9   0   8   -0.18    0.54 
  -8   0   8   -0.72    0.47 
  -7   0   8    1.13    0.52 
  -6   0   8   44.96    1.23 
  -5   0   8    0.08    0.41 
  -4   0   8   98.31    1.63 
  -3   0   8    0.32    0.33 
  -2   0   8  630.63    4.49 
  -1   0   8    0.22    0.23 
 -14   1   8    1.61    0.84 
 -13   1   8    0.84    0.71 
 -12   1   8    0.72    0.68 
 -11   1   8    5.65    0.81 
 -10   1   8    5.43    0.79 
  -9   1   8   11.76    0.87 
  -8   1   8   22.26    1.07 
  -7   1   8   47.02    1.34 
  -6   1   8    5.75    0.67 
  -5   1   8    3.48    0.54 
  -4   1   8    9.06    0.55 
  -3   1   8    5.03    0.42 
  -2   1   8  127.30    1.57 
 -14   2   8    0.37    0.75 
 -13   2   8    0.53    0.62 
 -12   2   8    1.02    0.62 
 -11   2   8    3.75    0.66 
 -10   2   8    1.79    0.52 
  -9   2   8    0.81    0.56 
  -8   2   8   14.22    1.00 
  -7   2   8    8.46    0.73 
  -6   2   8   13.48    0.74 
  -5   2   8   89.41    1.72 
  -4   2   8   21.77    0.80 
  -3   2   8    3.77    0.39 
  -2   2   8  105.01    1.54 
  -1   2   8   31.41    0.80 
 -13   3   8    0.11    0.62 
 -12   3   8   -0.37    0.53 
 -11   3   8    8.65    0.88 
 -10   3   8   -0.03    0.48 
  -9   3   8   40.93    1.56 
  -8   3   8    1.30    0.63 
  -7   3   8   45.73    1.39 
  -6   3   8    4.72    0.56 
  -5   3   8   43.94    1.27 
  -4   3   8    9.08    0.66 
  -3   3   8   33.78    0.99 
  -2   3   8   57.63    1.30 
  -1   3   8   64.02    1.37 
 -13   4   8    0.53    0.63 
 -12   4   8    0.37    0.59 
 -11   4   8    3.68    0.66 
 -10   4   8    0.48    0.64 
  -9   4   8    0.75    0.62 
  -8   4   8    0.20    0.42 
  -7   4   8    2.49    0.72 
  -6   4   8   22.63    1.07 
  -5   4   8    0.26    0.47 
  -4   4   8   14.45    0.92 
  -3   4   8    2.86    0.49 
  -2   4   8   31.23    1.05 
  -1   4   8   16.47    0.84 
 -12   5   8    0.90    0.66 
 -11   5   8    0.55    0.72 
 -10   5   8    7.72    0.92 
  -9   5   8    0.20    0.43 
  -8   5   8    0.82    0.58 
  -7   5   8    9.74    0.86 
  -6   5   8   14.84    1.08 
  -5   5   8    6.27    0.73 
  -4   5   8   25.05    1.13 
  -3   5   8    3.80    0.69 
  -2   5   8    1.12    0.43 
  -1   5   8    6.43    0.68 
 -11   6   8    0.36    0.65 
 -10   6   8    1.57    0.62 
  -9   6   8   -0.61    0.51 
  -8   6   8    1.58    0.57 
  -7   6   8    3.87    0.72 
  -6   6   8   -0.13    0.51 
  -5   6   8    0.35    0.56 
  -4   6   8   -0.41    0.52 
  -3   6   8    7.60    0.82 
  -2   6   8    4.40    0.69 
  -1   6   8   20.43    0.96 
 -10   7   8    1.21    0.70 
  -9   7   8    0.47    0.63 
  -8   7   8    6.35    0.90 
  -7   7   8    1.01    0.68 
  -6   7   8    0.24    0.60 
  -5   7   8    1.18    0.62 
  -4   7   8    0.89    0.49 
  -3   7   8    4.29    0.69 
  -2   7   8   58.15    1.76 
  -1   7   8    2.80    0.61 
  -9   8   8    0.84    0.85 
  -8   8   8    0.32    0.71 
  -7   8   8    1.53    0.76 
  -6   8   8    1.90    0.71 
  -5   8   8    4.89    0.82 
  -4   8   8   -0.15    0.51 
  -3   8   8    5.53    0.76 
  -2   8   8    0.35    0.47 
  -1   8   8   -0.34    0.48 
   0   8   8    0.95    0.32 
  -7   9   8    0.08    0.85 
  -6   9   8    0.20    0.70 
  -5   9   8    0.38    0.63 
  -4   9   8    0.06    0.56 
  -3   9   8    1.30    0.53 
  -2   9   8    0.85    0.45 
  -1   9   8   -0.17    0.34 
   0   9   8    0.09    0.20 
  -3  10   8   -0.10    0.50 
  -2  10   8    0.18    0.39 
  -1  10   8   -0.04    0.29 
   0  10   8    0.30    0.23 
   1  10   8    0.00    0.00 
  -9  -5   9    6.15    1.25 
  -8  -5   9    0.00    0.87 
  -7  -5   9    3.95    0.93 
  -6  -5   9   38.98    1.57 
 -13  -4   9   -0.17    1.39 
 -12  -4   9    4.35    1.51 
 -11  -4   9    2.06    1.18 
 -10  -4   9    8.24    1.34 
  -9  -4   9   18.32    1.51 
  -8  -4   9   46.01    2.04 
  -7  -4   9    0.06    0.70 
  -6  -4   9    6.59    0.83 
  -5  -4   9    1.09    0.57 
  -4  -4   9    3.41    0.64 
  -3  -4   9   17.43    0.87 
  -2  -4   9   -0.32    0.57 
  -1  -4   9   12.24    0.80 
 -14  -3   9    0.72    1.42 
 -13  -3   9    0.93    1.14 
 -12  -3   9    1.49    1.03 
 -11  -3   9    4.25    1.09 
 -10  -3   9    8.88    1.18 
  -9  -3   9   31.62    1.68 
  -8  -3   9   16.37    1.18 
  -7  -3   9    6.25    0.80 
  -6  -3   9   13.35    0.83 
  -5  -3   9    0.57    0.48 
  -4  -3   9   25.72    0.96 
  -3  -3   9    0.35    0.37 
  -2  -3   9    1.25    0.44 
  -1  -3   9    1.32    0.48 
 -14  -2   9    1.34    1.27 
 -13  -2   9   -0.40    1.07 
 -12  -2   9    3.80    1.09 
 -11  -2   9    6.19    1.10 
 -10  -2   9    0.93    0.94 
  -9  -2   9   31.60    1.43 
  -8  -2   9    8.39    0.84 
  -7  -2   9    3.48    0.62 
  -6  -2   9    7.30    0.60 
  -5  -2   9    0.23    0.40 
  -4  -2   9   14.16    0.65 
  -3  -2   9    1.16    0.34 
  -2  -2   9    2.03    0.27 
 -14  -1   9    0.37    0.91 
 -13  -1   9    0.48    0.82 
 -12  -1   9    3.14    0.96 
 -11  -1   9    8.43    1.10 
 -10  -1   9   18.73    1.25 
  -9  -1   9    8.69    0.90 
  -8  -1   9    2.58    0.66 
  -7  -1   9    0.58    0.57 
  -6  -1   9   38.30    1.23 
  -5  -1   9    0.54    0.24 
  -4  -1   9  141.93    1.92 
  -3  -1   9   38.24    0.87 
  -2  -1   9   99.88    1.23 
  -1  -1   9  122.03    1.17 
 -14   0   9   -0.30    0.90 
 -13   0   9    3.88    0.89 
 -12   0   9    0.99    0.77 
 -11   0   9    1.05    0.73 
 -10   0   9   -0.17    0.62 
  -9   0   9    2.26    0.65 
  -8   0   9   -0.20    0.56 
  -7   0   9  108.82    2.03 
  -6   0   9    0.34    0.45 
  -5   0   9    0.57    0.44 
  -4   0   9    0.50    0.29 
  -3   0   9  961.33    6.52 
  -2   0   9   -0.05    0.30 
  -1   0   9   25.59    0.55 
 -14   1   9    0.41    0.83 
 -13   1   9    0.05    0.65 
 -12   1   9    1.10    0.69 
 -11   1   9    6.28    0.82 
 -10   1   9   16.02    1.08 
  -9   1   9    6.33    0.72 
  -8   1   9    2.07    0.60 
  -7   1   9    0.00    0.41 
  -6   1   9   36.13    1.21 
  -5   1   9    0.77    0.40 
  -4   1   9  107.31    1.64 
  -3   1   9   28.48    0.81 
  -1   1   9   40.93    0.73 
 -14   2   9    0.45    0.79 
 -13   2   9   -0.15    0.61 
 -12   2   9    3.08    0.72 
 -11   2   9    3.62    0.63 
 -10   2   9    0.14    0.47 
  -9   2   9   22.89    1.07 
  -8   2   9    6.96    0.82 
  -7   2   9    3.22    0.62 
  -6   2   9    9.75    0.69 
  -5   2   9    0.20    0.42 
  -4   2   9   12.14    0.66 
  -3   2   9    0.94    0.31 
  -2   2   9    1.67    0.31 
  -1   2   9    8.77    0.46 
 -13   3   9    0.53    0.63 
 -12   3   9    0.99    0.56 
 -11   3   9    2.30    0.66 
 -10   3   9    5.37    0.67 
  -9   3   9   21.80    1.18 
  -8   3   9   11.78    0.84 
  -7   3   9    4.69    0.67 
  -6   3   9   24.27    1.06 
  -5   3   9    0.40    0.46 
  -4   3   9   16.81    0.79 
  -3   3   9    0.45    0.33 
  -2   3   9    0.31    0.35 
  -1   3   9    0.62    0.33 
 -13   4   9    0.46    0.65 
 -12   4   9    2.28    0.71 
 -11   4   9    1.15    0.53 
 -10   4   9    5.20    0.81 
  -9   4   9   13.06    1.00 
  -8   4   9   26.21    1.18 
  -7   4   9    0.08    0.60 
  -6   4   9    5.25    0.72 
  -5   4   9    1.11    0.52 
  -4   4   9    2.85    0.60 
  -3   4   9   10.28    0.65 
  -2   4   9   -0.53    0.35 
  -1   4   9    5.42    0.50 
 -12   5   9    0.10    0.59 
 -11   5   9    0.39    0.71 
 -10   5   9    0.37    0.63 
  -9   5   9    4.27    0.69 
  -8   5   9    0.51    0.59 
  -7   5   9    9.37    0.85 
  -6   5   9   33.42    1.44 
  -5   5   9   17.07    1.07 
  -4   5   9    5.54    0.69 
  -3   5   9   10.45    0.84 
  -2   5   9    1.14    0.51 
  -1   5   9    0.67    0.48 
 -11   6   9    0.47    0.76 
 -10   6   9    0.54    0.68 
  -9   6   9    2.72    0.73 
  -8   6   9    0.01    0.66 
  -7   6   9    0.86    0.67 
  -6   6   9   -0.30    0.53 
  -5   6   9   -0.17    0.52 
  -4   6   9    6.27    0.78 
  -3   6   9    6.26    0.78 
  -2   6   9   10.08    0.86 
  -1   6   9    5.70    0.65 
 -10   7   9    0.95    0.64 
  -9   7   9    0.46    0.57 
  -8   7   9    0.27    0.58 
  -7   7   9   -0.23    0.56 
  -6   7   9    8.96    0.88 
  -5   7   9    0.38    0.58 
  -4   7   9    1.49    0.55 
  -3   7   9    0.20    0.45 
  -2   7   9   15.17    0.93 
  -1   7   9   12.24    0.88 
  -8   8   9    0.27    0.67 
  -7   8   9    1.07    0.75 
  -6   8   9    0.35    0.57 
  -5   8   9   -0.09    0.56 
  -4   8   9   -0.23    0.48 
  -3   8   9    1.24    0.56 
  -2   8   9    0.34    0.44 
  -1   8   9    0.33    0.44 
   0   8   9    1.75    0.29 
  -6   9   9   -0.01    0.66 
  -5   9   9   -0.20    0.55 
  -4   9   9   -0.33    0.51 
  -3   9   9    0.15    0.44 
  -2   9   9    1.14    0.42 
  -1   9   9   -0.10    0.32 
   0   9   9    0.16    0.19 
  -2  10   9   -0.08    0.35 
  -1  10   9    0.05    0.25 
   0  10   9    0.13    0.19 
   1  10   9   -0.07    0.00 
 -12  -4  10    5.63    1.52 
 -11  -4  10    0.79    1.19 
 -10  -4  10    8.70    1.46 
  -9  -4  10    2.09    1.07 
  -8  -4  10   25.29    1.67 
  -7  -4  10   13.37    1.03 
  -6  -4  10   27.06    1.29 
  -5  -4  10   21.21    1.04 
  -4  -4  10   58.86    1.52 
 -14  -3  10   -0.02    1.48 
 -13  -3  10    2.34    1.19 
 -12  -3  10    0.87    1.04 
 -11  -3  10    4.16    1.11 
 -10  -3  10    1.22    1.00 
  -9  -3  10    0.59    0.91 
  -8  -3  10    3.69    0.99 
  -7  -3  10    1.61    0.51 
  -6  -3  10    1.09    0.66 
  -5  -3  10   25.55    0.99 
  -4  -3  10    3.65    0.58 
  -3  -3  10   20.90    0.74 
  -2  -3  10   57.69    1.14 
  -1  -3  10   57.73    1.04 
 -14  -2  10    0.46    1.30 
 -13  -2  10    0.51    1.06 
 -12  -2  10    1.33    1.06 
 -11  -2  10    0.55    0.91 
 -10  -2  10    9.78    1.14 
  -9  -2  10    0.41    0.70 
  -8  -2  10   28.44    1.26 
  -7  -2  10   51.22    1.50 
  -6  -2  10    6.08    0.60 
  -5  -2  10    1.22    0.42 
  -4  -2  10   20.77    0.76 
  -3  -2  10   58.38    1.04 
  -2  -2  10    1.50    0.27 
 -14  -1  10    0.39    1.01 
 -13  -1  10    0.28    0.84 
 -12  -1  10    3.22    0.97 
 -11  -1  10    3.34    0.95 
 -10  -1  10   19.54    1.27 
  -9  -1  10   23.13    1.27 
  -8  -1  10    7.09    0.80 
  -7  -1  10    3.07    0.63 
  -6  -1  10   11.46    0.77 
  -5  -1  10    4.69    0.48 
  -4  -1  10   56.91    1.22 
  -3  -1  10   17.27    0.68 
  -2  -1  10   55.08    0.89 
  -1  -1  10   37.93    0.64 
 -14   0  10    0.07    0.96 
 -13   0  10    0.26    0.76 
 -12   0  10    4.21    0.88 
 -11   0  10    0.55    0.69 
 -10   0  10    4.02    0.79 
  -9   0  10   -0.49    0.54 
  -8   0  10    8.92    0.86 
  -7   0  10    0.07    0.44 
  -6   0  10   22.53    0.91 
  -5   0  10   -0.30    0.37 
  -4   0  10   66.27    1.36 
  -3   0  10    0.81    0.38 
  -2   0  10   32.95    0.72 
  -1   0  10    0.23    0.21 
   0   0  10   10.15    0.27 
 -14   1  10    0.42    0.79 
 -13   1  10    0.50    0.70 
 -12   1  10    1.83    0.70 
 -11   1  10    3.22    0.69 
 -10   1  10   15.51    1.03 
  -9   1  10   19.12    1.04 
  -8   1  10    7.19    0.76 
  -7   1  10    1.46    0.49 
  -6   1  10   10.55    0.79 
  -5   1  10    3.55    0.46 
  -4   1  10   43.72    1.06 
  -3   1  10   10.57    0.54 
  -2   1  10   11.07    0.42 
  -1   1  10   15.77    0.46 
 -14   2  10    0.16    0.74 
 -13   2  10    0.39    0.59 
 -12   2  10    0.63    0.58 
 -11   2  10    0.01    0.52 
 -10   2  10    6.20    0.73 
  -9   2  10    0.27    0.45 
  -8   2  10   26.56    1.21 
  -7   2  10   41.27    1.31 
  -6   2  10    7.06    0.61 
  -5   2  10    0.74    0.39 
  -4   2  10   15.06    0.68 
  -3   2  10   38.51    0.91 
  -2   2  10    0.92    0.26 
  -1   2  10   58.67    1.05 
 -13   3  10    0.88    0.60 
 -12   3  10   -0.05    0.49 
 -11   3  10    2.45    0.65 
 -10   3  10   -0.14    0.48 
  -9   3  10    0.75    0.58 
  -8   3  10    2.21    0.63 
  -7   3  10    3.04    0.56 
  -6   3  10    0.53    0.50 
  -5   3  10   19.49    0.87 
  -4   3  10    2.22    0.45 
  -3   3  10   12.78    0.61 
  -2   3  10   25.60    0.77 
  -1   3  10   23.23    0.76 
 -13   4  10    0.41    0.64 
 -12   4  10    3.02    0.72 
 -11   4  10   -0.02    0.51 
 -10   4  10    5.26    0.79 
  -9   4  10    0.76    0.63 
  -8   4  10   14.55    0.95 
  -7   4  10   16.01    1.00 
  -6   4  10   17.50    0.96 
  -5   4  10   14.49    0.81 
  -4   4  10   40.01    1.28 
  -3   4  10   12.17    0.66 
  -2   4  10    1.22    0.38 
  -1   4  10    7.15    0.55 
 -12   5  10    1.28    0.67 
 -11   5  10    0.59    0.65 
 -10   5  10    0.20    0.58 
  -9   5  10    0.66    0.53 
  -8   5  10    1.18    0.58 
  -7   5  10    1.73    0.56 
  -6   5  10    2.14    0.56 
  -5   5  10   20.81    1.11 
  -4   5  10    1.80    0.56 
  -3   5  10   -0.03    0.48 
  -2   5  10   -0.17    0.40 
  -1   5  10    0.01    0.41 
 -11   6  10    0.10    0.76 
 -10   6  10    1.30    0.63 
  -9   6  10    0.31    0.59 
  -8   6  10    0.26    0.52 
  -7   6  10    0.28    0.49 
  -6   6  10    0.03    0.53 
  -5   6  10   -0.03    0.51 
  -4   6  10    0.61    0.55 
  -3   6  10    8.59    0.78 
  -2   6  10    1.75    0.55 
  -1   6  10    0.42    0.43 
 -10   7  10    0.87    0.73 
  -9   7  10    0.56    0.69 
  -8   7  10    2.09    0.73 
  -7   7  10   -0.02    0.66 
  -6   7  10    0.97    0.60 
  -5   7  10    3.56    0.74 
  -4   7  10    6.08    0.74 
  -3   7  10    1.88    0.64 
  -2   7  10    0.90    0.54 
  -1   7  10    7.33    0.74 
  -8   8  10    0.15    0.63 
  -7   8  10   -0.56    0.63 
  -6   8  10    0.19    0.52 
  -5   8  10    0.47    0.57 
  -4   8  10    0.14    0.47 
  -3   8  10    4.52    0.66 
  -2   8  10    2.14    0.50 
  -1   8  10    0.42    0.43 
   0   8  10    0.00    0.21 
  -6   9  10    1.07    0.67 
  -5   9  10    0.28    0.58 
  -4   9  10    0.10    0.49 
  -3   9  10    0.23    0.43 
  -2   9  10    1.38    0.39 
  -1   9  10    0.10    0.29 
   0   9  10    0.08    0.16 
   0  10  10    0.05    0.14 
 -14  -3  11    1.30    1.63 
 -13  -3  11    0.80    1.20 
 -12  -3  11   -0.04    1.10 
 -11  -3  11    2.42    1.17 
 -10  -3  11   25.07    1.68 
  -9  -3  11   14.01    1.37 
  -8  -3  11    1.08    0.90 
  -7  -3  11    8.42    0.85 
  -6  -3  11    4.55    0.78 
  -5  -3  11   36.94    1.17 
  -4  -3  11  125.64    2.03 
 -14  -2  11    0.55    1.27 
 -13  -2  11    0.23    1.07 
 -12  -2  11    1.85    1.04 
 -11  -2  11    0.37    0.88 
 -10  -2  11    4.03    0.88 
  -9  -2  11    5.07    0.86 
  -8  -2  11    5.04    0.90 
  -7  -2  11    1.79    0.47 
  -6  -2  11  124.53    2.24 
  -5  -2  11    1.06    0.49 
  -4  -2  11    2.58    0.38 
  -3  -2  11    1.25    0.35 
  -2  -2  11   22.76    0.53 
 -14  -1  11    0.57    0.94 
 -13  -1  11    0.08    0.90 
 -12  -1  11    1.32    0.91 
 -11  -1  11    4.00    1.00 
 -10  -1  11    0.78    0.74 
  -9  -1  11    8.44    0.99 
  -8  -1  11    3.75    0.75 
  -7  -1  11   -0.55    0.54 
  -6  -1  11    0.34    0.28 
  -5  -1  11    6.36    0.61 
  -4  -1  11  118.62    1.80 
  -3  -1  11    8.61    0.52 
  -2  -1  11   86.82    1.13 
  -1  -1  11   67.98    0.85 
 -14   0  11   -0.20    0.93 
 -13   0  11    2.34    0.84 
 -12   0  11    0.23    0.73 
 -11   0  11    4.80    0.84 
 -10   0  11   -0.05    0.65 
  -9   0  11    0.25    0.57 
  -8   0  11   -0.31    0.57 
  -7   0  11    4.80    0.62 
  -6   0  11   -0.22    0.41 
  -4   0  11   -0.13    0.37 
  -3   0  11  458.61    3.70 
  -2   0  11    0.77    0.30 
  -1   0  11  129.92    1.33 
   0   0  11   -0.12    0.11 
 -14   1  11   -0.05    0.84 
 -13   1  11    0.20    0.66 
 -12   1  11    0.54    0.63 
 -11   1  11    2.91    0.66 
 -10   1  11    0.24    0.56 
  -9   1  11    5.23    0.69 
  -8   1  11    2.29    0.62 
  -7   1  11   -0.38    0.43 
  -6   1  11   -0.23    0.45 
  -5   1  11    4.12    0.46 
  -4   1  11   88.17    1.54 
  -3   1  11    1.02    0.20 
  -2   1  11   47.21    0.88 
  -1   1  11   26.71    0.54 
 -13   2  11    0.18    0.61 
 -12   2  11    0.34    0.58 
 -11   2  11    0.13    0.50 
 -10   2  11    2.77    0.63 
  -9   2  11    3.05    0.58 
  -8   2  11    4.60    0.74 
  -7   2  11    2.37    0.61 
  -6   2  11   83.78    1.69 
  -5   2  11    1.16    0.42 
  -4   2  11    2.13    0.39 
  -3   2  11    0.61    0.28 
  -2   2  11   13.52    0.52 
  -1   2  11   11.28    0.50 
 -13   3  11    0.29    0.60 
 -12   3  11    0.09    0.49 
 -11   3  11    1.20    0.59 
 -10   3  11   12.48    0.86 
  -9   3  11    8.50    0.82 
  -8   3  11    0.93    0.54 
  -7   3  11    5.85    0.66 
  -6   3  11    2.73    0.55 
  -5   3  11   22.50    0.89 
  -4   3  11   72.92    1.44 
  -3   3  11    1.75    0.32 
  -2   3  11   10.21    0.48 
  -1   3  11    2.95    0.31 
 -12   4  11    1.43    0.64 
 -11   4  11    0.39    0.54 
 -10   4  11    0.49    0.57 
  -9   4  11   15.35    0.98 
  -8   4  11    2.36    0.58 
  -7   4  11    5.79    0.67 
  -6   4  11   12.66    0.81 
  -5   4  11    6.34    0.59 
  -4   4  11    0.09    0.45 
  -3   4  11    4.57    0.45 
  -2   4  11   33.51    0.98 
  -1   4  11    0.08    0.22 
 -12   5  11    0.64    0.64 
 -11   5  11    1.66    0.71 
 -10   5  11    1.52    0.67 
  -9   5  11    2.66    0.61 
  -8   5  11    4.16    0.71 
  -7   5  11    0.84    0.52 
  -6   5  11   -0.11    0.48 
  -5   5  11    8.44    0.78 
  -4   5  11    1.31    0.50 
  -3   5  11    5.02    0.60 
  -2   5  11    0.08    0.38 
  -1   5  11    7.49    0.56 
 -11   6  11    1.68    0.83 
 -10   6  11    0.78    0.62 
  -9   6  11    2.14    0.66 
  -8   6  11    0.62    0.60 
  -7   6  11    5.65    0.77 
  -6   6  11    0.13    0.51 
  -5   6  11   -0.13    0.47 
  -4   6  11    0.25    0.47 
  -3   6  11    3.77    0.65 
  -2   6  11   29.02    1.10 
  -1   6  11    2.66    0.44 
  -9   7  11    0.53    0.71 
  -8   7  11    3.88    0.76 
  -7   7  11    0.33    0.66 
  -6   7  11    1.16    0.59 
  -5   7  11    1.50    0.62 
  -4   7  11    1.10    0.53 
  -3   7  11   -0.14    0.52 
  -2   7  11   -0.11    0.42 
  -1   7  11    8.71    0.77 
  -8   8  11    0.17    0.65 
  -7   8  11   -0.22    0.67 
  -6   8  11    0.30    0.52 
  -5   8  11    0.73    0.58 
  -4   8  11    0.37    0.49 
  -3   8  11    0.92    0.50 
  -2   8  11   -0.23    0.37 
  -1   8  11    0.50    0.39 
   0   8  11    0.13    0.20 
  -5   9  11    0.12    0.54 
  -4   9  11    0.76    0.50 
  -3   9  11   -0.12    0.37 
  -2   9  11   -0.25    0.27 
  -1   9  11    1.93    0.33 
   0   9  11    0.20    0.16 
 -14  -2  12    0.85    1.37 
 -13  -2  12    0.77    1.22 
 -12  -2  12    0.68    1.04 
 -11  -2  12    0.55    0.93 
 -10  -2  12    1.52    0.84 
  -9  -2  12    7.09    0.94 
  -8  -2  12    0.71    0.70 
  -7  -2  12   10.41    0.84 
  -6  -2  12    1.91    0.59 
  -5  -2  12  119.02    1.88 
  -4  -2  12    3.20    0.45 
  -3  -2  12   66.02    1.12 
 -14  -1  12   -0.16    0.95 
 -13  -1  12    0.60    1.04 
 -12  -1  12    0.55    0.91 
 -11  -1  12    0.76    0.83 
 -10  -1  12    1.97    0.81 
  -9  -1  12    1.44    0.84 
  -8  -1  12   19.71    1.15 
  -7  -1  12    0.30    0.50 
  -6  -1  12    0.00    0.51 
  -5  -1  12   14.94    0.80 
  -4  -1  12    7.96    0.61 
  -3  -1  12   15.21    0.62 
  -2  -1  12  103.94    1.28 
  -1  -1  12    1.06    0.35 
 -14   0  12   -0.10    0.95 
 -13   0  12    0.43    0.79 
 -12   0  12    4.08    0.87 
 -11   0  12   -0.06    0.66 
 -10   0  12    8.18    0.93 
  -9   0  12   -0.23    0.59 
  -8   0  12    7.11    0.82 
  -7   0  12    0.08    0.47 
  -6   0  12    1.16    0.51 
  -5   0  12    0.40    0.35 
  -4   0  12    1.33    0.48 
  -2   0  12  531.80    3.87 
  -1   0  12    0.30    0.22 
   0   0  12   35.96    0.50 
 -14   1  12    0.31    0.81 
 -13   1  12   -0.25    0.69 
 -12   1  12    0.75    0.64 
 -11   1  12   -0.11    0.55 
 -10   1  12    2.08    0.61 
  -9   1  12    0.12    0.48 
  -8   1  12   15.60    0.99 
  -7   1  12    0.08    0.51 
  -6   1  12   -0.45    0.46 
  -5   1  12    9.00    0.58 
  -4   1  12    3.67    0.45 
  -3   1  12    5.54    0.38 
  -2   1  12   53.61    0.91 
  -1   1  12    0.30    0.13 
 -13   2  12    0.22    0.60 
 -12   2  12    0.53    0.54 
 -11   2  12    0.57    0.52 
 -10   2  12    1.49    0.57 
  -9   2  12    4.32    0.60 
  -8   2  12    0.29    0.55 
  -7   2  12    9.84    0.82 
  -6   2  12    0.94    0.46 
  -5   2  12   84.83    1.58 
  -4   2  12    2.39    0.38 
  -3   2  12   32.60    0.76 
  -2   2  12    3.05    0.26 
  -1   2  12   13.18    0.48 
 -13   3  12    0.52    0.57 
 -12   3  12    1.13    0.52 
 -11   3  12    0.49    0.53 
 -10   3  12    2.60    0.59 
  -9   3  12    0.11    0.50 
  -8   3  12    5.22    0.66 
  -7   3  12   14.03    0.81 
  -6   3  12    0.44    0.45 
  -5   3  12    2.07    0.45 
  -4   3  12   13.89    0.65 
  -3   3  12    9.23    0.47 
  -2   3  12    0.19    0.20 
  -1   3  12    0.91    0.22 
 -12   4  12    3.14    0.70 
 -11   4  12    4.39    0.70 
 -10   4  12    2.00    0.60 
  -9   4  12    1.25    0.56 
  -8   4  12    5.26    0.64 
  -7   4  12    0.41    0.49 
  -6   4  12    0.13    0.44 
  -5   4  12   39.98    1.12 
  -4   4  12    0.23    0.42 
  -3   4  12    0.40    0.31 
  -2   4  12   17.12    0.69 
  -1   4  12    4.47    0.37 
 -11   5  12    0.53    0.63 
 -10   5  12    1.57    0.65 
  -9   5  12    0.11    0.46 
  -8   5  12    6.47    0.75 
  -7   5  12    1.51    0.51 
  -6   5  12    0.99    0.49 
  -5   5  12    1.20    0.50 
  -4   5  12    3.12    0.48 
  -3   5  12    0.82    0.42 
  -2   5  12    0.28    0.35 
  -1   5  12   -0.17    0.28 
 -10   6  12    0.20    0.55 
  -9   6  12    0.77    0.48 
  -8   6  12    1.22    0.61 
  -7   6  12   -0.04    0.52 
  -6   6  12    4.68    0.64 
  -5   6  12    1.22    0.47 
  -4   6  12   -0.17    0.32 
  -3   6  12    5.47    0.63 
  -2   6  12    4.84    0.56 
  -1   6  12    6.27    0.51 
  -9   7  12    0.04    0.66 
  -8   7  12   -0.04    0.53 
  -7   7  12    1.73    0.69 
  -6   7  12   -0.28    0.47 
  -5   7  12   -0.22    0.48 
  -4   7  12    2.85    0.57 
  -3   7  12    0.94    0.39 
  -2   7  12    1.81    0.48 
  -1   7  12    2.37    0.45 
  -7   8  12    0.17    0.75 
  -6   8  12   -0.08    0.52 
  -5   8  12    2.55    0.66 
  -4   8  12    0.25    0.45 
  -3   8  12    0.59    0.41 
  -2   8  12    0.22    0.35 
  -1   8  12    0.22    0.33 
   0   8  12    0.05    0.16 
  -4   9  12    0.04    0.40 
  -3   9  12   -0.32    0.32 
  -2   9  12    0.36    0.28 
  -1   9  12    0.32    0.23 
   0   9  12    0.27    0.13 
   1   9  12   -0.01    0.00 
 -11  -2  13    1.46    1.01 
 -10  -2  13    0.53    0.82 
  -9  -2  13   10.77    1.05 
  -8  -2  13    1.81    0.63 
  -7  -2  13   69.65    1.85 
 -14  -1  13   -0.39    0.98 
 -13  -1  13    1.08    1.07 
 -12  -1  13    0.53    0.94 
 -11  -1  13    0.29    0.84 
 -10  -1  13    2.79    0.90 
  -9  -1  13    3.60    0.85 
  -8  -1  13   11.17    0.99 
  -7  -1  13    2.26    0.45 
  -6  -1  13    6.13    0.71 
  -5  -1  13    4.15    0.56 
  -4  -1  13    0.87    0.47 
  -3  -1  13   45.69    0.99 
  -2  -1  13    9.91    0.50 
 -14   0  13    0.54    1.05 
 -13   0  13    0.11    0.80 
 -12   0  13    0.32    0.76 
 -11   0  13    1.22    0.71 
 -10   0  13    0.05    0.61 
  -9   0  13    2.64    0.68 
  -8   0  13   -0.14    0.61 
  -7   0  13   74.01    1.78 
  -6   0  13    0.37    0.42 
  -5   0  13   38.80    1.11 
  -4   0  13    0.15    0.47 
  -3   0  13    1.38    0.39 
  -1   0  13  164.04    1.50 
   0   0  13   -0.11    0.07 
 -14   1  13   -0.27    0.84 
 -13   1  13    0.28    0.70 
 -12   1  13    0.63    0.63 
 -11   1  13   -0.06    0.55 
 -10   1  13    1.78    0.57 
  -9   1  13    2.34    0.57 
  -8   1  13    7.74    0.81 
  -7   1  13    9.62    0.76 
  -6   1  13    4.10    0.59 
  -5   1  13    2.32    0.45 
  -4   1  13    0.09    0.20 
  -3   1  13   27.87    0.78 
  -2   1  13    4.17    0.29 
  -1   1  13    4.64    0.20 
 -13   2  13    0.49    0.62 
 -12   2  13    1.99    0.63 
 -11   2  13    0.24    0.52 
 -10   2  13   -0.31    0.52 
  -9   2  13    6.96    0.67 
  -8   2  13    5.93    0.75 
  -7   2  13   47.94    1.41 
  -6   2  13   11.50    0.74 
  -5   2  13    0.44    0.41 
  -4   2  13   23.07    0.75 
  -3   2  13    0.16    0.21 
  -2   2  13   29.16    0.58 
  -1   2  13    1.87    0.17 
 -13   3  13    0.53    0.59 
 -12   3  13    0.96    0.48 
 -11   3  13   -0.14    0.46 
 -10   3  13    4.23    0.63 
  -9   3  13   -0.04    0.48 
  -8   3  13    0.56    0.48 
  -7   3  13    1.52    0.50 
  -6   3  13   44.43    1.21 
  -5   3  13    2.80    0.44 
  -4   3  13    0.42    0.30 
  -3   3  13    0.55    0.22 
  -2   3  13    2.34    0.25 
  -1   3  13    1.70    0.25 
 -12   4  13    0.93    0.61 
 -11   4  13    0.41    0.52 
 -10   4  13    1.22    0.56 
  -9   4  13    0.94    0.52 
  -8   4  13    0.35    0.42 
  -7   4  13    0.40    0.45 
  -6   4  13    2.18    0.46 
  -5   4  13    1.73    0.41 
  -4   4  13    5.22    0.48 
  -3   4  13    1.73    0.32 
  -2   4  13    0.58    0.28 
  -1   4  13    2.43    0.28 
 -11   5  13    0.66    0.61 
 -10   5  13    0.04    0.56 
  -9   5  13    0.30    0.45 
  -8   5  13    0.57    0.49 
  -7   5  13    4.31    0.57 
  -6   5  13    0.20    0.41 
  -5   5  13    1.02    0.43 
  -4   5  13    2.58    0.44 
  -3   5  13    3.49    0.43 
  -2   5  13    1.36    0.35 
  -1   5  13   -0.20    0.24 
 -10   6  13    0.09    0.49 
  -9   6  13    1.56    0.54 
  -8   6  13    0.92    0.57 
  -7   6  13   -0.19    0.47 
  -6   6  13    1.14    0.47 
  -5   6  13    0.41    0.43 
  -4   6  13   -0.31    0.37 
  -3   6  13   12.57    0.74 
  -2   6  13    1.78    0.41 
  -1   6  13    3.80    0.42 
  -9   7  13    0.84    0.66 
  -8   7  13    0.60    0.52 
  -7   7  13    1.05    0.62 
  -6   7  13   -0.23    0.43 
  -5   7  13    0.93    0.47 
  -4   7  13    0.39    0.40 
  -3   7  13    2.93    0.52 
  -2   7  13   -0.15    0.34 
  -1   7  13    0.36    0.36 
   0   7  13    2.84    0.27 
  -7   8  13   -0.08    0.72 
  -6   8  13    0.03    0.53 
  -5   8  13    0.21    0.49 
  -4   8  13    0.09    0.42 
  -3   8  13   -0.14    0.37 
  -2   8  13    0.42    0.31 
  -1   8  13    1.35    0.32 
   0   8  13    0.38    0.12 
  -4   9  13   -0.13    0.49 
  -3   9  13    0.06    0.39 
  -2   9  13    0.05    0.28 
  -1   9  13    0.22    0.23 
   0   9  13    0.05    0.12 
   1   9  13   -0.16    0.00 
 -13  -1  14    0.59    1.02 
 -12  -1  14    0.33    0.96 
 -11  -1  14   -0.46    0.82 
 -10  -1  14    0.12    0.82 
  -9  -1  14    0.78    0.77 
  -8  -1  14    0.36    0.72 
  -7  -1  14    0.81    0.65 
  -6  -1  14    9.31    0.84 
  -5  -1  14    0.55    0.47 
 -14   0  14    7.08    1.29 
 -13   0  14   -0.08    0.81 
 -12   0  14    1.21    0.80 
 -11   0  14    0.07    0.66 
 -10   0  14    0.94    0.67 
  -9   0  14   -0.20    0.65 
  -8   0  14    3.49    0.77 
  -7   0  14   -0.22    0.49 
  -6   0  14    0.19    0.44 
  -5   0  14    0.15    0.44 
  -4   0  14   58.57    1.38 
  -3   0  14   -0.22    0.35 
  -2   0  14    4.09    0.36 
  -1   0  14    0.38    0.19 
   0   0  14   10.31    0.20 
 -13   1  14    0.06    0.75 
 -12   1  14    0.12    0.61 
 -11   1  14    0.48    0.59 
 -10   1  14   -0.04    0.53 
  -9   1  14    0.29    0.48 
  -8   1  14   -0.62    0.61 
  -7   1  14    1.32    0.69 
  -6   1  14    5.33    0.67 
  -5   1  14    0.17    0.43 
  -4   1  14   10.42    0.58 
  -3   1  14   26.26    0.73 
  -2   1  14   11.31    0.39 
  -1   1  14   30.09    0.46 
   0   1  14    0.00    0.02 
 -13   2  14    0.54    0.63 
 -12   2  14    0.10    0.54 
 -11   2  14    1.06    0.49 
 -10   2  14   -0.29    0.46 
  -9   2  14    0.14    0.43 
  -8   2  14   31.48    1.25 
  -7   2  14    5.01    0.65 
  -6   2  14   16.41    0.81 
  -5   2  14    2.83    0.43 
  -4   2  14   12.74    0.60 
  -3   2  14    0.72    0.20 
  -2   2  14    0.15    0.12 
 -13   3  14    0.40    0.59 
 -12   3  14    0.44    0.46 
 -11   3  14    0.39    0.50 
 -10   3  14    0.50    0.47 
  -9   3  14    0.59    0.48 
  -8   3  14    0.46    0.44 
  -7   3  14    1.18    0.47 
  -6   3  14    0.80    0.40 
  -5   3  14   14.03    0.67 
  -4   3  14    0.48    0.29 
  -3   3  14    3.69    0.30 
  -2   3  14    0.80    0.17 
  -1   3  14    3.09    0.25 
 -12   4  14   -0.13    0.55 
 -11   4  14    3.21    0.60 
 -10   4  14    0.70    0.52 
  -9   4  14    4.87    0.63 
  -8   4  14    1.35    0.42 
  -7   4  14    2.26    0.48 
  -6   4  14    0.64    0.37 
  -5   4  14    0.14    0.30 
  -4   4  14    9.71    0.56 
  -3   4  14   28.67    0.73 
  -2   4  14    5.57    0.35 
  -1   4  14   21.91    0.62 
 -11   5  14    0.77    0.60 
 -10   5  14    2.76    0.62 
  -9   5  14    0.32    0.43 
  -8   5  14    0.07    0.44 
  -7   5  14    0.44    0.39 
  -6   5  14    5.85    0.59 
  -5   5  14   -0.16    0.35 
  -4   5  14    0.09    0.28 
  -3   5  14    2.08    0.32 
  -2   5  14    5.14    0.39 
  -1   5  14    0.44    0.26 
 -10   6  14    0.37    0.49 
  -9   6  14    0.30    0.45 
  -8   6  14    2.46    0.58 
  -7   6  14    0.24    0.43 
  -6   6  14   -0.10    0.34 
  -5   6  14    1.37    0.42 
  -4   6  14    0.51    0.28 
  -3   6  14    0.16    0.30 
  -2   6  14    7.36    0.49 
  -1   6  14    3.72    0.42 
  -8   7  14    0.20    0.52 
  -7   7  14    0.11    0.52 
  -6   7  14   -0.22    0.40 
  -5   7  14   -0.23    0.39 
  -4   7  14    0.83    0.40 
  -3   7  14    0.87    0.35 
  -2   7  14    2.18    0.31 
  -1   7  14    5.33    0.47 
   0   7  14    0.19    0.13 
  -6   8  14   -0.28    0.50 
  -5   8  14   -0.14    0.42 
  -4   8  14    0.09    0.37 
  -3   8  14    0.84    0.34 
  -2   8  14   -0.06    0.24 
  -1   8  14    0.49    0.23 
   0   8  14   -0.01    0.08 
  -3   9  14    0.52    0.36 
  -2   9  14   -0.01    0.22 
  -1   9  14    0.14    0.19 
   0   9  14    0.12    0.09 
   1   9  14   -0.15    0.00 
 -13   0  15   -0.01    0.85 
 -12   0  15   -0.09    0.75 
 -11   0  15    0.10    0.75 
 -10   0  15   -0.01    0.64 
  -9   0  15   -0.44    0.64 
  -8   0  15   -0.56    0.66 
  -7   0  15    0.69    0.37 
  -6   0  15    1.29    0.64 
  -5   0  15   37.33    1.16 
  -4   0  15   -0.16    0.46 
  -3   0  15    9.97    0.56 
 -13   1  15    0.34    0.78 
 -12   1  15    0.19    0.62 
 -11   1  15    0.13    0.57 
 -10   1  15    0.23    0.54 
  -9   1  15    2.46    0.56 
  -8   1  15    8.32    0.87 
  -7   1  15    3.11    0.76 
  -6   1  15   29.29    1.10 
  -4   1  15   12.08    0.65 
  -3   1  15    5.44    0.39 
  -2   1  15    4.95    0.27 
  -1   1  15    0.33    0.09 
   0   1  15   -0.23    0.00 
 -13   2  15    0.34    0.64 
 -12   2  15    0.43    0.57 
 -11   2  15    0.14    0.46 
 -10   2  15    0.37    0.49 
  -9   2  15    0.44    0.43 
  -8   2  15    1.95    0.57 
  -7   2  15   23.45    1.01 
  -6   2  15    0.00    0.41 
  -5   2  15    0.16    0.33 
  -4   2  15   64.99    1.17 
  -3   2  15    5.45    0.32 
  -2   2  15    0.17    0.07 
  -1   2  15    0.23    0.05 
 -12   3  15    2.69    0.54 
 -11   3  15    0.49    0.47 
 -10   3  15    0.20    0.44 
  -9   3  15    0.71    0.47 
  -8   3  15    0.51    0.42 
  -7   3  15    1.21    0.40 
  -6   3  15   12.27    0.65 
  -5   3  15    8.81    0.53 
  -4   3  15   23.71    0.66 
  -3   3  15    0.93    0.20 
  -2   3  15    3.22    0.20 
  -1   3  15    0.47    0.10 
 -12   4  15    0.19    0.55 
 -11   4  15    0.37    0.46 
 -10   4  15    0.00    0.47 
  -9   4  15   -0.02    0.41 
  -8   4  15    1.63    0.41 
  -7   4  15    5.50    0.53 
  -6   4  15    0.32    0.32 
  -5   4  15    2.45    0.33 
  -4   4  15    0.11    0.24 
  -3   4  15    2.74    0.26 
  -2   4  15    2.71    0.20 
  -1   4  15    2.62    0.23 
 -11   5  15    0.29    0.55 
 -10   5  15    0.51    0.49 
  -9   5  15    2.50    0.47 
  -8   5  15   -0.04    0.39 
  -7   5  15    0.89    0.34 
  -6   5  15    0.41    0.36 
  -5   5  15    0.50    0.32 
  -4   5  15    1.11    0.30 
  -3   5  15    0.93    0.23 
  -2   5  15    3.21    0.28 
  -1   5  15    0.09    0.20 
  -9   6  15    0.10    0.43 
  -8   6  15    0.06    0.43 
  -7   6  15    1.62    0.47 
  -6   6  15   -0.04    0.33 
  -5   6  15    0.10    0.34 
  -4   6  15    0.14    0.29 
  -3   6  15    2.26    0.33 
  -2   6  15    2.45    0.29 
  -1   6  15    0.31    0.24 
   0   6  15    0.86    0.12 
  -8   7  15   -0.03    0.49 
  -7   7  15    0.57    0.47 
  -6   7  15   -0.09    0.38 
  -5   7  15    0.44    0.34 
  -4   7  15    0.06    0.29 
  -3   7  15    1.48    0.32 
  -2   7  15    0.73    0.25 
  -1   7  15    4.94    0.37 
   0   7  15    0.01    0.09 
  -6   8  15   -0.03    0.46 
  -5   8  15   -0.12    0.41 
  -4   8  15    0.87    0.38 
  -3   8  15    0.04    0.25 
  -2   8  15    0.02    0.20 
  -1   8  15    0.01    0.16 
   0   8  15    0.17    0.08 
  -2   9  15    0.18    0.24 
  -1   9  15    0.12    0.14 
   0   9  15    0.02    0.05 
   1   9  15   -0.34    0.00 
 -13   1  16   -0.15    0.72 
 -12   1  16    0.33    0.63 
 -11   1  16    0.42    0.56 
 -10   1  16    0.38    0.54 
  -9   1  16    0.77    0.49 
  -8   1  16    4.82    0.76 
  -7   1  16   12.29    0.85 
  -6   1  16    1.82    0.44 
  -5   1  16    8.93    0.60 
  -4   1  16   14.76    0.66 
  -3   1  16    1.12    0.29 
  -2   1  16    0.47    0.17 
  -1   1  16    1.24    0.09 
   0   1  16   -0.97    0.00 
 -13   2  16    0.18    0.63 
 -12   2  16    0.37    0.54 
 -11   2  16    0.58    0.46 
 -10   2  16    0.32    0.52 
  -9   2  16    1.20    0.44 
  -8   2  16    0.57    0.49 
  -7   2  16    6.48    0.67 
  -6   2  16    1.39    0.43 
  -5   2  16    2.71    0.43 
  -4   2  16    1.02    0.27 
  -2   2  16    0.50    0.09 
  -1   2  16    0.02    0.02 
   0   2  16   -0.02    0.00 
 -12   3  16    0.15    0.43 
 -11   3  16    0.58    0.46 
 -10   3  16    1.29    0.48 
  -9   3  16    0.41    0.42 
  -8   3  16    0.26    0.39 
  -7   3  16    0.31    0.34 
  -6   3  16   10.12    0.61 
  -5   3  16    1.32    0.31 
  -4   3  16    0.96    0.22 
  -3   3  16    3.32    0.22 
  -2   3  16   -0.02    0.07 
  -1   3  16    0.35    0.04 
 -11   4  16    0.05    0.44 
 -10   4  16    1.87    0.50 
  -9   4  16    0.06    0.38 
  -8   4  16    0.61    0.35 
  -7   4  16   -0.05    0.33 
  -6   4  16    0.27    0.28 
  -5   4  16    3.60    0.32 
  -4   4  16    1.23    0.22 
  -3   4  16    3.36    0.24 
  -2   4  16    0.17    0.09 
  -1   4  16    1.01    0.09 
 -10   5  16    0.35    0.47 
  -9   5  16    0.26    0.36 
  -8   5  16    2.15    0.42 
  -7   5  16    0.53    0.31 
  -6   5  16    0.08    0.29 
  -5   5  16    0.12    0.24 
  -4   5  16    1.16    0.27 
  -3   5  16    3.92    0.27 
  -2   5  16    0.90    0.15 
  -1   5  16    0.69    0.14 
   0   5  16    0.14    0.03 
  -9   6  16    0.48    0.44 
  -8   6  16    0.23    0.41 
  -7   6  16    0.13    0.35 
  -6   6  16    0.87    0.30 
  -5   6  16   -0.21    0.25 
  -4   6  16    0.08    0.24 
  -3   6  16    0.89    0.21 
  -2   6  16    1.31    0.20 
  -1   6  16    0.17    0.15 
   0   6  16    0.38    0.06 
  -8   7  16   -0.17    0.45 
  -7   7  16    0.23    0.44 
  -6   7  16   -0.04    0.32 
  -5   7  16    0.10    0.31 
  -4   7  16   -0.09    0.25 
  -3   7  16    0.94    0.24 
  -2   7  16    0.17    0.17 
  -1   7  16    0.86    0.16 
   0   7  16    0.07    0.05 
  -5   8  16   -0.07    0.36 
  -4   8  16   -0.02    0.27 
  -3   8  16    0.10    0.23 
  -2   8  16    0.25    0.17 
  -1   8  16   -0.01    0.12 
   0   8  16    0.07    0.05 
   1   8  16    0.01    0.00 
  -9   1  17    0.29    0.47 
  -8   1  17    0.62    0.57 
  -7   1  17    7.78    0.75 
  -6   1  17    4.48    0.58 
 -12   2  17   -0.02    0.52 
 -11   2  17    1.93    0.58 
 -10   2  17    0.40    0.47 
  -9   2  17    0.87    0.46 
  -8   2  17    0.49    0.54 
  -7   2  17    0.84    0.46 
  -6   2  17   16.25    0.72 
  -5   2  17    0.02    0.34 
  -4   2  17    0.17    0.14 
  -3   2  17    0.31    0.14 
  -2   2  17    0.15    0.06 
  -1   2  17    0.00    0.00 
   0   2  17   -0.05    0.00 
 -12   3  17    0.23    0.49 
 -11   3  17    0.59    0.51 
 -10   3  17    1.62    0.46 
  -9   3  17    0.94    0.46 
  -8   3  17    0.19    0.34 
  -7   3  17    0.56    0.33 
  -6   3  17    3.55    0.39 
  -5   3  17    0.34    0.23 
  -4   3  17    4.68    0.26 
  -3   3  17    0.72    0.12 
  -2   3  17    1.49    0.07 
  -1   3  17   -0.47    0.00 
   0   3  17   -7.54    0.00 
 -11   4  17    0.07    0.43 
 -10   4  17    0.75    0.46 
  -9   4  17    0.92    0.38 
  -8   4  17    0.04    0.28 
  -7   4  17    0.33    0.30 
  -6   4  17    0.86    0.25 
  -5   4  17    0.85    0.19 
  -4   4  17    4.17    0.24 
  -3   4  17    1.44    0.13 
  -2   4  17    1.14    0.09 
  -1   4  17    0.00    0.00 
   0   4  17   -0.71    0.00 
 -10   5  17    0.48    0.45 
  -9   5  17   -0.18    0.30 
  -8   5  17    0.30    0.30 
  -7   5  17    0.39    0.25 
  -6   5  17    0.04    0.25 
  -5   5  17    0.03    0.18 
  -4   5  17    0.58    0.19 
  -3   5  17    1.16    0.15 
  -2   5  17    0.59    0.09 
  -1   5  17    0.04    0.04 
   0   5  17   -0.10    0.00 
  -9   6  17    0.28    0.38 
  -8   6  17   -0.05    0.35 
  -7   6  17    0.02    0.28 
  -6   6  17    0.01    0.24 
  -5   6  17   -0.22    0.22 
  -4   6  17    0.39    0.21 
  -3   6  17    0.35    0.15 
  -2   6  17    0.23    0.10 
  -1   6  17    0.64    0.08 
   0   6  17    0.00    0.00 
  -7   7  17    0.16    0.36 
  -6   7  17    0.10    0.29 
  -5   7  17    0.11    0.27 
  -4   7  17    0.21    0.23 
  -3   7  17    0.08    0.16 
  -2   7  17    0.12    0.12 
  -1   7  17    0.40    0.09 
   0   7  17    0.01    0.01 
  -5   8  17   -0.06    0.31 
  -4   8  17    0.06    0.26 
  -3   8  17    0.87    0.24 
  -2   8  17    0.33    0.15 
  -1   8  17    0.07    0.08 
   0   8  17   -0.01    0.00 
   1   8  17   -0.07    0.00 
 -11   2  18    0.28    0.48 
 -10   2  18    0.08    0.45 
  -9   2  18    0.86    0.42 
  -8   2  18    1.57    0.52 
  -7   2  18    0.49    0.44 
  -6   2  18    0.44    0.36 
  -5   2  18    1.33    0.33 
  -4   2  18    2.89    0.25 
  -3   2  18    1.60    0.15 
  -2   2  18    0.34    0.04 
 -12   3  18    0.09    0.43 
 -11   3  18    1.25    0.48 
  -9   3  18    0.35    0.38 
  -8   3  18    0.64    0.35 
  -7   3  18    0.56    0.29 
  -6   3  18    1.14    0.29 
  -5   3  18    7.21    0.35 
  -4   3  18    0.00    0.11 
  -3   3  18    2.48    0.13 
  -2   3  18    0.00    0.00 
  -1   3  18    0.02    0.00 
   0   3  18   -0.01    0.00 
 -11   4  18    0.27    0.39 
 -10   4  18    0.01    0.36 
  -9   4  18    0.07    0.32 
  -8   4  18    0.20    0.26 
  -7   4  18   -0.09    0.23 
  -6   4  18    0.53    0.19 
  -5   4  18    0.36    0.14 
  -4   4  18    0.17    0.10 
  -3   4  18    0.09    0.04 
  -2   4  18    0.00    0.00 
  -1   4  18   -1.14    0.00 
   0   4  18   -0.01    0.00 
 -10   5  18    0.27    0.39 
  -9   5  18    0.12    0.26 
  -8   5  18    0.18    0.28 
  -7   5  18   -0.07    0.20 
  -6   5  18    0.44    0.21 
  -5   5  18    0.11    0.13 
  -4   5  18    0.43    0.12 
  -3   5  18    0.10    0.06 
  -2   5  18    0.02    0.03 
  -1   5  18   -0.11    0.00 
   0   5  18   -0.11    0.00 
  -8   6  18    0.61    0.33 
  -7   6  18   -0.18    0.22 
  -6   6  18   -0.09    0.21 
  -5   6  18   -0.09    0.17 
  -4   6  18    0.72    0.17 
  -3   6  18    0.13    0.10 
  -2   6  18    0.30    0.06 
  -1   6  18    0.00    0.01 
   0   6  18    0.00    0.00 
  -7   7  18   -0.17    0.32 
  -6   7  18    0.01    0.24 
  -5   7  18    0.03    0.24 
  -4   7  18    0.33    0.19 
  -3   7  18   -0.03    0.11 
  -2   7  18   -0.01    0.08 
  -1   7  18    0.20    0.04 
   0   7  18   -0.01    0.00 
   1   7  18    0.00    0.00 
  -4   8  18   -0.04    0.23 
  -3   8  18    0.15    0.17 
  -2   8  18    0.03    0.11 
  -1   8  18    0.06    0.04 
   0   8  18   -0.04    0.00 
   1   8  18   -0.06    0.00 
 -11   3  19    0.24    0.45 
 -10   3  19   -0.08    0.32 
  -9   3  19    0.70    0.40 
  -8   3  19    0.17    0.33 
  -7   3  19    0.00    0.24 
  -6   3  19    0.34    0.22 
  -5   3  19    0.29    0.15 
  -4   3  19    0.30    0.09 
  -3   3  19    0.03    0.02 
  -2   3  19   -1.37    0.00 
  -1   3  19   -0.15    0.00 
   0   3  19   -0.47    0.00 
 -11   4  19    0.20    0.34 
 -10   4  19    0.40    0.36 
  -9   4  19   -0.05    0.27 
  -8   4  19    0.00    0.21 
  -7   4  19    0.25    0.19 
  -6   4  19    0.27    0.13 
  -5   4  19    0.14    0.09 
  -4   4  19    0.40    0.06 
  -3   4  19    0.00    0.00 
  -2   4  19    0.02    0.00 
  -1   4  19   -0.03    0.00 
   0   4  19   -3.38    0.00 
 -10   5  19    0.27    0.34 
  -9   5  19    0.03    0.21 
  -8   5  19    0.03    0.19 
  -7   5  19    0.09    0.16 
  -6   5  19    0.05    0.14 
  -5   5  19    0.45    0.10 
  -4   5  19    0.10    0.05 
  -3   5  19    0.04    0.01 
  -2   5  19   -0.01    0.00 
  -1   5  19   -0.01    0.00 
   0   5  19   -0.25    0.00 
  -8   6  19    0.06    0.25 
  -7   6  19    0.32    0.20 
  -6   6  19   -0.07    0.15 
  -5   6  19    0.77    0.14 
  -4   6  19    0.12    0.09 
  -3   6  19    0.25    0.05 
  -2   6  19    0.00    0.00 
  -1   6  19   -0.01    0.00 
   0   6  19   -0.07    0.00 
  -6   7  19   -0.11    0.19 
  -5   7  19    0.04    0.16 
  -4   7  19    0.07    0.13 
  -3   7  19    0.01    0.07 
  -2   7  19    0.16    0.04 
  -1   7  19   -0.01    0.00 
   0   7  19   -0.06    0.00 
   1   7  19    0.02    0.00 
  -3   8  19    0.02    0.11 
  -2   8  19    0.05    0.06 
  -1   8  19    0.00    0.00 
   0   8  19   -0.03    0.00 
   1   8  19    0.05    0.00 
 -10   4  20    0.00    0.30 
  -9   4  20   -0.01    0.23 
  -8   4  20    0.15    0.16 
  -7   4  20    0.11    0.14 
  -6   4  20    0.04    0.09 
  -5   4  20    0.02    0.06 
  -4   4  20    0.00    0.00 
  -3   4  20   -0.09    0.00 
  -2   4  20   -0.05    0.00 
  -1   4  20   -1.06    0.00 
   0   4  20   -0.84    0.00 
  -9   5  20   -0.05    0.18 
  -8   5  20    0.14    0.14 
  -7   5  20    0.13    0.12 
  -6   5  20    0.25    0.08 
  -5   5  20    0.02    0.03 
  -4   5  20   -0.02    0.00 
  -3   5  20   -0.01    0.00 
  -2   5  20   -0.09    0.00 
  -1   5  20   -0.02    0.00 
   0   5  20   -0.31    0.00 
  -8   6  20    0.02    0.19 
  -7   6  20    0.05    0.12 
  -6   6  20    0.14    0.10 
  -5   6  20    0.04    0.05 
  -4   6  20    0.01    0.02 
  -3   6  20   -0.03    0.00 
  -2   6  20   -0.01    0.00 
  -1   6  20   -0.05    0.00 
   0   6  20   -0.22    0.00 
   1   6  20    0.06    0.00 
  -5   7  20    0.04    0.11 
  -4   7  20    0.16    0.07 
  -3   7  20    0.00    0.02 
  -2   7  20   -0.08    0.00 
  -1   7  20    0.01    0.00 
   0   7  20   -0.01    0.00 
   1   7  20   -0.01    0.00 
  -1   8  20    0.04    0.00 
   0   8  20   -0.01    0.00 
   1   8  20   -0.16    0.00 
  -9   5  21    0.31    0.15 
  -8   5  21    0.11    0.10 
  -7   5  21    0.12    0.07 
  -6   5  21    0.05    0.03 
  -5   5  21   -0.04    0.00 
  -4   5  21   -0.03    0.00 
  -3   5  21   -0.10    0.00 
  -2   5  21   -0.04    0.00 
  -1   5  21   -0.26    0.00 
   0   5  21   -0.77    0.00 
   1   5  21   -0.09    0.00 
  -7   6  21    0.00    0.06 
  -6   6  21    0.00    0.03 
  -5   6  21    0.00    0.00 
  -4   6  21    0.01    0.00 
  -3   6  21   -0.15    0.00 
  -2   6  21   -0.02    0.00 
  -1   6  21   -0.07    0.00 
   0   6  21   -0.25    0.00 
   1   6  21   -0.03    0.00 
  -5   7  21    0.02    0.03 
  -4   7  21   -0.01    0.00 
  -3   7  21   -0.08    0.00 
  -2   7  21   -0.05    0.00 
  -1   7  21   -0.04    0.00 
   0   7  21   -0.02    0.00 
   1   7  21    0.07    0.00 
  -6   6  22   -0.01    0.00 
  -5   6  22    0.02    0.00 
  -4   6  22   -0.02    0.00 
  -3   6  22   -0.14    0.00 
  -2   6  22   -0.49    0.00 
   0   6  22   -0.55    0.00 
   1   6  22   -0.07    0.00 
  -4   7  22   -0.02    0.00 
  -3   7  22   -0.14    0.00 
  -2   7  22   -0.08    0.00 
  -1   7  22   -0.07    0.00 
   0   7  22   -0.21    0.00 
   1   7  22   -0.03    0.00 
   2   7  22   -0.29    0.00 
  -3   7  23   -0.40    0.00 
  -2   7  23    0.07    0.00 
  -1   7  23    0.14    0.00 
   0   7  23    0.11    0.00 
   1   7  23   -0.06    0.00 
   2   7  23   -0.06    0.00 
   0   0   0    0.00    0.00 
;
_shelx_hkl_checksum              91824
#END Tags that were not found in dictionaries
loop_
_space_group_symop_operation_xyz
'x, y, z'
'-x+1/2, y+1/2, -z+1/2'
'-x, -y, -z'
'x-1/2, -y-1/2, z-1/2'
loop_
_atom_site_label
_atom_site_type_symbol
_atom_site_fract_x
_atom_site_fract_y
_atom_site_fract_z
_atom_site_U_iso_or_equiv
_atom_site_adp_type
_atom_site_occupancy
_atom_site_site_symmetry_order
_atom_site_calc_flag
_atom_site_refinement_flags_posn
_atom_site_refinement_flags_adp
S1 S -0.10934(7) 0.15420(11) 0.14716(4) 0.0753(4) Uani 1 1 d . .
N1 N -0.0569(2) 0.3165(3) 0.11999(11) 0.0672(7) Uani 1 1 d . .
O1 O -0.19887(18) 0.1970(3) 0.18219(11) 0.0899(8) Uani 1 1 d . .
O2 O -0.1284(2) 0.0534(3) 0.10010(11) 0.0955(8) Uani 1 1 d . .
O3 O 0.3591(2) 0.5445(3) 0.07644(12) 0.0977(9) Uani 1 1 d . .
C1 C -0.0481(3) 0.4643(4) 0.14886(14) 0.0682(8) Uani 1 1 d . .
C2 C 0.0252(3) 0.5506(4) 0.12068(13) 0.0673(8) Uani 1 1 d . .
H2 H 0.0444 0.6529 0.1300 0.081 Uiso 1 1 calc R U
C3 C 0.0701(2) 0.4650(4) 0.07457(12) 0.0611(8) Uani 1 1 d . .
C4 C 0.1477(2) 0.5026(4) 0.03333(13) 0.0642(8) Uani 1 1 d . .
C5 C 0.1743(3) 0.3913(4) -0.00750(13) 0.0689(9) Uani 1 1 d . .
C6 C 0.1206(3) 0.2455(5) -0.00568(14) 0.0749(9) Uani 1 1 d . .
H6 H 0.1386 0.1711 -0.0329 0.090 Uiso 1 1 calc R U
C7 C 0.0432(3) 0.2075(4) 0.03410(14) 0.0710(9) Uani 1 1 d . .
H7 H 0.0083 0.1106 0.0335 0.085 Uiso 1 1 calc R U
C8 C 0.0185(2) 0.3177(4) 0.07520(13) 0.0639(8) Uani 1 1 d . .
C9 C -0.1158(3) 0.5060(5) 0.19763(17) 0.0886(11) Uani 1 1 d . .
H9 H -0.1944 0.4783 0.1938 0.106 Uiso 1 1 calc R U
C10 C -0.0937(6) 0.6529(7) 0.2287(3) 0.143(2) Uani 1 1 d . U
H10A H -0.0304 0.7148 0.2173 0.171 Uiso 1 1 calc R U
H10B H -0.1568 0.7127 0.2416 0.171 Uiso 1 1 calc R U
C11 C -0.0721(6) 0.5025(11) 0.2555(3) 0.168(3) Uani 1 1 d . .
H11A H 0.0047 0.4715 0.2611 0.202 Uiso 1 1 calc R U
H11B H -0.1216 0.4693 0.2854 0.202 Uiso 1 1 calc R U
C12 C 0.2004(2) 0.6607(4) 0.03391(14) 0.0686(9) Uani 1 1 d . .
H12A H 0.1528 0.7322 0.0544 0.082 Uiso 1 1 calc R U
H12B H 0.2053 0.6980 -0.0050 0.082 Uiso 1 1 calc R U
C13 C 0.3146(3) 0.6649(4) 0.06092(13) 0.0658(8) Uani 1 1 d . .
C14 C 0.3722(2) 0.8165(4) 0.06798(13) 0.0635(8) Uani 1 1 d . .
C15 C 0.3237(3) 0.9586(4) 0.05587(15) 0.0744(9) Uani 1 1 d . .
H15 H 0.2508 0.9610 0.0423 0.089 Uiso 1 1 calc R U
C16 C 0.3803(3) 1.0974(5) 0.06338(16) 0.0822(10) Uani 1 1 d . .
H16 H 0.3448 1.1917 0.0557 0.099 Uiso 1 1 calc R U
C17 C 0.4888(3) 1.0976(5) 0.08214(14) 0.0743(9) Uani 1 1 d . .
C18 C 0.5385(3) 0.9548(5) 0.09362(16) 0.0819(10) Uani 1 1 d . .
H18 H 0.6120 0.9521 0.1062 0.098 Uiso 1 1 calc R U
C19 C 0.4811(3) 0.8174(5) 0.08683(15) 0.0779(10) Uani 1 1 d . .
H19 H 0.5163 0.7232 0.0951 0.093 Uiso 1 1 calc R U
C20 C 0.5520(3) 1.2478(5) 0.08951(19) 0.0989(12) Uani 1 1 d . .
H20A H 0.5483 1.2811 0.1285 0.148 Uiso 1 1 calc R U
H20B H 0.5199 1.3266 0.0652 0.148 Uiso 1 1 calc R U
H20C H 0.6280 1.2317 0.0795 0.148 Uiso 1 1 calc R U
C21 C 0.2593(3) 0.4218(6) -0.05173(16) 0.0929(12) Uani 1 1 d . .
H21A H 0.2419 0.5174 -0.0713 0.139 Uiso 1 1 calc R U
H21B H 0.2597 0.3370 -0.0786 0.139 Uiso 1 1 calc R U
H21C H 0.3312 0.4304 -0.0338 0.139 Uiso 1 1 calc R U
C22 C -0.0041(3) 0.0742(4) 0.18988(15) 0.0700(8) Uani 1 1 d . .
C23 C 0.0841(3) -0.0041(4) 0.16566(16) 0.0802(10) Uani 1 1 d . .
H23 H 0.0889 -0.0119 0.1262 0.096 Uiso 1 1 calc R U
C24 C 0.1640(3) -0.0697(5) 0.19991(19) 0.0893(11) Uani 1 1 d . .
H24 H 0.2235 -0.1205 0.1833 0.107 Uiso 1 1 calc R U
C25 C 0.1586(3) -0.0627(5) 0.25847(19) 0.0873(11) Uani 1 1 d . .
C26 C 0.0712(4) 0.0167(5) 0.28196(17) 0.0923(12) Uani 1 1 d . .
H26 H 0.0668 0.0246 0.3214 0.111 Uiso 1 1 calc R U
C27 C -0.0096(3) 0.0846(5) 0.24841(16) 0.0835(10) Uani 1 1 d . .
H27 H -0.0681 0.1375 0.2652 0.100 Uiso 1 1 calc R U
C28 C 0.2450(4) -0.1410(7) 0.2958(2) 0.1243(18) Uani 1 1 d . .
H28A H 0.3040 -0.1791 0.2726 0.187 Uiso 1 1 calc R U
H28B H 0.2118 -0.2267 0.3157 0.187 Uiso 1 1 calc R U
H28C H 0.2740 -0.0669 0.3229 0.187 Uiso 1 1 calc R U
loop_
_atom_site_aniso_label
_atom_site_aniso_U_11
_atom_site_aniso_U_22
_atom_site_aniso_U_33
_atom_site_aniso_U_23
_atom_site_aniso_U_13
_atom_site_aniso_U_12
S1 0.0607(5) 0.0721(6) 0.0931(7) -0.0041(4) -0.0057(4) -0.0105(4)
N1 0.0635(15) 0.0605(17) 0.0775(16) -0.0043(12) -0.0006(13) 0.0004(12)
O1 0.0534(12) 0.101(2) 0.1152(18) 0.0030(15) 0.0131(13) -0.0077(12)
O2 0.0941(17) 0.087(2) 0.1042(18) -0.0178(14) -0.0225(14) -0.0219(14)
O3 0.0836(17) 0.0758(18) 0.133(2) 0.0100(15) -0.0296(15) 0.0124(13)
C1 0.0644(18) 0.062(2) 0.078(2) -0.0108(15) 0.0036(16) 0.0012(15)
C2 0.0635(18) 0.063(2) 0.0752(19) -0.0124(15) 0.0018(16) 0.0038(15)
C3 0.0535(16) 0.0606(19) 0.0690(18) -0.0064(14) -0.0070(14) 0.0078(14)
C4 0.0513(16) 0.065(2) 0.0767(19) -0.0044(15) -0.0059(15) 0.0139(14)
C5 0.0575(17) 0.084(2) 0.0654(18) -0.0056(16) -0.0031(14) 0.0181(17)
C6 0.073(2) 0.076(2) 0.076(2) -0.0184(17) -0.0098(17) 0.0220(19)
C7 0.070(2) 0.064(2) 0.079(2) -0.0135(16) -0.0095(17) 0.0084(16)
C8 0.0554(17) 0.064(2) 0.0720(19) -0.0061(14) -0.0083(15) 0.0104(14)
C9 0.092(3) 0.084(3) 0.091(3) -0.012(2) 0.020(2) -0.004(2)
C10 0.182(5) 0.087(4) 0.162(5) -0.045(3) 0.098(4) -0.030(4)
C11 0.165(6) 0.232(9) 0.107(4) -0.056(5) 0.013(4) 0.026(6)
C12 0.0536(17) 0.074(2) 0.078(2) 0.0006(15) -0.0004(15) 0.0107(15)
C13 0.0609(18) 0.071(2) 0.0657(18) 0.0034(15) 0.0012(15) 0.0129(16)
C14 0.0508(16) 0.075(2) 0.0652(18) -0.0002(15) 0.0030(14) 0.0103(15)
C15 0.0542(17) 0.077(2) 0.092(2) 0.0048(18) -0.0069(16) 0.0094(16)
C16 0.069(2) 0.072(2) 0.105(3) 0.005(2) -0.0036(19) 0.0114(18)
C17 0.0649(19) 0.080(2) 0.078(2) -0.0051(18) 0.0027(16) 0.0026(17)
C18 0.0573(19) 0.094(3) 0.094(2) -0.006(2) -0.0067(17) 0.0084(19)
C19 0.0607(19) 0.081(3) 0.091(2) 0.0020(19) -0.0031(17) 0.0143(17)
C20 0.085(2) 0.090(3) 0.122(3) -0.004(3) -0.001(2) -0.009(2)
C21 0.079(2) 0.107(3) 0.092(3) -0.008(2) 0.005(2) 0.020(2)
C22 0.0665(19) 0.0574(19) 0.086(2) -0.0061(16) -0.0017(16) -0.0085(15)
C23 0.080(2) 0.073(2) 0.088(2) -0.0040(18) 0.0064(19) 0.0047(19)
C24 0.078(2) 0.076(3) 0.114(3) -0.008(2) 0.003(2) 0.010(2)
C25 0.085(2) 0.069(2) 0.108(3) -0.003(2) -0.016(2) 0.0040(19)
C26 0.098(3) 0.091(3) 0.088(3) -0.006(2) -0.006(2) 0.005(2)
C27 0.076(2) 0.087(3) 0.088(2) -0.005(2) 0.0032(19) 0.0076(19)
C28 0.119(4) 0.124(5) 0.129(4) -0.001(3) -0.032(3) 0.026(3)
loop_
_atom_type_symbol
_atom_type_description
_atom_type_scat_dispersion_real
_atom_type_scat_dispersion_imag
_atom_type_scat_source
C C 0.0033 0.0016 'International Tables Vol C Tables 4.2.6.8 and 6.1.1.4'
H H 0.0000 0.0000 'International Tables Vol C Tables 4.2.6.8 and 6.1.1.4'
N N 0.0061 0.0033 'International Tables Vol C Tables 4.2.6.8 and 6.1.1.4'
O O 0.0106 0.0060 'International Tables Vol C Tables 4.2.6.8 and 6.1.1.4'
S S 0.1246 0.1234 'International Tables Vol C Tables 4.2.6.8 and 6.1.1.4'
loop_
_geom_angle_atom_site_label_1
_geom_angle_atom_site_label_2
_geom_angle_atom_site_label_3
_geom_angle
O1 S1 O2 119.61(16)
O1 S1 N1 107.76(15)
O2 S1 N1 105.60(16)
O1 S1 C22 108.83(17)
O2 S1 C22 108.45(18)
N1 S1 C22 105.73(15)
C8 N1 C1 107.6(3)
C8 N1 S1 123.4(2)
C1 N1 S1 125.6(2)
C2 C1 N1 107.4(3)
C2 C1 C9 129.4(3)
N1 C1 C9 123.1(3)
C1 C2 C3 110.7(3)
C4 C3 C8 121.0(3)
C4 C3 C2 132.6(3)
C8 C3 C2 106.3(3)
C5 C4 C3 119.0(3)
C5 C4 C12 121.5(3)
C3 C4 C12 119.5(3)
C4 C5 C6 118.4(3)
C4 C5 C21 121.8(4)
C6 C5 C21 119.8(3)
C7 C6 C5 123.4(3)
C6 C7 C8 118.0(3)
C7 C8 N1 131.8(3)
C7 C8 C3 120.3(3)
N1 C8 C3 107.9(3)
C11 C9 C1 122.0(4)
C11 C9 C10 59.6(4)
C1 C9 C10 119.8(4)
C11 C10 C9 59.3(3)
C9 C11 C10 61.1(4)
C4 C12 C13 114.2(3)
O3 C13 C14 120.4(3)
O3 C13 C12 120.2(3)
C14 C13 C12 119.5(3)
C15 C14 C19 117.5(3)
C15 C14 C13 123.6(3)
C19 C14 C13 118.9(3)
C14 C15 C16 121.7(3)
C17 C16 C15 120.6(4)
C16 C17 C18 117.9(4)
C16 C17 C20 121.1(4)
C18 C17 C20 121.0(3)
C19 C18 C17 121.2(3)
C18 C19 C14 121.1(3)
C27 C22 C23 119.2(3)
C27 C22 S1 120.1(3)
C23 C22 S1 120.7(3)
C24 C23 C22 119.8(4)
C23 C24 C25 121.7(4)
C26 C25 C24 117.9(4)
C26 C25 C28 120.9(4)
C24 C25 C28 121.2(4)
C27 C26 C25 121.4(4)
C26 C27 C22 120.0(4)
loop_
_geom_bond_atom_site_label_1
_geom_bond_atom_site_label_2
_geom_bond_distance
S1 O1 1.414(3)
S1 O2 1.417(3)
S1 N1 1.657(3)
S1 C22 1.745(4)
N1 C8 1.399(4)
N1 C1 1.438(4)
O3 C13 1.215(4)
C1 C2 1.335(5)
C1 C9 1.459(5)
C2 C3 1.420(4)
C3 C4 1.393(4)
C3 C8 1.406(4)
C4 C5 1.391(4)
C4 C12 1.495(5)
C5 C6 1.406(5)
C5 C21 1.492(5)
C6 C7 1.368(5)
C7 C8 1.384(4)
C9 C11 1.449(7)
C9 C10 1.475(6)
C10 C11 1.454(9)
C12 C13 1.507(4)
C13 C14 1.480(5)
C14 C15 1.377(4)
C14 C19 1.380(4)
C15 C16 1.381(5)
C16 C17 1.374(5)
C17 C18 1.385(5)
C17 C20 1.503(6)
C18 C19 1.372(5)
C22 C27 1.378(5)
C22 C23 1.386(5)
C23 C24 1.365(5)
C24 C25 1.377(6)
C25 C26 1.375(6)
C25 C28 1.508(6)
C26 C27 1.372(5)
loop_
_geom_torsion_atom_site_label_1
_geom_torsion_atom_site_label_2
_geom_torsion_atom_site_label_3
_geom_torsion_atom_site_label_4
_geom_torsion
O1 S1 N1 C8 -167.5(2)
O2 S1 N1 C8 -38.6(3)
C22 S1 N1 C8 76.3(3)
O1 S1 N1 C1 35.9(3)
O2 S1 N1 C1 164.8(3)
C22 S1 N1 C1 -80.4(3)
C8 N1 C1 C2 2.7(3)
S1 N1 C1 C2 162.4(2)
C8 N1 C1 C9 179.2(3)
S1 N1 C1 C9 -21.1(4)
N1 C1 C2 C3 -2.0(4)
C9 C1 C2 C3 -178.2(3)
C1 C2 C3 C4 179.8(3)
C1 C2 C3 C8 0.6(3)
C8 C3 C4 C5 -0.3(4)
C2 C3 C4 C5 -179.4(3)
C8 C3 C4 C12 179.7(3)
C2 C3 C4 C12 0.6(5)
C3 C4 C5 C6 0.6(4)
C12 C4 C5 C6 -179.4(3)
C3 C4 C5 C21 -178.0(3)
C12 C4 C5 C21 1.9(4)
C4 C5 C6 C7 0.2(5)
C21 C5 C6 C7 178.8(3)
C5 C6 C7 C8 -1.3(5)
C6 C7 C8 N1 178.3(3)
C6 C7 C8 C3 1.6(4)
C1 N1 C8 C7 -179.3(3)
S1 N1 C8 C7 20.5(4)
C1 N1 C8 C3 -2.3(3)
S1 N1 C8 C3 -162.5(2)
C4 C3 C8 C7 -0.8(4)
C2 C3 C8 C7 178.5(3)
C4 C3 C8 N1 -178.2(2)
C2 C3 C8 N1 1.1(3)
C2 C1 C9 C11 -81.6(7)
N1 C1 C9 C11 102.8(6)
C2 C1 C9 C10 -10.8(7)
N1 C1 C9 C10 173.5(5)
C1 C9 C10 C11 -111.9(5)
C1 C9 C11 C10 108.2(5)
C5 C4 C12 C13 -80.5(4)
C3 C4 C12 C13 99.4(3)
C4 C12 C13 O3 4.9(5)
C4 C12 C13 C14 -175.5(3)
O3 C13 C14 C15 -174.4(3)
C12 C13 C14 C15 6.1(5)
O3 C13 C14 C19 6.7(5)
C12 C13 C14 C19 -172.9(3)
C19 C14 C15 C16 -1.4(5)
C13 C14 C15 C16 179.6(3)
C14 C15 C16 C17 1.5(6)
C15 C16 C17 C18 -0.6(5)
C15 C16 C17 C20 178.9(3)
C16 C17 C18 C19 -0.4(6)
C20 C17 C18 C19 -179.9(4)
C17 C18 C19 C14 0.4(6)
C15 C14 C19 C18 0.5(5)
C13 C14 C19 C18 179.5(3)
O1 S1 C22 C27 -10.4(4)
O2 S1 C22 C27 -142.0(3)
N1 S1 C22 C27 105.2(3)
O1 S1 C22 C23 167.7(3)
O2 S1 C22 C23 36.1(3)
N1 S1 C22 C23 -76.7(3)
C27 C22 C23 C24 0.0(6)
S1 C22 C23 C24 -178.1(3)
C22 C23 C24 C25 1.1(6)
C23 C24 C25 C26 -1.7(6)
C23 C24 C25 C28 177.7(4)
C24 C25 C26 C27 1.3(7)
C28 C25 C26 C27 -178.1(4)
C25 C26 C27 C22 -0.2(7)
C23 C22 C27 C26 -0.5(6)
S1 C22 C27 C26 177.7(3)
