#------------------------------------------------------------------------------
#$Date: 2016-02-18 17:37:37 +0200 (Thu, 18 Feb 2016) $
#$Revision: 176729 $
#$URL: svn://www.crystallography.net/cod/cif/1/51/66/1516630.cif $
#------------------------------------------------------------------------------
#
# This file is available in the Crystallography Open Database (COD),
# http://www.crystallography.net/
#
# All data on this site have been placed in the public domain by the
# contributors.
#
data_1516630
loop_
_publ_author_name
'Choudhary, Amit'
'Newberry, Robert W.'
'Raines, Ronald T.'
_publ_section_title
;
 n\\rightarrow \p* Interactions Engender Chirality in Carbonyl Groups.
;
_journal_issue                   13
_journal_name_full               'Organic letters'
_journal_page_first              3421
_journal_page_last               3423
_journal_paper_doi               10.1021/ol5012967
_journal_volume                  16
_journal_year                    2014
_chemical_absolute_configuration ad
_chemical_formula_sum            'C8 H13 N O3 S'
_chemical_formula_weight         203.25
_space_group_crystal_system      orthorhombic
_space_group_IT_number           19
_space_group_name_Hall           'P 2ac 2ab'
_space_group_name_H-M_alt        'P 21 21 21'
_symmetry_space_group_name_Hall  'P 2ac 2ab'
_symmetry_space_group_name_H-M   'P 21 21 21'
_atom_sites_solution_hydrogens   geom
_audit_creation_method
;
manual editing of the CIF file 
created by SHELXTL Ver. 6.10
;
_cell_angle_alpha                90
_cell_angle_beta                 90
_cell_angle_gamma                90
_cell_formula_units_Z            4
_cell_length_a                   7.9045(5)
_cell_length_b                   10.8117(7)
_cell_length_c                   11.4208(8)
_cell_measurement_reflns_used    5391
_cell_measurement_temperature    105(2)
_cell_measurement_theta_max      28.4675
_cell_measurement_theta_min      2.5941
_cell_volume                     976.03(11)
_computing_cell_refinement       'SAINT Ver. 6.22  (Bruker-AXS, 2003)'
_computing_data_collection       'SMART Ver. 5.622 (Bruker-AXS, 2003)'
_computing_data_reduction        'SAINT Ver. 6.22'
_computing_molecular_graphics    'SHELXTL Ver. 6.10'
_computing_publication_material  'SHELXTL Ver. 6.10'
_computing_structure_refinement  'SHELXL-2013 (Sheldrick, 2013)'
_computing_structure_solution    'SHELXTL Ver. 6.10 (Bruker-AXS, 2003)'
_diffrn_ambient_temperature      105(2)
_diffrn_measured_fraction_theta_full 1.000
_diffrn_measured_fraction_theta_max 1.000
_diffrn_measurement_device_type  'Bruker CCD-1000 area detector'
_diffrn_measurement_method       '0.30\% \w scans'
_diffrn_radiation_type           MoK\a
_diffrn_radiation_wavelength     0.71073
_diffrn_reflns_av_R_equivalents  0.0328
_diffrn_reflns_av_unetI/netI     0.0240
_diffrn_reflns_Laue_measured_fraction_full 1.000
_diffrn_reflns_Laue_measured_fraction_max 1.000
_diffrn_reflns_limit_h_max       10
_diffrn_reflns_limit_h_min       -10
_diffrn_reflns_limit_k_max       14
_diffrn_reflns_limit_k_min       -14
_diffrn_reflns_limit_l_max       15
_diffrn_reflns_limit_l_min       -15
_diffrn_reflns_number            14299
_diffrn_reflns_point_group_measured_fraction_full 1.000
_diffrn_reflns_point_group_measured_fraction_max 1.000
_diffrn_reflns_theta_full        25.242
_diffrn_reflns_theta_max         29.158
_diffrn_reflns_theta_min         2.594
_diffrn_source                   'fine-focus sealed tube'
_exptl_absorpt_coefficient_mu    0.307
_exptl_absorpt_correction_T_max  0.9190
_exptl_absorpt_correction_T_min  0.8844
_exptl_absorpt_correction_type   multi-scan
_exptl_absorpt_process_details
;
SADABS  (Bruker-AXS, 2003)
;
_exptl_crystal_colour            colorless
_exptl_crystal_density_diffrn    1.383
_exptl_crystal_description       block
_exptl_crystal_F_000             432
_exptl_crystal_size_max          0.410
_exptl_crystal_size_mid          0.380
_exptl_crystal_size_min          0.280
_refine_diff_density_max         0.352
_refine_diff_density_min         -0.183
_refine_diff_density_rms         0.054
_refine_ls_abs_structure_details
;
 Refined as an inversion twin.
;
_refine_ls_abs_structure_Flack   -0.03(9)
_refine_ls_extinction_method     none
_refine_ls_goodness_of_fit_ref   1.064
_refine_ls_hydrogen_treatment    constr
_refine_ls_matrix_type           full
_refine_ls_number_parameters     122
_refine_ls_number_reflns         2637
_refine_ls_number_restraints     0
_refine_ls_restrained_S_all      1.064
_refine_ls_R_factor_all          0.0352
_refine_ls_R_factor_gt           0.0306
_refine_ls_shift/su_max          0.000
_refine_ls_shift/su_mean         0.000
_refine_ls_structure_factor_coef Fsqd
_refine_ls_weighting_details
'w=1/[\s^2^(Fo^2^)+(0.0456P)^2^+0.1852P] where P=(Fo^2^+2Fc^2^)/3'
_refine_ls_weighting_scheme      calc
_refine_ls_wR_factor_gt          0.0752
_refine_ls_wR_factor_ref         0.0787
_reflns_Friedel_coverage         0.725
_reflns_Friedel_fraction_full    1.000
_reflns_Friedel_fraction_max     1.000
_reflns_number_gt                2444
_reflns_number_total             2637
_reflns_threshold_expression     'I > 2\s(I)'
_cod_data_source_file            ol5012967_si_007.cif
_cod_data_source_block           global
_cod_depositor_comments
'Adding full bibliography for 1516628--1516633.cif.'
_cod_database_code               1516630
#BEGIN Tags that were not found in dictionaries:
_shelx_space_group_comment
;
The symmetry employed for this shelxl refinement is uniquely defined
by the following loop, which should always be used as a source of
symmetry information in preference to the above space-group names.
They are only intended as comments.
;
_shelx_estimated_absorpt_t_min   0.884
_shelx_estimated_absorpt_t_max   0.919
_shelxl_version_number           2013-4
_shelx_res_file
;
TITL raines18 in P2(1)2(1)2(1)
CELL 0.71073   7.9045  10.8117  11.4208  90.000  90.000  90.000
ZERR    4.00   0.0005   0.0007   0.0008   0.000   0.000   0.000
LATT -1
SYMM 0.5-X, -Y, 0.5+Z
SYMM -X, 0.5+Y, 0.5-Z
SYMM 0.5+X, 0.5-Y, -Z
SFAC C  H  N  O  S
UNIT 32 52 4 12 4
L.S. 100
ACTA
BOND
FMAP 2
PLAN 10
size 0.41 0.38 0.28
wpdb -2
twin
conf
TEMP -168
WGHT    0.045600    0.185200
BASF  -0.03055
FVAR       0.25632
MOLE 1
S1    5    0.035053    0.461015    0.689004    11.00000    0.01608    0.02013 =
         0.02167    0.00195   -0.00206    0.00089
O1    4    0.565323    0.541265    0.561993    11.00000    0.03187    0.02509 =
         0.03007    0.00743    0.01098   -0.00365
N1    3    0.320257    0.416681    0.801881    11.00000    0.01524    0.01465 =
         0.01534    0.00081   -0.00100   -0.00051
O2    4    0.407840    0.369634    0.581229    11.00000    0.02832    0.01930 =
         0.01769   -0.00128    0.00521   -0.00005
O3    4    0.679676    0.342501    0.778335    11.00000    0.01487    0.02757 =
         0.03738    0.00119    0.00138   -0.00029
AFIX 147
H3    2    0.769792    0.376078    0.755769    11.00000   -1.50000
AFIX   0
C7    1    0.470832    0.476721    0.617896    11.00000    0.01777    0.01861 =
         0.02045    0.00407    0.00247    0.00211
C4    1    0.558248    0.544410    0.819749    11.00000    0.02114    0.01982 =
         0.02709    0.00083   -0.00438   -0.00529
AFIX  23
H4A   2    0.653848    0.581059    0.775789    11.00000   -1.20000
H4B   2    0.524760    0.601296    0.883599    11.00000   -1.20000
AFIX   0
C3    1    0.408404    0.515745    0.738625    11.00000    0.01563    0.01435 =
         0.01964    0.00124    0.00058   -0.00253
AFIX  13
H3A   2    0.333464    0.589907    0.731737    11.00000   -1.20000
AFIX   0
C6    1    0.431340    0.360353    0.891811    11.00000    0.01914    0.02079 =
         0.01679    0.00281   -0.00351   -0.00019
AFIX  23
H6A   2    0.434643    0.269232    0.883567    11.00000   -1.20000
H6B   2    0.392219    0.381496    0.971688    11.00000   -1.20000
AFIX   0
C1    1    0.093534    0.282165    0.858846    11.00000    0.01754    0.01845 =
         0.02592    0.00542    0.00460   -0.00094
AFIX 137
H1A   2    0.160874    0.207663    0.844131    11.00000   -1.50000
H1B   2   -0.024927    0.266162    0.838561    11.00000   -1.50000
H1C   2    0.101483    0.304476    0.941832    11.00000   -1.50000
AFIX   0
C2    1    0.159697    0.386677    0.785302    11.00000    0.01618    0.01366 =
         0.01521   -0.00120    0.00193    0.00094
C8    1    0.465161    0.329220    0.467420    11.00000    0.05134    0.02830 =
         0.01905   -0.00106    0.01060    0.00726
AFIX 137
H8A   2    0.446913    0.395411    0.410173    11.00000   -1.50000
H8B   2    0.401494    0.255584    0.443713    11.00000   -1.50000
H8C   2    0.585972    0.309242    0.471145    11.00000   -1.50000
AFIX   0
C5    1    0.603383    0.416736    0.867113    11.00000    0.01864    0.02392 =
         0.02707    0.00085   -0.00710   -0.00203
AFIX  13
H5    2    0.674954    0.421692    0.939161    11.00000   -1.20000
AFIX   0
HKLF 4

REM  raines18 in P2(1)2(1)2(1)
REM R1 =  0.0306 for    2444 Fo > 4sig(Fo)  and  0.0352 for all    2637 data
REM    122 parameters refined using      0 restraints

END

WGHT      0.0452      0.1889

REM Highest difference peak  0.352,  deepest hole -0.183,  1-sigma level  0.054
Q1    1   0.1043  0.4280  0.7400  11.00000  0.05    0.35
Q2    1   0.4835  0.5357  0.7794  11.00000  0.05    0.30
Q3    1   0.5800  0.4791  0.8430  11.00000  0.05    0.29
Q4    1   0.3433  0.4786  0.7893  11.00000  0.05    0.29
Q5    1   0.4358  0.4901  0.6834  11.00000  0.05    0.28
Q6    1   0.1302  0.3258  0.8203  11.00000  0.05    0.28
Q7    1  -0.0808  0.4558  0.6934  11.00000  0.05    0.27
Q8    1   0.0667  0.5348  0.6757  11.00000  0.05    0.26
Q9    1   0.5189  0.3823  0.8782  11.00000  0.05    0.26
Q10   1   0.3729  0.3785  0.8472  11.00000  0.05    0.25
;
_shelx_res_checksum              21610
_shelx_hkl_file
;
  -1   0   0   -1.09    0.04
   1   0   0   -1.09    0.04
   1   0   0   -1.06    0.05
   1   0   0   -1.01    0.05
   2   0   0 1000.00   24.48
   2   0   0  921.32   23.93
   2   0   0  917.68   24.46
  -2   0   0  795.61   24.22
   3   0   0    0.08    0.08
   3   0   0   -0.01    0.08
   3   0   0   -0.01    0.07
   3   0   0   -0.03    0.06
  -3   0   0   -0.06    0.07
   4   0   0   22.17    0.82
   4   0   0   22.30    0.79
   4   0   0   22.35    0.76
   4   0   0   21.37    0.78
  -4   0   0   22.10    0.80
   5   0   0   -0.14    0.11
  -5   0   0    0.15    0.15
   5   0   0    0.01    0.13
   5   0   0   -0.07    0.14
   5   0   0   -0.11    0.13
   6   0   0    3.78    0.30
  -6   0   0    2.97    0.32
   6   0   0    3.88    0.33
   6   0   0    3.60    0.36
  -7   0   0    0.03    0.20
   7   0   0    0.01    0.17
   7   0   0   -0.26    0.21
  -8   0   0   54.00    1.87
   8   0   0   51.51    1.93
   8   0   0   52.28    1.72
   9   0   0    0.07    0.29
   9   0   0   -0.10    0.21
  10   0   0    1.05    0.21
  10   0   0    1.06    0.47
   0  -1   0   -0.96    0.03
   0   1   0   -0.98    0.03
   0   1   0   -0.94    0.03
   1  -1   0   83.89    2.29
   1   1   0   85.93    2.34
  -1  -1   0   84.82    2.31
   1  -1   0   85.56    2.35
  -1  -1   0   80.58    2.29
  -1   1   0   82.34    2.32
   2  -1   0    2.65    0.17
   2  -1   0    2.56    0.12
   2   1   0    2.64    0.17
   2   1   0    2.58    0.18
  -2  -1   0    2.43    0.14
  -2   1   0    2.80    0.18
   2   1   0    2.10    0.15
   2  -1   0    2.44    0.17
   3   1   0   88.64    2.70
   3  -1   0   95.13    2.70
   3   1   0  101.04    2.70
   3   1   0   95.23    2.71
   3  -1   0   96.54    2.73
   3  -1   0   96.87    2.63
  -3   1   0   94.43    2.72
   3   1   0   93.89    2.69
  -3  -1   0   93.86    2.66
   4   1   0   64.62    1.94
   4   1   0   65.18    1.93
   4   1   0   64.67    1.96
   4  -1   0   63.98    1.95
   4   1   0   65.27    1.94
  -4   1   0   63.99    1.96
  -4   1   0   62.80    1.97
   4  -1   0   66.20    1.96
   4  -1   0   61.85    1.95
  -4  -1   0   67.22    1.91
   4  -1   0   65.67    1.86
  -5  -1   0   28.36    1.00
  -5   1   0   26.68    1.03
   5  -1   0   29.92    0.95
   5   1   0   27.45    1.05
   5  -1   0   28.25    1.02
   5  -1   0   29.48    1.02
   5   1   0   28.39    1.01
   5   1   0   29.86    1.00
   5   1   0   28.15    0.98
   5  -1   0   28.23    1.06
   6  -1   0    2.52    0.32
   6   1   0    2.81    0.34
   6  -1   0    3.18    0.28
   6   1   0    2.97    0.29
   6  -1   0    2.98    0.30
  -6  -1   0    3.67    0.33
   6   1   0    3.23    0.31
  -6   1   0    3.26    0.34
   7   1   0   39.70    1.37
   7   1   0   42.20    1.43
   7   1   0   39.72    1.51
   7  -1   0   38.99    1.40
   7  -1   0   39.50    1.52
  -7  -1   0   43.23    1.46
  -7   1   0   40.03    1.50
   8   1   0    1.22    0.35
   8   1   0    0.93    0.23
   8  -1   0    1.16    0.26
  -8   1   0    0.98    0.31
   8  -1   0    1.28    0.36
   9   1   0   17.15    0.72
  -9   1   0   18.91    1.01
   9  -1   0   16.95    1.00
   9   1   0   17.66    1.00
   9  -1   0   17.18    0.78
  10  -1   0    1.07    0.48
  10   1   0    0.17    0.41
  10  -1   0    0.19    0.22
   0  -2   0  666.22   18.96
   0   2   0  777.40   19.44
   0   2   0  738.12   19.26
   0   2   0  727.78   19.42
   0  -2   0  692.49   19.40
  -1   2   0   54.77    1.52
   1  -2   0   56.87    1.61
   1   2   0   54.61    1.59
  -1   2   0   55.77    1.57
  -1   2   0   54.62    1.61
  -1  -2   0   52.03    1.55
  -2   2   0  282.35    7.65
  -2  -2   0  274.84    7.56
  -2   2   0  280.82    7.73
   2   2   0  274.94    7.69
   2  -2   0  282.12    7.73
   2  -2   0  282.01    7.63
  -2  -2   0  289.76    7.57
   2  -2   0  286.35    7.56
   2   2   0  286.29    7.70
   3   2   0   82.22    2.32
   3   2   0   78.40    2.32
   3  -2   0   82.37    2.22
  -3   2   0   80.55    2.36
   3   2   0   83.55    2.33
   3  -2   0   79.21    2.33
   3  -2   0   79.79    2.37
   3   2   0   77.92    2.35
  -3  -2   0   79.37    2.24
  -3   2   0   81.59    2.38
  -4   2   0   25.79    0.96
   4   2   0   25.71    0.90
   4  -2   0   27.13    0.81
   4   2   0   25.24    0.94
   4  -2   0   25.93    0.94
  -4   2   0   24.86    0.95
   4   2   0   26.07    0.94
   4   2   0   27.95    0.90
  -4  -2   0   26.56    0.86
   4  -2   0   26.22    0.95
   5   2   0    1.12    0.23
  -5   2   0    1.38    0.25
   5   2   0    0.71    0.18
   5   2   0    1.02    0.20
  -5  -2   0    1.38    0.20
   5   2   0    0.90    0.17
   5  -2   0    0.87    0.20
   5  -2   0    1.22    0.15
   5  -2   0    1.37    0.23
   6  -2   0    0.15    0.19
  -6  -2   0    0.10    0.15
  -6   2   0    0.18    0.18
   6  -2   0   -0.13    0.15
   6   2   0   -0.16    0.17
   6   2   0   -0.28    0.19
   6   2   0   -0.02    0.14
   7   2   0    3.91    0.34
   7   2   0    4.45    0.47
  -7   2   0    3.94    0.46
   7  -2   0    4.65    0.46
   7  -2   0    4.12    0.39
   7   2   0    3.69    0.38
   8  -2   0    5.17    0.44
  -8   2   0    5.51    0.54
   8   2   0    4.46    0.47
   8   2   0    5.35    0.38
   8  -2   0    5.10    0.55
   8   2   0    5.10    0.52
   9  -2   0    0.68    0.37
   9   2   0    0.96    0.37
  -9   2   0    0.94    0.36
   9  -2   0    0.89    0.29
   9   2   0    0.88    0.22
 -10   2   0    6.98    0.71
  10   2   0    5.66    0.69
  10  -2   0    6.51    0.78
  10  -2   0    6.70    0.49
   0  -3   0   -0.01    0.05
   0  -3   0   -0.02    0.06
   0   3   0    0.02    0.06
   0   3   0    0.04    0.06
   0   3   0   -0.02    0.05
  -1   3   0    0.06    0.09
   1   3   0    0.17    0.08
  -1   3   0    0.17    0.08
  -1  -3   0    0.31    0.09
   1   3   0    0.12    0.07
   1   3   0    0.26    0.04
   1  -3   0    0.18    0.07
  -1  -3   0    0.05    0.08
   1  -3   0    0.02    0.07
  -1   3   0    0.19    0.06
  -2   3   0   29.60    0.98
  -2  -3   0   30.06    0.98
  -2  -3   0   29.23    0.97
   2   3   0   30.62    1.00
   2  -3   0   29.30    1.00
   2  -3   0   30.65    0.97
  -2   3   0   30.10    1.01
   2   3   0   28.52    0.96
   3  -3   0   58.55    1.88
   3   3   0   59.00    1.87
   3  -3   0   60.85    1.85
  -3   3   0   59.51    1.90
   3   3   0   61.05    1.84
  -3   3   0   61.73    1.88
   3  -3   0   62.64    1.69
  -3  -3   0   62.23    1.70
   3   3   0   65.88    1.85
  -3  -3   0   60.26    1.85
   4   3   0    4.45    0.30
  -4   3   0    5.02    0.36
  -4  -3   0    4.56    0.24
   4  -3   0    4.50    0.35
  -4  -3   0    3.94    0.33
   4   3   0    4.33    0.35
   4  -3   0    4.55    0.20
   4   3   0    5.06    0.32
   4  -3   0    4.03    0.32
  -4   3   0    4.68    0.36
   5   3   0    0.12    0.14
   5  -3   0    0.00    0.14
  -5   3   0    0.11    0.15
  -5  -3   0    0.05    0.12
  -5  -3   0    0.01    0.14
   5   3   0    0.00    0.11
   5   3   0    0.30    0.17
   5  -3   0    0.10    0.17
   6  -3   0   -0.09    0.20
   6   3   0   -0.11    0.18
  -6   3   0    0.01    0.19
   6   3   0    0.13    0.16
   6  -3   0   -0.06    0.16
   7  -3   0   35.99    1.37
   7   3   0   40.60    1.45
   7  -3   0   34.53    1.43
   7   3   0   37.68    1.28
  -7   3   0   38.39    1.48
   8   3   0   14.39    0.64
  -8  -3   0   15.05    0.90
   8   3   0   12.60    0.77
   8  -3   0   14.04    0.74
  -8   3   0   15.02    0.89
   8  -3   0   14.53    0.86
   9   3   0   13.47    0.56
  -9   3   0   14.17    0.94
   9  -3   0   13.64    0.94
   9  -3   0   13.06    0.71
  -9  -3   0   13.93    0.91
  10  -3   0   15.33    1.05
  10  -3   0   12.68    0.71
 -10  -3   0   15.18    1.02
 -10   3   0   12.87    1.01
   0  -4   0   10.37    0.47
   0   4   0   10.94    0.45
   0   4   0   11.72    0.41
   0  -4   0   11.24    0.45
   1  -4   0  301.14    7.97
  -1   4   0  299.95    8.20
   1   4   0  300.28    8.18
   1   4   0  261.79    8.10
   1  -4   0  289.47    8.18
   1   4   0  320.72    7.96
  -1  -4   0  298.43    7.98
  -1  -4   0  298.20    8.17
  -1   4   0  294.74    8.04
  -1   4   0  302.88    8.04
   2   4   0  157.20    4.43
   2   4   0  152.24    4.42
  -2  -4   0  156.16    4.34
  -2   4   0  158.74    4.38
  -2   4   0  157.71    4.27
   2  -4   0  162.31    4.47
  -2  -4   0  161.22    4.44
  -2   4   0  152.66    4.47
   2  -4   0  151.90    4.33
   3  -4   0   78.46    2.33
  -3  -4   0   81.58    2.38
  -3   4   0   78.72    2.43
   3   4   0   73.48    2.37
  -3   4   0   77.75    2.38
  -3  -4   0   78.29    2.34
   3  -4   0   77.81    2.40
   3   4   0   79.94    2.34
   3  -4   0   82.59    2.18
   3   4   0   77.91    2.35
   4   4   0   46.68    1.44
   4   4   0   42.20    1.43
  -4  -4   0   46.82    1.26
  -4   4   0   45.85    1.54
  -4   4   0   42.42    1.49
  -4  -4   0   42.12    1.47
   4  -4   0   44.15    1.23
   4  -4   0   42.77    1.47
   4  -4   0   44.16    1.50
   4   4   0   43.95    1.50
  -5  -4   0    8.34    0.54
   5  -4   0    8.73    0.52
  -5   4   0    8.04    0.52
   5   4   0    8.58    0.53
   5   4   0    8.94    0.46
   5  -4   0    7.44    0.51
  -6   4   0    6.23    0.51
   6  -4   0    5.85    0.47
  -6  -4   0    5.88    0.49
   6   4   0    6.54    0.41
   6   4   0    6.01    0.50
   6  -4   0    5.47    0.49
  -7   4   0    3.71    0.48
   7  -4   0    4.43    0.44
  -7  -4   0    4.64    0.47
   7   4   0    4.94    0.37
   7   4   0    3.93    0.45
   7  -4   0    4.38    0.48
  -8  -4   0    0.14    0.31
   8   4   0    0.48    0.20
   8  -4   0    0.62    0.34
   8  -4   0    0.68    0.30
   8   4   0    0.77    0.33
  -8   4   0    0.66    0.38
  -9  -4   0   18.59    1.08
  -9   4   0   17.97    1.11
   9  -4   0   19.74    1.13
   9  -4   0   17.53    0.89
  10  -4   0    0.46    0.33
 -10   4   0    0.70    0.52
 -10  -4   0    0.45    0.48
  10  -4   0    0.81    0.53
   0   5   0   -0.12    0.10
   0   5   0   -0.05    0.09
   0  -5   0   -0.09    0.08
   0   5   0   -0.16    0.08
   0  -5   0   -0.06    0.10
  -1   5   0    9.45    0.44
  -1  -5   0    9.67    0.50
  -1   5   0   10.07    0.42
   1   5   0    9.82    0.48
   1   5   0    9.85    0.49
  -1  -5   0    9.27    0.45
  -1   5   0    9.90    0.51
   1   5   0    9.83    0.35
   1  -5   0   10.01    0.47
  -2   5   0    4.50    0.36
   2   5   0    5.10    0.34
  -2   5   0    4.53    0.33
  -2   5   0    4.43    0.24
  -2  -5   0    4.33    0.31
  -2  -5   0    4.63    0.34
   2   5   0    4.87    0.35
   2  -5   0    4.69    0.33
   2  -5   0    4.46    0.35
   3  -5   0   29.46    1.10
  -3   5   0   29.36    1.12
   3   5   0   30.44    1.05
   3  -5   0   30.58    0.89
  -3  -5   0   28.49    1.06
   3   5   0   28.93    1.05
   3  -5   0   28.95    1.06
  -3  -5   0   30.23    1.08
  -3   5   0   27.50    1.06
   4   5   0  111.32    3.40
   4   5   0  107.36    3.32
  -4   5   0  116.12    3.47
   4  -5   0  113.47    3.43
  -4  -5   0  113.07    3.34
  -4   5   0  117.86    3.40
   4  -5   0  115.27    3.35
  -5  -5   0   32.44    1.24
   5  -5   0   29.32    1.22
   5   5   0   32.99    1.26
  -5   5   0   31.55    1.26
   5  -5   0   32.21    1.23
   5   5   0   32.94    1.15
  -6   5   0    1.41    0.30
   6   5   0    1.22    0.29
   6  -5   0    1.46    0.31
   6   5   0    1.24    0.24
  -6  -5   0    1.29    0.31
   6  -5   0    0.61    0.26
   7  -5   0    2.05    0.33
   7   5   0    2.58    0.41
  -7   5   0    1.99    0.43
  -7  -5   0    1.97    0.36
   7  -5   0    2.04    0.38
   7   5   0    2.36    0.29
   8  -5   0   -0.07    0.27
   8   5   0   -0.28    0.31
  -8   5   0   -0.26    0.32
   8   5   0   -0.39    0.18
  -8  -5   0    0.01    0.27
   8  -5   0   -0.22    0.32
   9  -5   0    2.31    0.51
   9  -5   0    2.66    0.46
  -9  -5   0    2.91    0.50
   9   5   0    2.49    0.45
  -9   5   0    2.74    0.50
 -10  -5   0   14.61    1.06
  10  -5   0   12.73    0.79
 -10   5   0   13.01    1.08
  10  -5   0   14.59    1.09
   0  -6   0    6.66    0.38
   0   6   0    6.61    0.38
   0   6   0    6.01    0.42
   0  -6   0    6.36    0.42
   0   6   0    6.64    0.34
  -1  -6   0  385.28   10.62
   1  -6   0  383.01   10.35
  -1  -6   0  371.21   10.34
   1   6   0  395.25   10.29
   1   6   0  380.44   10.52
  -1   6   0  385.13   10.41
  -1   6   0  384.57   10.44
   1  -6   0  385.24   10.63
  -2  -6   0   22.79    0.91
   2   6   0   21.67    0.90
  -2   6   0   23.27    0.76
  -2  -6   0   22.82    0.87
  -2   6   0   23.12    0.87
   2  -6   0   21.18    0.86
   2  -6   0   21.67    0.91
   2   6   0   22.23    0.90
   3   6   0   46.72    1.58
  -3   6   0   47.55    1.37
   3  -6   0   48.24    1.57
   3   6   0   45.14    1.61
  -3  -6   0   47.60    1.57
  -3   6   0   48.22    1.67
   3  -6   0   45.88    1.63
  -3   6   0   45.94    1.58
   4   6   0    6.77    0.44
   4  -6   0    7.12    0.49
   4   6   0    6.87    0.53
  -4  -6   0    7.75    0.51
  -4   6   0    6.65    0.48
   4  -6   0    6.43    0.46
   5  -6   0   14.06    0.75
   5  -6   0   15.27    0.77
   5   6   0   13.93    0.79
   5   6   0   14.80    0.69
  -5   6   0   13.56    0.77
  -5  -6   0   15.18    0.75
  -6  -6   0    1.20    0.30
   6  -6   0    0.36    0.27
   6   6   0    0.60    0.22
   6  -6   0    0.72    0.31
  -6   6   0    0.41    0.26
   6   6   0    0.57    0.29
  -7   6   0   30.32    1.36
  -7  -6   0   28.55    1.28
   7   6   0   29.19    1.10
   7   6   0   28.94    1.29
   7  -6   0   29.36    1.29
   7  -6   0   28.94    1.25
   8  -6   0    1.63    0.39
   8   6   0    0.92    0.26
   8  -6   0    1.70    0.42
  -8  -6   0    1.02    0.37
  -8   6   0    1.65    0.49
   8   6   0    1.19    0.40
  -9  -6   0    2.12    0.54
   9  -6   0    3.27    0.57
   9   6   0    1.68    0.44
  -9   6   0    1.69    0.55
   9  -6   0    1.80    0.44
   0   7   0   -0.01    0.16
   0  -7   0    0.02    0.17
   0   7   0   -0.05    0.10
   0  -7   0   -0.03    0.12
   0   7   0    0.16    0.16
   1  -7   0    0.01    0.13
   1   7   0   -0.05    0.13
  -1   7   0   -0.23    0.14
   1  -7   0    0.04    0.18
  -1  -7   0   -0.12    0.16
  -1   7   0    0.19    0.20
   1   7   0   -0.27    0.13
  -1   7   0    0.01    0.13
   1   7   0    0.07    0.10
  -1  -7   0   -0.06    0.13
   2   7   0    2.83    0.32
  -2   7   0    2.17    0.33
   2  -7   0    2.49    0.32
  -2  -7   0    2.67    0.29
   2  -7   0    2.71    0.29
  -2   7   0    2.85    0.29
  -2   7   0    2.32    0.22
   2   7   0    2.89    0.32
  -3  -7   0   51.48    1.72
   3   7   0   53.05    1.79
   3   7   0   48.90    1.74
  -3   7   0   52.52    1.74
   3  -7   0   51.14    1.73
   3  -7   0   52.82    1.82
  -3   7   0   49.41    1.82
   4  -7   0    0.20    0.23
  -4  -7   0    0.23    0.18
   4   7   0    0.04    0.19
  -4   7   0   -0.09    0.21
   4   7   0    0.10    0.18
   4  -7   0    0.03    0.18
   5  -7   0   14.12    0.78
  -5   7   0   12.23    0.76
  -5  -7   0   13.29    0.74
   5   7   0   13.26    0.79
   5   7   0   11.74    0.65
   5  -7   0   12.25    0.72
  -6   7   0    6.32    0.60
   6  -7   0    8.44    0.67
  -6  -7   0    7.75    0.64
   6   7   0    7.59    0.63
   6  -7   0    7.24    0.63
   6   7   0    8.70    0.53
   7   7   0    6.78    0.48
  -7  -7   0    7.58    0.67
  -7   7   0    6.51    0.65
   7   7   0    8.60    0.72
   7  -7   0    5.98    0.62
   7  -7   0    8.40    0.68
  -8   7   0    2.32    0.52
  -8  -7   0    1.79    0.45
   8  -7   0    2.21    0.47
   8   7   0    1.99    0.50
   8  -7   0    2.20    0.45
  -9   7   0   -0.13    0.47
  -9  -7   0   -0.17    0.37
   9  -7   0   -0.21    0.42
   9   7   0    0.35    0.44
   9  -7   0    0.73    0.41
   0   8   0    0.24    0.18
   0  -8   0    0.25    0.17
   0   8   0    0.12    0.13
   0  -8   0    0.03    0.20
   0   8   0    0.32    0.22
   1   8   0   24.01    0.99
  -1  -8   0   25.71    1.08
   1   8   0   24.09    1.04
   1  -8   0   25.38    1.00
  -1   8   0   24.84    0.94
  -1   8   0   25.29    0.93
  -1  -8   0   23.54    0.97
  -1   8   0   23.99    1.07
   1  -8   0   22.65    1.05
   2  -8   0    2.39    0.32
  -2   8   0    2.33    0.29
  -2  -8   0    2.25    0.32
   2  -8   0    2.08    0.35
  -2   8   0    2.46    0.26
  -2   8   0    2.09    0.33
   2   8   0    2.05    0.30
  -3   8   0   15.74    0.88
   3  -8   0   16.73    0.87
  -3   8   0   17.71    0.84
  -3  -8   0   19.16    0.86
   3  -8   0   17.31    0.84
   3   8   0   17.56    0.85
   3   8   0   17.12    0.83
  -4  -8   0   10.47    0.67
   4  -8   0   10.68    0.66
  -4   8   0   11.01    0.69
   4  -8   0   11.29    0.73
   4   8   0   11.53    0.65
   4   8   0   10.81    0.68
   5   8   0   -0.18    0.28
  -5  -8   0   -0.15    0.21
  -5   8   0   -0.02    0.24
   5  -8   0   -0.08    0.27
   5   8   0   -0.22    0.19
   5  -8   0    0.12    0.26
   6   8   0    2.96    0.45
  -6   8   0    1.61    0.39
   6  -8   0    3.15    0.49
  -6  -8   0    3.14    0.45
   6   8   0    3.14    0.38
   6  -8   0    2.57    0.43
  -7  -8   0    1.13    0.38
   7   8   0    1.77    0.45
   7  -8   0    1.91    0.43
   7  -8   0    1.44    0.42
  -7   8   0    1.55    0.42
  -8  -8   0    0.19    0.39
   8  -8   0    0.46    0.45
   8  -8   0    0.61    0.38
  -8   8   0    0.74    0.42
   8   8   0    0.26    0.24
   8   8   0    0.07    0.42
   9  -8   0    1.33    0.53
  -9   8   0   -0.39    0.44
  -9  -8   0    0.39    0.46
   9  -8   0    0.26    0.40
   9   8   0    0.26    0.44
   0  -9   0    0.31    0.20
   0   9   0   -0.04    0.19
   0   9   0    0.20    0.25
   0  -9   0   -0.21    0.21
   1   9   0   24.50    1.08
  -1  -9   0   21.56    0.98
   1  -9   0   24.24    1.10
   1  -9   0   21.84    0.98
   1   9   0   23.37    1.01
  -1   9   0   23.51    0.94
  -1   9   0   23.94    1.12
  -1   9   0   22.63    0.91
  -2  -9   0    1.22    0.28
   2  -9   0    1.66    0.29
   2   9   0    1.70    0.31
  -2   9   0    1.21    0.36
   2  -9   0    0.67    0.31
   2   9   0    1.55    0.30
  -2   9   0    1.45    0.27
   3   9   0    6.37    0.55
   3   9   0    6.46    0.54
  -3  -9   0    5.59    0.50
   3  -9   0    6.28    0.58
  -3   9   0    6.00    0.50
   3  -9   0    6.28    0.53
  -4   9   0   13.73    0.80
   4  -9   0   13.14    0.79
   4  -9   0   14.26    0.86
   4   9   0   13.49    0.81
  -4  -9   0   13.61    0.78
   5   9   0    5.86    0.61
   5  -9   0    5.85    0.58
  -5   9   0    5.93    0.58
  -5  -9   0    6.82    0.58
   5  -9   0    4.94    0.57
  -6  -9   0    7.81    0.68
   6  -9   0    8.32    0.74
   6   9   0   10.31    0.77
   6   9   0    8.79    0.61
  -6   9   0    9.09    0.77
   6  -9   0    9.16    0.72
   7  -9   0    3.40    0.53
   7   9   0    3.61    0.42
   7  -9   0    4.14    0.60
  -7  -9   0    3.14    0.52
  -7   9   0    3.29    0.57
   7   9   0    3.18    0.56
   8  -9   0   15.66    1.10
   8  -9   0   16.17    1.05
   8   9   0   17.34    0.76
  -8  -9   0   16.73    1.09
   8   9   0   17.92    1.15
  -8   9   0   17.12    1.17
   0  10   0   35.40    1.50
   0  10   0   36.29    1.38
   0 -10   0   36.26    1.40
   1 -10   0   34.62    1.50
   1  10   0   35.63    1.48
  -1  10   0   37.12    1.36
   1  10   0   37.48    1.44
   1 -10   0   35.66    1.40
  -1  10   0   36.79    1.53
  -1 -10   0   34.58    1.39
  -1  10   0   37.21    1.31
   2  10   0   32.66    1.38
  -2  10   0   34.63    1.30
   2 -10   0   32.76    1.35
   2 -10   0   32.94    1.44
  -2 -10   0   33.93    1.36
   2  10   0   34.94    1.42
  -2  10   0   33.04    1.47
   3  10   0    0.77    0.32
  -3  10   0    0.43    0.29
   3  10   0    0.39    0.29
   3 -10   0    1.39    0.41
  -3 -10   0    0.88    0.29
   3 -10   0    1.22    0.31
   4 -10   0   14.52    0.92
  -4 -10   0   15.34    0.88
   4  10   0   13.81    0.79
   4  10   0   13.58    0.86
  -4  10   0   12.42    0.78
   4 -10   0   14.65    0.85
  -5  10   0    0.36    0.36
   5  10   0    0.39    0.36
   5 -10   0    0.73    0.36
  -5 -10   0    0.20    0.29
   5 -10   0   -0.10    0.36
   5  10   0    0.63    0.29
   6 -10   0   -0.01    0.35
   6 -10   0    0.07    0.38
   6  10   0    0.11    0.28
  -6 -10   0   -0.09    0.33
  -6  10   0    0.02    0.40
   6  10   0    0.12    0.39
   7 -10   0    0.21    0.42
  -7  10   0    0.31    0.48
   7  10   0    0.57    0.33
  -7 -10   0   -0.03    0.39
   7 -10   0    0.08    0.41
   7  10   0    0.15    0.46
   8 -10   0    5.28    0.76
  -8 -10   0    5.65    0.73
   0  11   0   -0.11    0.25
   0 -11   0   -0.34    0.25
   0  11   0   -0.11    0.26
  -1 -11   0    0.37    0.27
   1 -11   0    0.26    0.29
   1  11   0    0.06    0.31
  -1  11   0    0.14    0.32
   1  11   0    0.24    0.35
  -2  11   0    3.26    0.54
   2  11   0    2.96    0.47
  -2 -11   0    3.59    0.48
   2  11   0    2.82    0.46
   2 -11   0    3.87    0.48
   2 -11   0    3.11    0.53
   3 -11   0   15.30    0.88
  -3  11   0   13.34    0.80
   3  11   0   14.61    0.87
  -3 -11   0   14.51    0.86
   3  11   0   14.68    0.91
   3 -11   0   13.96    0.93
   4 -11   0    0.64    0.35
   4  11   0    1.18    0.39
   4 -11   0    0.58    0.41
  -4 -11   0    1.98    0.43
   4  11   0    1.49    0.38
  -4  11   0    0.94    0.39
  -5 -11   0    6.60    0.65
   5 -11   0    5.52    0.65
  -5  11   0    6.77    0.66
   5 -11   0    6.36    0.74
   5  11   0    6.11    0.60
   5  11   0    6.93    0.70
   6 -11   0    0.45    0.47
   6 -11   0    0.24    0.41
   6  11   0    0.37    0.36
  -6  11   0    0.48    0.44
  -6 -11   0    0.55    0.45
   6  11   0    0.92    0.50
   7  11   0   -0.36    0.32
  -7  11   0   -0.16    0.50
   7  11   0    0.20    0.48
   7 -11   0   -0.09    0.49
   7 -11   0   -0.27    0.45
  -7 -11   0    0.64    0.41
   0 -12   0   31.01    1.36
   0  12   0   29.76    1.45
   1  12   0    2.43    0.49
  -1 -12   0    2.06    0.45
   1  12   0    2.09    0.46
  -1  12   0    2.67    0.56
   1 -12   0    3.39    0.48
  -2  12   0   43.29    1.81
  -2 -12   0   38.26    1.61
   2  12   0   41.42    1.69
   2  12   0   35.80    1.64
   2 -12   0   40.19    1.65
   3  12   0    3.84    0.57
   3  12   0    3.33    0.52
  -3 -12   0    3.86    0.52
   3 -12   0    3.66    0.63
   3 -12   0    3.52    0.54
   4  12   0    1.57    0.45
   4 -12   0    3.07    0.52
   4  12   0    2.16    0.51
  -4 -12   0    2.36    0.47
   4 -12   0    3.01    0.61
  -4  12   0    2.83    0.49
   5  12   0    0.20    0.40
  -5 -12   0    0.46    0.38
   5 -12   0   -0.04    0.43
   5  12   0    0.75    0.40
   5 -12   0    0.26    0.46
  -5  12   0    0.27    0.44
   6 -12   0    4.11    0.72
  -6  12   0    3.21    0.67
   6  12   0    2.39    0.62
   6  12   0    2.43    0.50
  -6 -12   0    3.46    0.63
   6 -12   0    3.34    0.66
   0 -13   0    0.60    0.37
   0  13   0   -0.52    0.39
  -1 -13   0    1.23    0.43
  -1  13   0    1.15    0.49
   1  13   0    1.04    0.46
   1  13   0    0.92    0.44
   1 -13   0    0.75    0.37
   2  13   0    2.10    0.54
   2 -13   0    4.03    0.61
   2  13   0    3.13    0.55
  -2 -13   0    3.29    0.54
   3  13   0    0.47    0.42
  -3 -13   0    0.70    0.38
   3  13   0    0.91    0.47
   3 -13   0    0.31    0.44
   4 -13   0    0.34    0.47
   4 -13   0    1.37    0.57
  -4 -13   0    2.00    0.49
   4  13   0    2.10    0.54
   4  13   0    1.25    0.48
   5 -13   0    0.10    0.44
   5  13   0   -0.51    0.34
  -5  13   0   -0.05    0.48
  -5 -13   0    0.40    0.46
   5 -13   0   -0.17    0.47
   5  13   0    0.48    0.55
   0  14   0    8.38    0.89
   0 -14   0    7.92    0.79
   1 -14   0    6.25    0.70
  -1 -14   0    5.63    0.66
   1  14   0    5.78    0.75
  -1  14   0    5.76    0.76
   2  14   0   11.41    0.95
   2 -14   0   10.24    0.92
  -2 -14   0   10.86    0.87
   2  14   0   12.50    1.00
   3  14   0   -0.15    0.48
   3  14   0    0.21    0.39
   3 -14   0   -0.26    0.39
  -3 -14   0    0.11    0.36
   0   0   1   -0.72    0.02
   0   0   1   -0.74    0.01
   0   0  -1   -0.68    0.02
   1   0  -1   98.99    2.79
   1   0   1   99.57    2.72
   1   0   1  101.02    2.74
   1   0  -1  100.04    2.70
  -1   0   1  100.78    2.79
   1   0  -1  102.70    2.76
   1   0   1   99.41    2.74
  -1   0   1  100.93    2.74
  -2   0   1   59.24    1.71
  -2   0  -1   61.50    1.70
   2   0  -1   59.66    1.76
   2   0   1   60.35    1.67
   2   0   1   58.73    1.71
   2   0  -1   60.42    1.69
  -2   0   1   58.13    1.75
   2   0   1   60.75    1.69
   2   0  -1   61.07    1.71
   3   0   1  161.10    4.28
  -3   0   1  149.89    4.30
  -3   0   1  152.92    4.37
   3   0  -1  154.03    4.26
   3   0   1  156.39    4.27
   3   0  -1  149.63    4.28
  -3   0  -1  159.97    4.30
   3   0   1  164.77    4.28
   3   0   1  149.98    4.28
   4   0   1   -0.02    0.09
  -4   0   1    0.81    0.18
   4   0   1    0.04    0.08
   4   0  -1    0.01    0.11
   4   0  -1    0.14    0.11
  -4   0  -1    0.12    0.10
   4   0   1    0.10    0.08
  -4   0   1   -0.18    0.08
   4   0   1    0.02    0.11
   4   0  -1    0.01    0.11
   5   0  -1   10.94    0.57
  -5   0  -1   11.56    0.56
   5   0  -1   11.40    0.52
   5   0   1   11.49    0.48
  -5   0   1   11.03    0.56
  -5   0   1   11.95    0.61
   5   0   1   11.64    0.49
   5   0   1   12.48    0.52
   5   0   1   12.18    0.60
   5   0  -1   12.71    0.59
   6   0   1   14.04    0.56
   6   0  -1   12.97    0.67
  -6   0   1   14.59    0.68
   6   0   1   14.52    0.61
   6   0  -1   14.07    0.62
  -6   0  -1   13.16    0.66
   6   0   1   14.39    0.56
   6   0   1   13.07    0.70
   6   0  -1   13.47    0.67
   7   0   1   17.28    0.89
   7   0  -1   18.95    0.85
   7   0   1   17.98    0.69
   7   0  -1   18.83    0.80
   7   0  -1   19.22    0.91
  -7   0   1   18.81    0.87
  -7   0  -1   19.75    0.87
   8   0   1    4.62    0.56
   8   0  -1    4.21    0.52
  -8   0  -1    5.58    0.50
   8   0   1    4.90    0.30
  -8   0   1    4.65    0.48
   8   0  -1    4.28    0.44
   9   0   1   -0.04    0.33
   9   0  -1   -0.28    0.24
   9   0  -1    0.09    0.35
  10   0   1    0.03    0.43
  10   0  -1   -0.07    0.40
  10   0  -1   -0.26    0.26
   0   1  -1    4.61    0.18
   0  -1   1    4.18    0.18
   0   1   1    4.33    0.17
   0   1   1    4.36    0.17
   0   1   1    4.24    0.18
   0  -1  -1    4.22    0.16
   0  -1   1    4.30    0.18
  -1   1   1   38.39    1.12
   1   1  -1   38.55    1.14
   1  -1   1   38.63    1.10
  -1   1   1   37.27    1.13
   1  -1   1   37.89    1.10
   1   1  -1   38.60    1.12
   1  -1   1   38.62    1.10
   1   1   1   38.75    1.12
  -1   1  -1   40.54    1.11
  -1   1  -1   38.02    1.14
   1   1   1   39.54    1.11
  -1  -1   1   39.86    1.17
  -1  -1   1   39.99    1.11
   1  -1  -1   39.12    1.13
  -1  -1   1   39.80    1.12
   1  -1  -1   40.66    1.11
   1  -1  -1   38.45    1.17
   2  -1   1   70.25    2.09
  -2   1   1   71.65    2.11
   2  -1   1   74.94    2.09
  -2   1   1   72.75    2.14
   2  -1   1   74.05    2.09
  -2  -1  -1   79.18    2.06
   2   1  -1   71.43    2.11
   2   1  -1   76.73    2.15
   2  -1   1   77.46    2.04
   2   1  -1   74.20    2.07
   2  -1  -1   73.79    2.13
  -2  -1   1   74.02    2.04
  -2   1  -1   73.40    2.08
   2   1   1   74.11    2.03
   2   1   1   73.45    2.08
   2  -1  -1   72.02    2.04
  -2  -1   1   70.82    2.11
   2  -1  -1   69.69    2.04
   2   1   1   74.72    2.03
   2   1   1   75.36    2.07
   3   1  -1   87.33    2.55
   3  -1   1   91.60    2.47
  -3   1   1   87.39    2.60
  -3   1   1   88.76    2.56
   3   1  -1   88.55    2.59
   3  -1   1   86.07    2.52
   3  -1   1   91.47    2.53
   3   1  -1   90.82    2.52
  -3  -1  -1   89.81    2.50
  -3  -1   1   90.04    2.51
  -3  -1   1   91.78    2.60
   3   1   1   88.23    2.47
   3   1   1   88.18    2.54
   3  -1  -1   88.63    2.60
   3  -1  -1   88.70    2.49
   3  -1  -1   87.52    2.52
   3   1   1   90.21    2.54
  -3   1  -1   84.52    2.54
   3   1   1   90.76    2.48
  -4   1   1   39.80    1.34
   4   1  -1   41.11    1.28
   4  -1   1   41.69    1.25
  -4  -1  -1   39.52    1.25
   4  -1   1   39.84    1.19
   4   1  -1   39.11    1.32
   4   1  -1   39.59    1.29
   4  -1   1   39.75    1.24
  -4   1   1   39.28    1.31
   4  -1   1   39.61    1.32
   4  -1  -1   40.77    1.32
  -4  -1   1   39.64    1.35
   4   1   1   41.23    1.30
   4  -1  -1   40.17    1.24
   4   1   1   41.73    1.22
  -4  -1   1   39.40    1.28
   4   1   1   41.35    1.34
   4   1   1   41.23    1.22
  -4   1  -1   42.22    1.34
   4  -1  -1   40.35    1.36
  -5   1   1   15.50    0.71
  -5   1   1   13.80    0.67
   5   1  -1   14.26    0.67
   5   1  -1   15.61    0.65
   5  -1   1   16.00    0.57
   5  -1   1   15.84    0.70
   5   1  -1   15.06    0.67
   5  -1   1   14.28    0.59
  -5  -1  -1   14.67    0.62
   5  -1   1   15.52    0.60
  -5  -1   1   16.10    0.65
  -5   1  -1   14.53    0.67
   5  -1  -1   15.28    0.69
   5   1   1   15.38    0.56
   5  -1  -1   15.23    0.60
   5   1   1   15.80    0.56
   5  -1  -1   15.30    0.69
   5   1   1   14.38    0.63
   6   1  -1   32.04    1.16
   6   1  -1   32.18    1.18
   6  -1   1   32.40    1.08
   6  -1   1   30.83    1.22
   6   1  -1   31.84    1.21
  -6   1   1   32.37    1.21
  -6  -1  -1   31.47    1.14
  -6   1  -1   30.60    1.19
  -6  -1   1   31.29    1.15
   6   1   1   34.07    1.04
   6  -1  -1   32.71    1.21
   6   1   1   30.85    1.03
   6   1   1   32.66    1.24
   6   1   1   32.32    1.14
   6  -1  -1   31.21    1.19
   6  -1  -1   32.63    1.10
   7   1  -1    0.24    0.22
  -7   1   1    0.31    0.22
   7  -1   1    0.58    0.18
   7  -1   1    0.29    0.27
   7   1  -1    0.26    0.25
   7   1  -1    0.91    0.24
  -7  -1  -1    0.67    0.23
  -7  -1   1    0.20    0.22
   7  -1  -1    0.42    0.21
   7   1   1    0.32    0.20
   7   1   1    0.67    0.14
   7   1   1    0.85    0.31
  -7   1  -1    0.73    0.25
   7  -1  -1   -0.01    0.21
   8  -1   1   31.22    1.10
   8   1  -1   31.05    1.36
   8  -1   1   34.51    1.43
   8   1  -1   35.35    1.28
  -8   1   1   33.02    1.37
  -8   1  -1   36.20    1.39
   8  -1  -1   32.03    1.28
   8  -1  -1   31.68    1.36
   8   1   1   31.91    1.38
   9   1  -1    0.28    0.34
   9  -1   1    0.41    0.40
  -9   1   1    0.60    0.37
   9   1  -1    0.59    0.29
  -9   1  -1    0.77    0.38
   9   1   1    0.66    0.41
   9  -1  -1    0.48    0.28
   9  -1  -1    0.40    0.39
  10   1  -1    6.74    0.51
  10   1  -1    7.21    0.74
  10  -1   1    6.77    0.76
  10   1   1    6.97    0.72
  10  -1  -1    5.94    0.54
  10  -1  -1    5.36    0.70
   0  -2   1  859.69   22.49
   0   2  -1  877.20   22.59
   0  -2   1  779.70   22.11
   0   2   1  878.30   22.39
   0   2   1  824.33   22.71
   0  -2   1  794.18   22.53
   0  -2  -1  806.17   22.20
   0   2  -1  850.51   22.56
   0   2   1  864.28   22.43
  -1   2   1   61.65    1.78
  -1   2   1   60.88    1.81
  -1  -2  -1   62.10    1.76
   1  -2   1   63.69    1.80
  -1   2   1   63.38    1.75
   1   2  -1   61.16    1.82
   1  -2   1   63.50    1.76
  -1  -2   1   60.33    1.74
   1  -2  -1   62.87    1.74
  -1   2  -1   65.40    1.81
   1   2   1   62.15    1.75
  -1  -2   1   61.51    1.71
   1   2   1   61.99    1.76
  -1   2  -1   61.33    1.72
   1  -2  -1   62.11    1.82
   1   2   1   61.34    1.79
   1   2   1   63.21    1.70
  -1   2  -1   61.14    1.77
  -1  -2   1   62.82    1.81
  -2   2   1   38.98    1.22
   2   2  -1   36.55    1.20
   2   2  -1   37.54    1.19
  -2  -2  -1   40.28    1.08
   2  -2   1   38.69    1.18
   2  -2   1   39.19    1.18
  -2   2   1   38.54    1.19
   2   2   1   41.76    1.16
   2  -2  -1   40.38    1.20
  -2  -2   1   39.39    1.25
  -2  -2   1   39.98    1.21
  -2   2  -1   39.49    1.23
   2   2   1   39.81    1.17
  -2  -2   1   42.08    1.15
   2   2   1   39.93    1.24
   2  -2  -1   39.96    1.17
   2  -2  -1   39.85    1.27
  -3   2   1   63.78    1.97
   3   2  -1   62.63    1.92
  -3   2   1   67.28    1.95
   3  -2   1   67.39    1.92
   3  -2   1   66.34    1.78
   3  -2   1   61.81    1.92
  -3  -2  -1   65.44    1.82
   3  -2   1   62.55    1.90
   3   2  -1   63.28    1.95
  -3  -2   1   63.42    1.80
   3  -2  -1   63.15    1.79
   3   2   1   60.95    1.87
  -3   2  -1   63.82    1.90
   3  -2  -1   64.35    1.87
  -3  -2   1   63.60    1.92
  -3  -2   1   61.50    1.87
   3   2   1   60.90    1.80
   3   2   1   66.38    1.80
   3  -2  -1   62.99    1.93
   3   2   1   62.78    1.89
   4   2  -1   19.56    0.78
  -4   2   1   19.05    0.79
  -4   2   1   20.90    0.82
   4  -2   1   21.34    0.63
   4   2  -1   19.85    0.77
   4   2  -1   19.53    0.77
   4  -2   1   20.04    0.80
   4  -2   1   20.70    0.74
  -4  -2  -1   21.00    0.70
   4  -2  -1   21.75    0.84
   4   2   1   21.26    0.70
  -4  -2   1   21.17    0.83
  -4   2  -1   20.45    0.81
   4  -2  -1   21.28    0.70
   4  -2  -1   21.42    0.81
   4   2   1   20.61    0.80
   4   2   1   20.98    0.81
  -4  -2   1   20.48    0.72
   4   2   1   22.04    0.69
   5  -2   1   53.79    1.54
   5   2  -1   52.75    1.71
  -5  -2  -1   57.29    1.64
   5   2  -1   49.46    1.71
  -5   2   1   52.62    1.75
   5  -2   1   54.51    1.67
   5   2  -1   51.71    1.71
  -5  -2   1   53.77    1.63
   5  -2  -1   51.65    1.75
  -5   2  -1   52.25    1.74
   5   2   1   54.47    1.57
   5  -2  -1   53.15    1.59
   5   2   1   54.85    1.71
   5   2   1   52.00    1.72
   5   2   1   50.87    1.57
   5  -2  -1   54.07    1.73
  -6   2   1   16.60    0.80
   6   2  -1   17.16    0.77
   6   2  -1   15.76    0.77
   6  -2   1   17.86    0.71
   6  -2   1   17.33    0.81
   6   2  -1   15.95    0.74
  -6  -2  -1   16.45    0.69
   6   2   1   16.47    0.61
   6   2   1   15.11    0.74
   6  -2  -1   17.68    0.80
  -6   2  -1   16.21    0.78
   6   2   1   17.00    0.81
   6  -2  -1   16.24    0.79
   6   2   1   18.30    0.62
  -6  -2   1   16.41    0.70
   7   2  -1    5.95    0.47
   7  -2   1    5.84    0.39
   7   2  -1    5.31    0.44
   7   2  -1    5.23    0.49
  -7   2   1    5.71    0.53
   7  -2   1    5.95    0.53
   7  -2  -1    5.92    0.50
   7   2   1    5.01    0.49
   7  -2  -1    5.93    0.52
   7   2   1    6.21    0.47
   7   2   1    5.39    0.29
  -7   2  -1    5.45    0.51
   8   2  -1    7.00    0.57
   8   2  -1    7.34    0.54
  -8   2   1    6.83    0.61
   8  -2   1    5.98    0.41
   8  -2   1    6.07    0.60
   8   2  -1    7.24    0.61
   8  -2  -1    7.03    0.57
   8  -2  -1    7.35    0.61
  -8   2  -1    6.46    0.57
   8   2   1    6.30    0.61
   9   2  -1    3.53    0.40
   9  -2   1    4.09    0.59
   9   2  -1    3.61    0.52
   9  -2   1    3.98    0.32
  -9   2   1    4.85    0.59
   9  -2  -1    3.85    0.48
  -9   2  -1    3.75    0.54
   9  -2  -1    4.27    0.57
   9   2   1    4.26    0.55
  10   2  -1   -0.29    0.25
 -10   2   1    0.10    0.42
  10  -2   1   -0.04    0.41
  10  -2  -1    0.11    0.39
  10  -2  -1   -0.56    0.30
 -10   2  -1    0.31    0.44
  10   2   1   -0.04    0.40
   0   3   1    0.01    0.07
   0   3  -1   -0.08    0.05
   0  -3  -1    0.00    0.07
   0  -3  -1   -0.01    0.06
   0   3  -1    0.08    0.07
   0   3   1   -0.08    0.05
   0   3   1   -0.03    0.06
   0  -3   1    0.03    0.06
   0  -3   1    0.06    0.06
   0   3  -1    0.04    0.05
  -1   3   1   64.07    1.88
   1   3  -1   62.57    1.87
   1  -3   1   63.46    1.81
   1  -3   1   62.65    1.86
  -1   3   1   60.56    1.81
  -1  -3  -1   63.49    1.80
  -1   3   1   62.63    1.78
   1   3  -1   63.28    1.83
   1  -3  -1   62.74    1.92
   1   3   1   61.71    1.89
  -1  -3   1   65.79    1.79
   1   3   1   65.49    1.77
   1  -3  -1   65.50    1.84
  -1  -3   1   68.82    1.93
  -1   3  -1   65.70    1.81
   1   3   1   64.81    1.87
  -1   3  -1   65.27    1.93
  -1   3  -1   63.07    1.85
  -1  -3   1   62.11    1.84
  -2   3   1   23.59    0.83
   2   3  -1   23.40    0.85
   2  -3   1   25.58    0.85
  -2   3   1   25.40    0.88
   2   3  -1   22.76    0.83
  -2  -3  -1   24.65    0.83
   2  -3   1   25.80    0.84
   2  -3  -1   26.07    0.91
  -2   3  -1   25.37    0.89
  -2  -3   1   25.55    0.75
   2  -3  -1   28.11    0.80
  -2  -3   1   25.51    0.89
   2   3   1   24.17    0.88
   2   3   1   26.46    0.82
   2   3   1   24.95    0.82
  -2  -3   1   25.16    0.85
   2  -3  -1   26.53    0.85
   3   3  -1   19.99    0.76
   3   3  -1   21.26    0.78
  -3  -3  -1   21.17    0.78
  -3  -3  -1   20.18    0.61
  -3   3   1   19.37    0.77
  -3   3   1   19.81    0.79
   3  -3   1   20.12    0.77
   3  -3   1   21.58    0.76
   3   3   1   21.72    0.80
   3  -3  -1   21.98    0.78
   3   3   1   20.85    0.71
  -3  -3   1   21.98    0.67
   3  -3  -1   21.59    0.68
   3   3   1   21.89    0.71
  -3  -3   1   20.44    0.80
  -3   3  -1   21.02    0.81
   3  -3  -1   20.40    0.82
  -3   3  -1   21.80    0.80
  -3  -3   1   21.03    0.78
  -4  -3  -1  108.33    2.93
   4  -3   1  101.26    3.08
   4   3  -1  104.89    3.11
   4   3  -1  108.01    3.12
  -4  -3  -1  106.73    3.10
  -4   3   1   98.56    3.10
   4  -3   1  107.71    3.10
   4  -3   1  105.58    3.09
  -4   3   1  109.24    3.18
   4   3   1  101.29    3.13
   4   3   1  103.06    3.02
  -4   3  -1  107.08    3.17
   4   3   1  112.42    3.02
  -4   3  -1  101.52    3.14
  -4  -3   1  110.25    3.19
   4  -3  -1  107.47    3.20
  -4  -3   1  107.17    3.11
  -4  -3   1  110.96    2.99
   4  -3  -1  106.61    3.10
   4  -3  -1  108.18    2.97
  -5   3   1   18.51    0.81
   5  -3   1   17.96    0.74
  -5  -3  -1   20.42    0.66
   5   3  -1   16.87    0.75
   5  -3   1   16.02    0.77
   5   3  -1   16.28    0.77
   5  -3  -1   18.39    0.63
  -5  -3   1   18.78    0.81
   5  -3  -1   18.18    0.80
   5   3   1   17.53    0.78
   5   3   1   18.38    0.65
   5   3   1   18.42    0.65
  -5  -3   1   18.39    0.67
  -5   3  -1   17.94    0.81
   5  -3  -1   19.51    0.83
   6   3  -1   19.50    0.83
   6   3  -1   19.19    0.87
   6  -3   1   17.92    0.88
  -6   3   1   19.94    0.91
   6  -3   1   19.55    0.80
   6   3   1   18.34    0.83
  -6   3  -1   17.95    0.87
   6   3   1   18.15    0.85
   6   3   1   17.26    0.65
  -6  -3   1   19.97    0.89
   6  -3  -1   18.43    0.86
   6  -3  -1   18.47    0.85
   6   3   1   19.54    0.66
   7   3  -1   64.99    2.15
  -7   3   1   70.66    2.31
   7  -3   1   65.37    2.11
   7  -3   1   64.77    2.25
   7   3  -1   67.85    2.23
   7   3   1   67.36    1.92
   7   3   1   69.43    2.22
   7  -3  -1   66.08    2.23
  -7   3  -1   65.48    2.26
   7   3   1   65.51    2.24
  -7  -3   1   63.68    2.22
   7  -3  -1   66.17    2.22
   8   3  -1    4.95    0.52
   8  -3   1    5.04    0.54
  -8   3   1    5.04    0.57
   8   3  -1    5.49    0.47
   8  -3   1    6.22    0.44
  -8  -3   1    5.32    0.55
   8  -3  -1    4.74    0.49
   8  -3  -1    4.60    0.52
  -8   3  -1    5.28    0.58
   8   3   1    5.57    0.52
  -9   3   1    9.72    0.81
  -9  -3  -1    9.75    0.78
   9   3  -1    8.35    0.56
   9  -3   1    9.52    0.52
   9  -3   1    8.27    0.75
  -9   3  -1    9.22    0.75
   9  -3  -1    9.30    0.80
  -9  -3   1   10.46    0.78
   9  -3  -1    9.08    0.67
  10   3  -1    5.87    0.45
  10  -3   1    5.37    0.71
 -10  -3  -1    6.15    0.70
 -10   3   1    4.42    0.69
 -10   3  -1    6.20    0.70
  10  -3  -1    4.81    0.56
  10  -3  -1    5.18    0.74
 -10  -3   1    6.21    0.72
   0   4   1    9.98    0.39
   0  -4  -1   10.71    0.43
   0  -4   1   12.67    0.46
   0   4  -1   10.34    0.49
   0  -4   1   10.03    0.46
   0  -4  -1    8.98    0.44
   0   4  -1   10.35    0.39
   0   4   1    9.73    0.46
   0   4   1   10.45    0.43
   0   4  -1   10.53    0.42
  -1   4   1   44.77    1.47
  -1   4   1   47.92    1.41
  -1  -4  -1   47.41    1.45
   1  -4   1   45.96    1.41
  -1   4   1   45.62    1.38
   1   4  -1   45.81    1.44
   1   4  -1   48.69    1.32
  -1  -4  -1   46.70    1.41
   1   4  -1   44.55    1.47
   1  -4   1   46.25    1.47
   1   4   1   44.51    1.42
  -1   4  -1   46.33    1.48
   1   4   1   46.42    1.29
  -1   4  -1   45.25    1.35
  -1  -4   1   46.32    1.40
   1  -4  -1   43.79    1.38
  -1  -4   1   49.24    1.48
  -1   4  -1   48.76    1.41
   1  -4  -1   45.79    1.47
   1   4   1   45.38    1.44
  -2   4   1   29.53    0.99
  -2  -4  -1   29.82    0.98
   2   4  -1   28.21    1.00
  -2   4   1   28.22    1.02
   2  -4   1   28.40    0.98
   2  -4   1   27.26    0.99
   2   4  -1   27.95    1.00
  -2   4   1   29.07    0.89
  -2  -4   1   29.69    1.00
  -2   4  -1   31.83    1.08
   2  -4  -1   29.73    1.00
   2   4   1   33.71    1.00
  -2   4  -1   30.59    1.02
   2   4   1   30.38    1.05
  -2  -4   1   30.90    0.87
   2   4   1   29.25    0.99
  -2   4  -1   29.58    0.88
   2  -4  -1   27.81    1.06
  -2  -4   1   29.51    1.05
   3  -4   1   46.96    1.50
   3   4  -1   46.60    1.53
   3  -4   1   47.39    1.51
   3   4  -1   45.16    1.51
  -3   4   1   47.18    1.52
  -3   4   1   46.87    1.56
  -3  -4  -1   46.35    1.49
  -3  -4   1   45.35    1.51
   3   4   1   47.92    1.48
  -3  -4   1   49.53    1.35
  -3   4  -1   47.03    1.57
  -3  -4   1   47.66    1.57
   3   4   1   46.02    1.56
  -3   4  -1   47.98    1.55
   3  -4  -1   49.76    1.61
   3  -4  -1   46.96    1.51
   3  -4  -1   50.14    1.41
   3   4   1   48.21    1.46
   4   4  -1   25.28    0.96
  -4  -4  -1   23.59    0.95
  -4   4   1   24.17    0.97
   4  -4   1   25.61    0.98
   4  -4   1   26.21    0.96
   4   4  -1   24.46    0.98
  -4   4   1   26.68    1.02
  -4  -4  -1   24.68    0.74
  -4  -4   1   28.08    0.81
   4  -4  -1   23.52    0.96
   4   4   1   26.70    0.88
   4  -4  -1   26.61    1.04
  -4   4  -1   26.00    1.02
  -4   4  -1   24.43    0.99
   4   4   1   25.39    0.88
  -4  -4   1   25.24    0.97
   4   4   1   24.47    0.99
  -4  -4   1   25.60    1.02
   4  -4  -1   28.02    0.82
  -5  -4  -1   16.81    0.80
   5  -4   1   16.84    0.80
  -5   4   1   17.18    0.82
   5   4  -1   16.24    0.74
   5  -4   1   17.14    0.75
   5   4  -1   17.00    0.79
   5   4   1   16.61    0.79
   5  -4  -1   17.07    0.79
   5  -4  -1   16.63    0.81
  -5   4  -1   17.25    0.82
   5   4   1   18.66    0.65
   5   4   1   17.25    0.65
  -5  -4   1   17.31    0.79
   6   4  -1   14.26    0.74
   6  -4   1   14.04    0.77
   6   4  -1   14.37    0.70
   6  -4   1   14.88    0.69
  -6  -4  -1   15.32    0.78
  -6   4   1   12.74    0.74
  -6  -4   1   13.92    0.75
  -6   4  -1   13.99    0.77
   6   4   1   14.69    0.57
   6  -4  -1   15.55    0.77
   6  -4  -1   15.21    0.77
   6   4   1   15.00    0.77
   7  -4   1    0.71    0.30
   7   4  -1    1.47    0.31
   7   4  -1    0.68    0.25
  -7   4   1    0.63    0.31
  -7  -4  -1    0.74    0.29
   7  -4   1    1.04    0.27
  -7  -4   1    0.67    0.27
   7  -4  -1    1.00    0.33
  -7   4  -1    0.67    0.33
   7   4   1    0.69    0.26
   7  -4  -1    0.62    0.28
   7   4   1    1.10    0.15
  -8  -4  -1    0.81    0.34
   8  -4   1    1.18    0.39
   8  -4   1    0.73    0.27
  -8   4   1    0.36    0.34
   8   4  -1    1.00    0.33
   8   4  -1    0.88    0.28
  -8  -4   1    0.96    0.38
   8  -4  -1    0.89    0.32
  -8   4  -1    0.68    0.35
   8   4   1    1.31    0.33
   8  -4  -1    1.11    0.36
   9   4  -1    0.36    0.33
   9   4  -1    0.35    0.26
   9  -4   1    0.09    0.24
  -9   4   1    0.37    0.44
  -9  -4  -1    0.37    0.34
   9  -4   1    0.45    0.42
   9  -4  -1    0.32    0.43
  -9  -4   1    1.23    0.38
   9  -4  -1    0.37    0.33
  -9   4  -1    0.42    0.40
  10   4  -1    2.32    0.31
 -10   4   1    2.55    0.62
  10  -4   1    2.82    0.56
 -10  -4  -1    2.05    0.53
  10  -4   1    2.07    0.29
 -10   4  -1    0.94    0.53
  10  -4  -1    2.24    0.44
 -10  -4   1    2.56    0.53
  10  -4  -1    2.41    0.62
   0   5   1   12.43    0.47
   0   5   1   12.63    0.57
   0  -5  -1   13.58    0.58
   0   5  -1   12.69    0.48
   0  -5  -1   11.71    0.51
   0   5  -1   13.24    0.60
   0  -5   1   12.60    0.52
   0   5   1   11.96    0.52
   0  -5   1   12.26    0.57
   0   5  -1   12.51    0.52
   1   5  -1   66.32    1.84
   1   5  -1   69.61    2.07
  -1   5   1   65.45    1.93
  -1  -5  -1   65.05    1.96
   1   5  -1   61.94    1.98
  -1   5   1   62.92    1.93
  -1   5   1   68.91    2.06
  -1  -5  -1   66.21    2.02
   1  -5   1   64.28    2.04
   1   5   1   63.42    1.99
   1   5   1   65.08    1.99
  -1   5  -1   66.16    1.90
  -1   5  -1   65.49    1.93
   1   5   1   67.97    1.82
   1  -5  -1   63.14    2.03
  -1  -5   1   65.71    1.95
   1  -5  -1   63.89    1.93
  -1   5  -1   63.91    2.05
  -1  -5   1   66.55    2.04
   2  -5   1    1.30    0.21
  -2   5   1    1.27    0.19
  -2   5   1    1.38    0.15
  -2  -5  -1    1.60    0.21
  -2   5   1    0.79    0.19
  -2  -5  -1    1.47    0.21
   2   5  -1    1.19    0.22
   2   5  -1    1.52    0.11
   2  -5   1    1.00    0.17
   2   5  -1    1.54    0.21
  -2   5  -1    1.59    0.23
  -2   5  -1    1.43    0.19
   2  -5  -1    1.24    0.18
  -2  -5   1    1.13    0.18
   2   5   1    1.09    0.17
   2   5   1    0.98    0.17
  -2   5  -1    1.15    0.13
   2  -5  -1    1.26    0.21
  -2  -5   1    1.11    0.21
   2   5   1    1.25    0.19
   3   5  -1    8.80    0.49
  -3   5   1    7.96    0.47
   3   5  -1    7.83    0.49
   3  -5   1    8.58    0.48
  -3   5   1    9.51    0.53
  -3  -5  -1    8.00    0.46
   3  -5   1    8.09    0.48
  -3  -5   1    8.25    0.48
   3  -5  -1    9.86    0.38
   3  -5  -1    8.39    0.51
   3   5   1    9.59    0.45
  -3  -5   1    9.00    0.52
   3   5   1    7.01    0.46
  -3   5  -1    8.56    0.49
   3   5   1    8.56    0.43
  -3   5  -1    9.85    0.53
   3  -5  -1    8.37    0.47
   4   5  -1   11.88    0.63
   4   5  -1   11.98    0.62
  -4   5   1   13.56    0.70
   4  -5   1   13.08    0.65
  -4   5   1   13.95    0.68
   4  -5   1   13.34    0.65
  -4  -5  -1   12.85    0.64
   4   5   1   13.71    0.58
   4   5   1   12.18    0.66
   4  -5  -1   12.13    0.68
   4   5   1   14.14    0.58
   4  -5  -1   13.68    0.67
  -4   5  -1   12.82    0.66
  -4  -5   1   14.70    0.67
   4  -5  -1   14.29    0.49
   5   5  -1   31.42    1.20
   5  -5   1   32.63    1.22
   5  -5   1   30.26    1.23
  -5  -5  -1   31.65    1.24
  -5   5   1   32.62    1.27
   5   5  -1   33.08    1.26
   5  -5  -1   32.53    1.23
   5  -5  -1   31.88    1.30
  -5  -5   1   33.54    1.26
   5   5   1   32.23    1.10
   5   5   1   33.39    1.28
  -5   5  -1   32.84    1.29
  -6   5   1   17.24    0.90
   6   5  -1   17.96    0.87
   6  -5   1   17.31    0.81
  -6  -5  -1   15.04    0.82
   6  -5   1   15.29    0.84
   6   5  -1   17.35    0.80
   6  -5  -1   17.46    0.87
   6   5   1   16.87    0.86
   6  -5  -1   17.67    0.89
  -6  -5   1   16.53    0.85
  -6   5  -1   19.27    0.93
   6   5   1   17.91    0.68
   7   5  -1   70.97    2.38
   7  -5   1   74.81    2.53
  -7   5   1   75.13    2.58
   7   5  -1   75.55    2.53
  -7  -5  -1   74.36    2.53
   7  -5   1   77.13    2.43
   7  -5  -1   75.13    2.50
  -7  -5   1   73.33    2.47
  -7   5  -1   72.93    2.53
   7   5   1   70.85    2.46
   7  -5  -1   75.45    2.49
   8  -5   1    0.49    0.35
   8  -5   1    0.51    0.28
   8   5  -1    0.47    0.35
   8   5  -1    1.02    0.30
  -8  -5  -1    0.75    0.35
  -8   5   1    0.27    0.37
   8   5   1    0.66    0.33
  -8  -5   1    0.57    0.30
   8  -5  -1    0.93    0.36
  -8   5  -1    1.23    0.40
   8  -5  -1    0.73    0.35
  -9   5   1   10.21    0.87
   9  -5   1    8.95    0.60
   9   5  -1    8.48    0.55
  -9  -5  -1    9.62    0.79
   9  -5   1    8.74    0.78
   9   5  -1    7.89    0.75
   9   5   1    9.70    0.79
   9  -5  -1    8.92    0.81
   9  -5  -1   10.45    0.77
  -9  -5   1    9.21    0.77
  -9   5  -1    8.86    0.80
  10  -5   1    3.67    0.40
  10   5  -1    3.29    0.33
 -10  -5  -1    3.48    0.64
  10  -5   1    4.36    0.70
 -10   5   1    4.67    0.72
 -10  -5   1    2.98    0.56
  10  -5  -1    3.15    0.52
 -10   5  -1    3.61    0.66
  10  -5  -1    4.04    0.63
   0  -6  -1    0.91    0.17
   0  -6  -1    0.94    0.19
   0   6  -1    0.73    0.20
   0   6   1    1.11    0.20
   0   6  -1    1.06    0.18
   0   6   1    0.94    0.15
   0  -6   1    1.00    0.18
   0   6   1    1.10    0.19
   0  -6   1    0.96    0.21
   0   6  -1    1.27    0.16
  -1   6   1    3.69    0.27
   1   6  -1    4.49    0.39
  -1   6   1    3.50    0.29
   1  -6   1    3.46    0.30
   1   6  -1    4.07    0.22
   1   6  -1    3.56    0.31
   1  -6   1    3.83    0.35
  -1  -6  -1    3.71    0.34
  -1   6   1    3.27    0.33
   1   6   1    3.70    0.21
  -1  -6   1    3.33    0.33
   1   6   1    3.46    0.31
  -1  -6   1    3.80    0.32
  -1   6  -1    3.71    0.26
   1  -6  -1    3.34    0.33
   1   6   1    3.58    0.31
  -1   6  -1    3.72    0.28
  -1   6  -1    3.67    0.36
   1  -6  -1    3.03    0.27
   2  -6   1   38.87    1.39
  -2   6   1   38.27    1.31
   2   6  -1   40.68    1.40
  -2  -6  -1   36.09    1.34
   2   6  -1   39.08    1.36
  -2   6   1   40.12    1.23
  -2  -6  -1   39.52    1.33
  -2   6   1   39.21    1.41
   2  -6   1   38.28    1.33
   2   6  -1   40.35    1.12
   2   6   1   38.73    1.31
   2  -6  -1   38.08    1.37
  -2   6  -1   37.88    1.16
   2   6   1   38.28    1.34
  -2   6  -1   38.58    1.30
  -2  -6   1   38.17    1.30
   2  -6  -1   36.70    1.28
  -2   6  -1   39.01    1.39
  -2  -6   1   37.05    1.36
  -3  -6  -1    2.25    0.28
   3   6  -1    2.54    0.31
   3  -6   1    3.02    0.34
  -3   6   1    3.01    0.31
  -3   6   1    2.16    0.32
   3   6  -1    2.65    0.30
   3  -6   1    2.66    0.31
  -3   6  -1    3.06    0.35
   3  -6  -1    3.13    0.31
   3   6   1    2.30    0.31
  -3  -6   1    2.81    0.32
   3  -6  -1    2.53    0.33
  -3   6  -1    3.61    0.34
  -3  -6   1    3.55    0.33
   4  -6   1   40.80    1.48
   4   6  -1   40.92    1.51
  -4  -6  -1   40.23    1.46
  -4   6   1   43.31    1.57
   4  -6   1   40.41    1.46
  -4   6   1   42.05    1.49
   4   6  -1   41.33    1.47
   4   6   1   41.12    1.52
   4  -6  -1   41.59    1.48
  -4  -6   1   44.49    1.50
  -4   6  -1   43.55    1.53
   4  -6  -1   42.35    1.57
   5   6  -1   12.42    0.71
   5  -6   1   11.82    0.69
   5   6  -1   12.50    0.67
  -5  -6  -1   13.63    0.72
   5  -6   1   12.24    0.69
  -5   6   1   13.39    0.75
   5   6   1   14.03    0.62
   5   6   1   14.37    0.76
  -5   6  -1   13.74    0.76
   5  -6  -1   13.88    0.74
   5  -6  -1   13.41    0.77
  -5  -6   1   13.56    0.73
  -6   6   1    6.32    0.57
   6  -6   1    7.93    0.58
  -6  -6  -1    7.27    0.60
   6   6  -1    7.29    0.57
   6   6  -1    7.16    0.52
   6  -6   1    7.44    0.58
  -6  -6   1    7.26    0.57
  -6   6  -1    5.45    0.53
   6   6   1    7.69    0.61
   6  -6  -1    7.23    0.61
   6  -6  -1    7.46    0.58
   7  -6   1   18.97    0.98
   7   6  -1   19.19    1.02
  -7  -6  -1   15.66    0.94
  -7   6   1   16.55    0.99
   7   6  -1   17.70    0.84
   7  -6   1   18.96    0.90
   7   6   1   18.27    0.97
   7   6   1   18.18    0.65
  -7   6  -1   16.78    0.98
   7  -6  -1   19.55    0.98
  -7  -6   1   16.83    0.94
   7  -6  -1   17.27    0.96
   8  -6   1    4.90    0.59
   8  -6   1    4.73    0.50
  -8   6   1    4.01    0.61
   8   6  -1    4.43    0.57
  -8  -6  -1    3.67    0.52
   8   6  -1    5.39    0.48
   8  -6  -1    4.35    0.59
  -8   6  -1    5.22    0.62
   8  -6  -1    5.26    0.58
   8   6   1    5.06    0.58
  -8  -6   1    3.57    0.56
   9  -6   1    3.79    0.64
   9  -6   1    5.19    0.52
  -9  -6  -1    5.33    0.64
   9   6  -1    5.56    0.64
   9   6  -1    4.93    0.45
  -9   6   1    5.45    0.74
  -9  -6   1    4.25    0.59
   9  -6  -1    6.63    0.73
   9   6   1    5.57    0.65
   9  -6  -1    4.39    0.60
  -9   6  -1    4.57    0.70
   0   7   1   13.74    0.64
   0  -7   1   12.93    0.63
   0  -7  -1   14.71    0.66
   0   7  -1   13.70    0.63
   0  -7  -1   14.13    0.70
   0   7  -1   13.82    0.57
   0   7   1   14.77    0.57
   0  -7   1   14.19    0.71
   0   7  -1   15.14    0.73
   0   7   1   12.17    0.67
   1  -7   1   10.16    0.55
   1  -7   1   11.10    0.61
  -1  -7  -1   10.51    0.54
  -1   7   1   10.58    0.51
   1   7  -1   11.56    0.44
  -1   7   1    9.97    0.59
  -1   7   1   11.23    0.52
   1   7  -1    9.09    0.58
   1   7  -1   10.29    0.55
  -1  -7  -1    9.95    0.59
   1   7   1   12.49    0.60
   1   7   1   10.76    0.43
  -1  -7   1   11.74    0.58
  -1   7  -1   10.64    0.65
  -1   7  -1   11.41    0.53
  -1   7  -1   11.66    0.54
   1   7   1   10.98    0.59
  -1  -7   1   11.33    0.63
   1  -7  -1   11.18    0.62
   1  -7  -1   11.29    0.57
   2  -7   1   18.60    0.81
   2  -7   1   17.73    0.84
   2   7  -1   18.77    0.85
   2   7  -1   17.80    0.82
  -2  -7  -1   18.15    0.80
  -2   7   1   19.25    0.72
  -2   7   1   19.18    0.88
  -2   7   1   19.41    0.79
   2  -7  -1   17.71    0.85
  -2  -7   1   18.97    0.86
  -2   7  -1   19.19    0.79
   2  -7  -1   17.97    0.79
   2   7   1   17.48    0.78
  -2  -7   1   18.46    0.79
  -2   7  -1   19.03    0.68
   2   7   1   18.51    0.84
  -3   7   1   25.58    1.08
   3   7  -1   22.14    1.00
   3  -7   1   24.91    1.04
  -3  -7  -1   24.55    0.99
   3  -7   1   24.25    1.00
   3   7  -1   23.76    1.02
  -3   7   1   24.24    0.99
   3  -7  -1   23.51    1.06
  -3   7  -1   26.38    1.11
  -3  -7   1   23.09    0.98
   3   7   1   26.85    1.07
   3   7   1   24.62    0.97
   3  -7  -1   24.69    1.00
  -3   7  -1   25.37    1.02
  -4   7   1   96.09    2.93
   4   7  -1   83.23    2.78
  -4   7   1   88.30    2.80
   4  -7   1   85.90    2.81
  -4  -7  -1   89.66    2.76
   4  -7   1   85.29    2.75
   4   7  -1   90.62    2.83
   4  -7  -1   92.36    2.82
   4   7   1   94.05    2.92
   4   7   1   88.73    2.77
  -4   7  -1   93.27    2.89
   4  -7  -1   89.11    2.94
  -4  -7   1   91.19    2.83
   5  -7   1   69.28    2.38
   5  -7   1   70.86    2.38
   5   7  -1   72.15    2.43
  -5  -7  -1   74.70    2.39
  -5   7   1   71.12    2.42
   5   7  -1   71.22    2.35
   5  -7  -1   72.12    2.38
   5   7   1   68.15    2.41
  -5  -7   1   75.99    2.39
   5   7   1   71.72    2.24
   5  -7  -1   71.09    2.46
  -5   7  -1   73.42    2.44
   6   7  -1    4.79    0.45
   6  -7   1    4.34    0.50
   6   7  -1    4.34    0.54
  -6  -7  -1    5.46    0.51
   6  -7   1    4.53    0.49
  -6   7   1    4.55    0.52
  -6   7  -1    4.68    0.53
  -6  -7   1    4.01    0.46
   6  -7  -1    5.53    0.57
   6  -7  -1    5.54    0.51
   6   7   1    4.81    0.53
   6   7   1    4.69    0.36
  -7  -7  -1   12.95    0.83
   7   7  -1   12.06    0.70
   7  -7   1   12.87    0.78
  -7   7   1   13.17    0.87
   7   7  -1   11.88    0.82
   7  -7   1   12.06    0.85
   7  -7  -1   13.87    0.87
  -7   7  -1   13.43    0.88
   7  -7  -1   13.63    0.85
  -7  -7   1   14.29    0.87
   7   7   1   13.35    0.56
   7   7   1   14.04    0.91
   8   7  -1    7.65    0.55
  -8   7   1    7.52    0.77
   8  -7   1    6.15    0.60
  -8  -7  -1    6.38    0.67
   8  -7   1    7.46    0.75
   8   7  -1    6.56    0.70
  -8   7  -1    7.07    0.73
   8  -7  -1    6.51    0.70
   8  -7  -1    6.29    0.68
  -8  -7   1    5.58    0.63
   8   7   1    7.74    0.72
   9   7  -1   17.56    0.82
  -9   7   1   17.74    1.17
   9  -7   1   16.00    1.13
  -9  -7  -1   17.91    1.14
   9   7  -1   17.37    1.09
   9  -7   1   16.52    0.91
  -9  -7   1   17.91    1.09
  -9   7  -1   18.30    1.19
   9   7   1   16.93    1.08
   9  -7  -1   18.01    1.16
   9  -7  -1   18.00    1.07
   0   8   1    3.49    0.35
   0   8  -1    3.18    0.28
   0  -8  -1    3.00    0.32
   0   8  -1    3.35    0.40
   0  -8   1    2.74    0.36
   0   8   1    3.65    0.27
   0   8   1    2.53    0.34
   0   8  -1    3.37    0.33
   0  -8  -1    3.77    0.41
   0  -8   1    3.03    0.34
  -1   8   1   14.99    0.66
   1   8  -1   14.03    0.71
  -1   8   1   15.07    0.78
  -1   8   1   14.32    0.65
   1   8  -1   12.71    0.73
  -1  -8  -1   14.73    0.70
   1  -8   1   15.27    0.71
   1  -8   1   14.89    0.78
   1  -8  -1   13.85    0.69
  -1  -8   1   15.27    0.80
   1  -8  -1   14.30    0.78
  -1   8  -1   15.10    0.66
  -1   8  -1   14.04    0.78
   1   8   1   15.08    0.72
  -1  -8   1   14.45    0.70
   1   8   1   13.68    0.73
  -1   8  -1   15.00    0.66
   2  -8   1   16.55    0.84
   2   8  -1   17.09    0.85
  -2   8   1   16.77    0.76
  -2  -8  -1   17.17    0.80
  -2   8   1   17.35    0.71
  -2   8   1   16.53    0.86
   2   8  -1   18.04    0.83
   2  -8   1   16.05    0.79
  -2  -8   1   16.11    0.78
   2   8   1   16.14    0.78
  -2   8  -1   15.16    0.84
   2  -8  -1   15.50    0.82
   2   8   1   16.88    0.82
   2  -8  -1   15.98    0.76
  -2   8  -1   17.30    0.77
  -3   8   1   27.77    1.12
  -3   8   1   29.21    1.25
   3  -8   1   27.14    1.14
  -3  -8  -1   25.54    1.10
   3   8  -1   25.99    1.14
   3   8  -1   28.48    1.17
   3  -8   1   29.00    1.20
   3   8   1   27.29    1.14
   3  -8  -1   27.61    1.10
  -3  -8   1   25.68    1.08
   3  -8  -1   27.04    1.19
   3   8   1   26.29    1.07
  -3   8  -1   26.50    1.10
   4  -8   1   31.09    1.28
   4   8  -1   31.75    1.29
  -4  -8  -1   32.13    1.28
   4   8  -1   33.22    1.34
   4  -8   1   32.13    1.33
  -4   8   1   31.95    1.29
  -4   8  -1   33.20    1.32
   4   8   1   32.74    1.34
  -4  -8   1   32.17    1.28
   4  -8  -1   30.76    1.29
   4  -8  -1   33.80    1.39
   4   8   1   32.90    1.23
   5   8  -1    8.33    0.65
  -5   8   1    8.53    0.66
   5  -8   1    9.03    0.67
  -5  -8  -1    8.89    0.64
   5  -8   1   10.27    0.69
   5   8  -1    8.57    0.60
   5   8   1    9.01    0.54
  -5  -8   1   10.58    0.67
   5  -8  -1    9.14    0.68
   5  -8  -1   10.15    0.75
   5   8   1    8.55    0.67
  -5   8  -1   10.82    0.70
   6   8  -1    9.92    0.67
   6  -8   1   10.10    0.74
   6  -8   1   10.62    0.74
   6   8  -1   12.02    0.79
  -6   8   1   10.38    0.77
  -6  -8  -1   11.13    0.73
  -6  -8   1   10.64    0.71
   6   8   1   10.40    0.74
   6  -8  -1   10.34    0.75
  -6   8  -1   10.71    0.76
   6  -8  -1   10.50    0.80
   6   8   1   10.46    0.56
   7  -8   1    9.97    0.82
   7  -8   1    9.66    0.77
   7   8  -1   10.80    0.85
  -7   8   1    9.80    0.81
  -7  -8  -1    9.11    0.74
   7   8  -1    9.77    0.66
  -7   8  -1    9.95    0.79
   7  -8  -1    9.44    0.79
   7  -8  -1    9.09    0.81
   7   8   1   10.46    0.49
  -7  -8   1   10.78    0.82
   7   8   1    8.78    0.80
  -8  -8  -1   -0.29    0.33
   8   8  -1    0.65    0.46
  -8   8   1    0.75    0.44
   8  -8   1    0.32    0.36
   8  -8   1   -0.24    0.40
   8   8  -1   -0.19    0.29
  -8  -8   1    0.33    0.35
  -8   8  -1   -0.14    0.41
   8  -8  -1   -0.05    0.39
   8  -8  -1    0.00    0.42
   8   8   1    0.21    0.41
  -9  -8  -1    3.04    0.60
   9  -8   1    3.02    0.64
   9  -8   1    2.12    0.50
  -9   8   1    2.12    0.59
   9   8  -1    2.38    0.59
  -9  -8   1    3.21    0.59
   9  -8  -1    3.06    0.65
   9   8   1    2.05    0.56
  -9   8  -1    1.37    0.58
   9  -8  -1    1.72    0.50
   0  -9   1   12.92    0.78
   0   9  -1   13.93    0.80
   0   9   1   13.98    0.72
   0  -9  -1   14.96    0.74
   0   9  -1   13.54    0.61
   0   9   1   14.07    0.77
   0  -9   1   14.64    0.73
   0   9  -1   13.83    0.71
   1  -9   1    2.19    0.38
  -1   9   1    1.98    0.35
  -1   9   1    2.19    0.31
   1  -9   1    1.77    0.30
   1   9  -1    1.71    0.31
  -1  -9  -1    2.39    0.31
  -1   9   1    1.76    0.27
   1   9   1    1.98    0.31
  -1   9  -1    2.49    0.31
  -1   9  -1    1.54    0.32
   1  -9  -1    1.89    0.36
  -1   9  -1    1.88    0.29
   1  -9  -1    2.29    0.34
  -1  -9   1    1.73    0.29
   1   9   1    1.31    0.32
  -2   9   1   10.85    0.61
   2  -9   1   10.36    0.64
  -2  -9  -1    9.73    0.61
   2  -9   1    9.62    0.68
   2   9  -1    9.97    0.64
  -2   9   1   10.23    0.69
   2   9  -1    9.28    0.65
   2   9   1   10.53    0.65
   2  -9  -1   10.19    0.63
  -2   9  -1    9.99    0.60
  -2   9  -1    9.71    0.75
   2  -9  -1   10.35    0.68
  -2  -9   1   10.05    0.64
   2   9   1   10.05    0.64
  -3   9   1   35.40    1.34
  -3   9   1   34.49    1.45
  -3  -9  -1   33.28    1.35
   3   9  -1   30.75    1.36
   3  -9   1   34.86    1.36
   3   9  -1   33.84    1.38
   3  -9   1   34.30    1.41
   3  -9  -1   33.69    1.33
  -3  -9   1   34.73    1.35
  -3   9  -1   32.58    1.31
   3   9   1   35.10    1.41
   3   9   1   32.29    1.30
   3  -9  -1   33.48    1.42
  -4  -9  -1   13.17    0.78
   4  -9   1   11.78    0.75
   4  -9   1   12.47    0.79
   4   9  -1   12.36    0.77
  -4   9   1   13.66    0.79
   4   9  -1   11.42    0.79
   4   9   1   12.73    0.69
  -4  -9   1   13.69    0.77
   4  -9  -1   12.99    0.76
  -4   9  -1   12.61    0.76
   4  -9  -1   13.02    0.85
   4   9   1   12.82    0.79
  -5  -9  -1   36.15    1.47
   5   9  -1   33.87    1.49
   5  -9   1   32.23    1.44
   5  -9   1   35.70    1.51
  -5   9   1   37.20    1.51
   5   9  -1   36.04    1.45
   5   9   1   34.96    1.29
   5   9   1   33.66    1.46
   5  -9  -1   33.74    1.50
  -5  -9   1   32.32    1.37
   5  -9  -1   32.10    1.38
  -5   9  -1   32.60    1.43
   6   9  -1   17.64    0.93
   6  -9   1   18.82    1.02
   6  -9   1   16.41    0.97
  -6   9   1   16.03    0.99
   6   9  -1   18.16    1.04
  -6  -9  -1   19.37    1.01
   6   9   1   16.16    0.99
   6   9   1   16.80    0.79
  -6  -9   1   16.65    0.95
   6  -9  -1   18.52    1.00
  -6   9  -1   19.48    1.07
   6  -9  -1   18.71    1.07
   7   9  -1    3.79    0.60
  -7   9   1    5.16    0.68
  -7  -9  -1    4.12    0.60
   7  -9   1    4.17    0.59
   7  -9   1    3.74    0.60
   7   9  -1    4.12    0.51
   7  -9  -1    4.18    0.58
   7   9   1    4.47    0.61
   7   9   1    4.47    0.35
  -7   9  -1    4.17    0.64
   7  -9  -1    4.78    0.64
  -7  -9   1    3.87    0.54
   8   9  -1    3.04    0.56
  -8  -9  -1    2.25    0.54
   8  -9   1    3.06    0.53
   8  -9   1    2.03    0.56
  -8   9   1    2.17    0.60
   8  -9  -1    3.35    0.62
   8  -9  -1    2.15    0.53
  -8   9  -1    2.58    0.62
  -8  -9   1    2.98    0.52
   8   9   1    1.67    0.53
   0 -10  -1    9.28    0.61
   0 -10   1   10.63    0.65
   0  10   1   10.03    0.65
   0  10  -1   10.36    0.72
   0  10  -1    9.81    0.61
   0  10   1   10.00    0.70
   1 -10   1    2.43    0.44
  -1  10   1    2.54    0.34
  -1  10   1    2.42    0.43
   1  10  -1    2.93    0.40
  -1 -10  -1    2.37    0.35
   1  10  -1    2.60    0.45
   1 -10   1    1.89    0.35
   1  10   1    2.60    0.39
  -1  10  -1    2.72    0.31
   1 -10  -1    2.21    0.38
  -1  10  -1    2.12    0.44
  -1 -10   1    1.77    0.33
   1  10   1    2.65    0.40
  -2  10   1   23.18    1.01
   2 -10   1   25.18    1.10
  -2 -10  -1   24.69    1.08
   2  10  -1   23.33    1.07
   2 -10   1   20.40    1.12
   2  10  -1   21.88    1.10
  -2  10   1   23.84    1.17
   2 -10  -1   22.81    1.05
  -2  10  -1   24.55    1.02
   2  10   1   21.19    1.06
   2  10   1   22.67    1.06
  -2 -10   1   22.34    1.04
  -3  10   1   11.52    0.71
  -3 -10  -1   12.45    0.75
   3  10  -1   12.22    0.77
   3 -10   1   11.26    0.78
  -3  10   1   12.33    0.83
   3 -10   1   11.59    0.74
   3  10   1   12.06    0.72
  -3  10  -1   12.38    0.73
   3 -10  -1   11.93    0.76
   3 -10  -1   12.34    0.81
   3  10   1   11.07    0.75
  -3 -10   1   12.29    0.74
   4  10  -1   12.01    0.79
  -4  10   1   12.44    0.78
  -4 -10  -1   13.52    0.82
   4 -10   1   11.62    0.80
   4  10  -1   11.69    0.76
   4 -10   1   10.99    0.76
   4 -10  -1   13.11    0.80
   4 -10  -1   13.00    0.88
  -4 -10   1   13.69    0.82
   4  10   1   11.91    0.71
   4  10   1   11.34    0.79
  -4  10  -1   11.56    0.77
   5 -10   1    2.19    0.51
  -5  10   1    3.09    0.48
   5  10  -1    2.93    0.45
   5 -10   1    2.40    0.47
  -5 -10  -1    1.65    0.41
   5  10  -1    2.41    0.45
   5  10   1    2.58    0.39
  -5  10  -1    2.26    0.43
  -5 -10   1    2.22    0.45
   5  10   1    2.74    0.51
   5 -10  -1    3.32    0.54
   5 -10  -1    2.78    0.46
   6 -10   1    1.24    0.45
  -6 -10  -1    1.07    0.37
   6  10  -1    1.12    0.47
  -6  10   1    1.38    0.47
   6 -10   1    0.64    0.41
   6  10  -1    0.63    0.34
  -6  10  -1    1.09    0.42
   6 -10  -1    1.27    0.46
   6  10   1    1.01    0.39
  -6 -10   1    1.13    0.41
   6  10   1    1.30    0.32
   6 -10  -1    1.77    0.47
  -7 -10  -1    2.18    0.53
   7 -10   1    2.52    0.56
  -7  10   1    1.65    0.57
   7  10  -1    2.62    0.61
   7 -10   1    3.47    0.63
  -7 -10   1    2.23    0.48
   7  10   1    3.27    0.33
   7 -10  -1    2.85    0.53
  -7  10  -1    2.27    0.59
   7  10   1    2.54    0.56
   7 -10  -1    2.57    0.61
   0  11  -1    1.29    0.32
   0  11  -1    2.19    0.46
   0 -11  -1    1.30    0.34
   0  11   1    1.43    0.35
   0 -11   1    1.11    0.34
   0  11   1    1.56    0.39
   1  11  -1    4.99    0.59
  -1  11   1    5.73    0.60
   1 -11   1    5.96    0.57
   1  11  -1    5.02    0.51
  -1 -11  -1    5.30    0.52
   1 -11  -1    5.26    0.52
  -1  11  -1    6.06    0.65
   1  11   1    4.03    0.53
   1  11   1    5.53    0.54
  -1 -11   1    4.72    0.52
   2 -11   1   10.45    0.82
  -2  11   1    9.45    0.82
   2  11  -1    8.41    0.66
  -2 -11  -1    8.52    0.68
   2  11  -1    9.62    0.75
   2 -11   1    7.52    0.64
   2 -11  -1    8.17    0.65
  -2 -11   1    8.49    0.66
  -2  11  -1    7.94    0.59
   2  11   1    8.88    0.71
   2  11   1    8.85    0.68
  -3 -11  -1    8.46    0.68
  -3  11   1    8.75    0.66
   3  11  -1    8.11    0.70
   3 -11   1    8.27    0.80
   3  11  -1    9.08    0.72
   3 -11   1    8.52    0.70
  -3 -11   1    9.82    0.68
  -3  11  -1    9.57    0.67
   3  11   1   10.55    0.76
   3  11   1    9.90    0.73
   3 -11  -1    7.07    0.66
   4  11  -1    4.53    0.61
  -4 -11  -1    5.16    0.59
   4 -11   1    5.84    0.65
   4 -11   1    6.15    0.63
  -4  11   1    5.10    0.58
   4  11  -1    5.55    0.61
   4  11   1    4.70    0.53
   4 -11  -1    5.44    0.59
  -4  11  -1    5.22    0.58
  -4 -11   1    4.65    0.55
   4  11   1    6.09    0.64
   4 -11  -1    5.31    0.68
   5  11  -1    4.56    0.58
  -5 -11  -1    3.63    0.53
   5  11  -1    3.60    0.57
   5 -11   1    3.97    0.58
  -5  11   1    4.26    0.57
   5 -11   1    3.98    0.62
  -5 -11   1    4.42    0.59
   5 -11  -1    4.71    0.65
   5 -11  -1    4.63    0.62
   5  11   1    4.83    0.61
  -5  11  -1    4.46    0.60
   5  11   1    4.23    0.48
   6 -11   1   14.41    1.00
  -6 -11  -1   14.60    0.98
   6 -11   1   16.39    1.05
  -6  11   1   15.13    1.01
   6  11  -1   15.67    1.05
   6  11  -1   14.81    0.91
   6 -11  -1   16.48    1.11
   6  11   1   14.95    1.04
  -6 -11   1   16.30    1.01
   6 -11  -1   15.59    1.07
  -6  11  -1   14.97    0.99
   6  11   1   15.41    0.79
  -7  11   1    6.77    0.80
   7 -11   1    5.33    0.74
   7  11  -1    7.45    0.67
  -7 -11  -1    6.72    0.75
   7 -11   1    7.43    0.82
   7  11  -1    6.15    0.79
   7 -11  -1    7.05    0.86
   7  11   1    7.14    0.47
   7 -11  -1    6.24    0.74
  -7  11  -1    6.57    0.79
  -7 -11   1    7.35    0.76
   7  11   1    5.95    0.80
   0  12  -1    0.86    0.40
   0  12   1   -0.11    0.33
   0 -12  -1    0.47    0.34
   0 -12   1   -0.11    0.29
   0  12   1    0.34    0.36
  -1 -12  -1   19.77    1.02
  -1  12   1   16.05    1.05
   1 -12   1   17.88    1.00
   1  12  -1   18.11    1.07
   1  12  -1   18.31    0.97
   1  12   1   20.63    1.06
  -1 -12   1   16.41    0.98
   1  12   1   18.72    1.03
  -1  12  -1   17.31    1.10
   1 -12  -1   17.55    0.97
   2 -12   1    0.08    0.34
  -2  12   1    0.42    0.37
   2 -12   1   -0.47    0.35
   2  12  -1    0.28    0.35
  -2 -12  -1    0.52    0.37
   2  12  -1    0.09    0.35
   2  12   1    0.39    0.34
   2  12   1    0.11    0.39
  -2 -12   1    0.61    0.31
   2 -12  -1    0.33    0.34
   3 -12   1    3.67    0.61
   3 -12   1    2.60    0.49
   3  12  -1    1.61    0.47
  -3 -12  -1    1.93    0.44
   3  12  -1    2.04    0.46
   3  12   1    1.79    0.47
  -3 -12   1    2.57    0.44
   3  12   1    2.57    0.46
   3 -12  -1    1.96    0.46
   4  12  -1    6.01    0.69
   4  12  -1    5.72    0.67
   4 -12   1    5.64    0.68
   4 -12   1    7.52    0.77
  -4  12   1    6.64    0.64
  -4 -12  -1    5.91    0.62
   4 -12  -1    8.24    0.72
   4  12   1    6.91    0.64
  -4  12  -1    5.11    0.61
   4  12   1    5.95    0.71
  -4 -12   1    7.12    0.69
   5  12  -1    8.34    0.82
   5 -12   1    9.05    0.89
   5 -12   1    8.29    0.85
  -5  12   1    8.57    0.80
  -5 -12  -1    8.90    0.78
   5  12  -1    9.08    0.79
  -5 -12   1    9.20    0.80
   5  12   1    8.99    0.89
  -5  12  -1    9.14    0.82
   5 -12  -1    9.79    0.86
   5  12   1    8.33    0.68
   5 -12  -1    9.27    0.90
   6 -12   1    9.52    0.89
  -6 -12  -1    8.00    0.79
   6  12  -1    9.13    0.93
  -6  12   1    8.32    0.87
   6  12  -1    7.72    0.73
   6 -12   1    8.66    0.92
   6 -12  -1    9.14    0.84
   6  12   1    8.65    0.63
   6  12   1    7.06    0.85
  -6 -12   1    9.44    0.86
   6 -12  -1    8.61    0.95
  -6  12  -1    7.64    0.85
   0  13  -1    0.52    0.51
   0  13   1    0.56    0.45
   0 -13  -1    0.55    0.38
   0 -13   1    1.29    0.41
  -1  13   1    0.89    0.43
   1  13  -1    0.91    0.44
   1 -13   1    1.15    0.45
  -1 -13  -1    2.57    0.50
   1  13   1    2.34    0.51
   1 -13  -1    1.89    0.44
   1  13   1    1.94    0.49
  -1 -13   1    1.64    0.45
  -2  13   1    6.87    0.83
   2  13  -1    7.23    0.76
  -2 -13  -1    8.30    0.73
   2  13  -1    7.96    0.82
   2 -13   1    9.20    0.80
  -2 -13   1    7.20    0.73
   2 -13  -1    8.88    0.78
   2  13   1    7.68    0.76
   2  13   1    8.28    0.77
  -3 -13  -1   10.67    0.87
   3 -13   1   11.08    1.03
   3 -13   1   11.38    0.94
   3  13  -1   10.87    0.93
   3  13  -1   11.61    0.92
  -3 -13   1   11.96    0.87
   3  13   1   11.16    0.85
   3 -13  -1   11.40    0.92
   3  13   1   10.46    0.89
   4  13  -1    6.28    0.75
   4 -13   1    7.24    0.75
   4 -13   1    6.80    0.84
  -4 -13  -1    5.10    0.63
   4  13  -1    6.08    0.73
   4  13   1    5.34    0.75
   4  13   1    5.97    0.66
  -4 -13   1    7.65    0.74
   4 -13  -1    5.53    0.72
   5 -13   1    1.74    0.61
  -5  13   1    2.16    0.57
   5  13  -1    0.79    0.52
   5  13  -1    2.04    0.54
  -5 -13  -1    0.90    0.49
   5 -13   1    2.10    0.59
   5  13   1    1.76    0.60
   5  13   1    1.37    0.42
   5 -13  -1    2.52    0.59
  -5 -13   1    1.61    0.44
  -5  13  -1    2.27    0.58
   5 -13  -1    2.66    0.61
   0 -14  -1    0.38    0.44
   0 -14   1    0.22    0.43
   0  14   1    0.40    0.44
   0  14  -1    0.00    0.45
   1 -14   1   10.29    0.91
   1  14  -1   11.08    0.97
  -1  14   1    9.50    0.92
  -1 -14  -1   10.95    0.88
  -1 -14   1    9.05    0.85
   1 -14  -1    8.89    0.83
   1  14   1   10.31    0.90
  -2 -14  -1    0.61    0.49
  -2  14   1    1.59    0.60
   2 -14   1    1.79    0.50
   2  14  -1    1.91    0.57
   2  14  -1    1.29    0.55
   2  14   1    0.81    0.50
   2 -14  -1    2.02    0.57
   2  14   1    1.95    0.54
  -2 -14   1    1.75    0.47
  -3 -14  -1    0.27    0.48
   3  14  -1   -0.44    0.47
   3  14  -1    0.38    0.53
   3 -14   1   -0.30    0.47
   3 -14  -1    0.18    0.47
   3  14   1    0.17    0.50
  -3 -14   1    0.42    0.47
   3  14   1    0.14    0.41
   0   0  -2  486.56   13.08
   0   0   2  489.87   12.99
   0   0   2  484.27   13.06
   0   0   2  478.34   13.16
   0   0   2  493.61   13.17
   1   0   2    0.10    0.06
   1   0  -2   -0.08    0.07
  -1   0   2   -0.09    0.05
   1   0   2   -0.02    0.05
  -1   0   2    0.00    0.06
   1   0   2    0.13    0.07
   1   0  -2   -0.01    0.06
   1   0  -2   -0.01    0.04
  -2   0   2   39.39    1.24
   2   0   2   39.53    1.19
   2   0  -2   36.28    1.23
   2   0  -2   39.93    1.19
  -2   0   2   40.54    1.20
   2   0   2   41.06    1.16
   2   0  -2   39.74    1.14
  -3   0   2   24.19    0.83
  -3   0   2   23.31    0.87
   3   0  -2   23.32    0.88
   3   0   2   24.57    0.85
   3   0   2   25.54    0.79
  -3   0  -2   25.48    0.82
   3   0  -2   24.37    0.81
   3   0  -2   23.14    0.80
   4   0  -2   -0.08    0.13
  -4   0   2   -0.05    0.14
   4   0  -2   -0.03    0.11
   4   0   2   -0.07    0.11
  -4   0   2    0.02    0.10
   4   0   2   -0.13    0.09
  -4   0  -2    0.02    0.12
   4   0  -2    0.08    0.09
  -5   0   2   27.60    1.03
   5   0  -2   27.05    1.08
   5   0   2   30.27    0.98
   5   0  -2   27.69    1.02
  -5   0   2   29.78    1.12
   5   0   2   26.67    1.07
   5   0  -2   29.93    1.02
  -5   0  -2   28.78    1.03
   6   0   2   43.63    1.37
  -6   0   2   42.43    1.47
   6   0  -2   39.67    1.50
   6   0  -2   42.73    1.42
   6   0   2   39.12    1.49
  -6   0  -2   43.45    1.46
   6   0  -2   42.88    1.48
   7   0  -2   10.98    0.59
  -7   0   2   10.23    0.62
  -7   0  -2   11.66    0.64
   7   0   2   10.95    0.68
   7   0  -2    9.87    0.63
   7   0  -2   10.48    0.64
   8   0  -2    8.10    0.64
   8   0  -2    7.07    0.60
   8   0   2    7.24    0.66
  -8   0  -2    7.08    0.58
  -8   0   2    8.58    0.63
   9   0  -2   18.08    1.02
   9   0  -2   17.36    0.93
   9   0   2   17.72    1.04
  10   0  -2    0.70    0.48
  10   0  -2    0.76    0.34
  10   0   2    1.51    0.48
   0   1   2    7.47    0.26
   0   1  -2    7.36    0.28
   0  -1   2    7.05    0.29
   0   1   2    7.34    0.29
   0   1   2    7.14    0.28
   0   1   2    7.82    0.26
   0  -1  -2    7.52    0.24
   0  -1   2    7.36    0.28
   0  -1   2    7.28    0.25
   1  -1   2   43.21    1.22
   1   1  -2   44.13    1.31
   1   1  -2   43.86    1.28
  -1   1   2   43.60    1.29
   1  -1   2   43.29    1.25
   1  -1   2   43.39    1.22
  -1   1   2   42.35    1.27
   1   1   2   43.06    1.24
  -1   1  -2   44.61    1.24
   1   1   2   41.08    1.27
   1  -1  -2   45.56    1.28
  -1  -1   2   43.65    1.30
  -1  -1   2   42.59    1.21
  -1  -1   2   44.70    1.26
   1  -1  -2   44.25    1.31
   1   1   2   41.88    1.24
   1  -1  -2   43.70    1.20
  -2   1   2  266.86    7.41
   2   1  -2  265.14    7.42
  -2   1   2  277.30    7.33
   2   1  -2  270.36    7.35
   2  -1   2  279.95    7.28
   2  -1   2  253.91    7.47
   2  -1   2  274.45    7.24
   2   1   2  273.48    7.37
  -2   1  -2  264.82    7.44
   2   1   2  282.28    7.41
  -2  -1   2  271.22    7.55
   2  -1  -2  276.64    7.57
   2   1   2  277.55    7.48
   2  -1  -2  273.52    7.32
  -2  -1   2  274.41    7.42
   2  -1  -2  280.77    7.47
  -3  -1  -2   36.46    1.14
  -3   1   2   37.95    1.21
   3  -1   2   36.85    1.09
   3   1  -2   36.35    1.24
   3   1  -2   37.30    1.15
   3  -1   2   39.79    1.22
   3  -1   2   37.03    1.07
  -3   1   2   38.81    1.25
   3   1  -2   37.20    1.19
   3  -1   2   38.29    1.07
   3  -1  -2   36.34    1.15
   3  -1  -2   37.45    1.15
   3   1   2   37.28    1.17
  -3  -1   2   38.78    1.25
  -3  -1   2   38.02    1.16
   3   1   2   36.92    1.20
  -3   1  -2   37.85    1.19
   3  -1  -2   36.36    1.24
  -4  -1  -2   43.86    1.36
   4   1  -2   42.40    1.39
   4  -1   2   45.02    1.26
  -4   1   2   41.91    1.42
   4  -1   2   45.83    1.30
   4   1  -2   42.99    1.46
   4  -1   2   44.22    1.26
   4   1  -2   43.21    1.37
  -4   1   2   42.78    1.46
   4  -1   2   43.38    1.43
   4   1   2   45.48    1.46
  -4  -1   2   44.30    1.41
  -4  -1   2   45.64    1.51
   4  -1  -2   43.80    1.38
   4  -1  -2   44.65    1.41
   4   1   2   46.33    1.42
   4  -1  -2   44.54    1.50
  -4   1  -2   44.60    1.44
  -5   1   2   20.85    0.84
   5  -1   2   20.75    0.64
   5  -1   2   18.20    0.83
  -5   1   2   20.23    0.87
   5   1  -2   19.17    0.79
  -5  -1  -2   19.62    0.76
   5  -1   2   20.26    0.64
   5   1  -2   18.92    0.84
   5   1  -2   20.39    0.79
   5  -1   2   19.79    0.69
   5  -1  -2   20.17    0.86
   5  -1  -2   19.86    0.74
  -5  -1   2   20.82    0.80
   5   1   2   20.59    0.78
   5  -1  -2   19.62    0.80
  -5  -1   2   20.66    0.87
  -5   1  -2   18.54    0.81
   5   1   2   21.01    0.87
   6   1  -2    2.85    0.31
   6   1  -2    2.92    0.33
  -6  -1  -2    3.18    0.31
   6   1  -2    3.11    0.35
  -6   1   2    3.24    0.34
   6  -1   2    3.14    0.19
   6  -1   2    2.84    0.36
   6  -1   2    2.84    0.18
   6   1   2    2.86    0.30
   6   1   2    3.30    0.37
  -6   1  -2    3.03    0.33
  -6  -1   2    2.88    0.32
   6  -1  -2    3.08    0.33
   6  -1  -2    2.70    0.36
   6  -1  -2    3.10    0.28
  -7   1   2   15.43    0.82
   7   1  -2   16.29    0.77
   7   1  -2   16.90    0.83
   7   1  -2   16.44    0.82
   7  -1   2   16.94    0.87
  -7  -1  -2   16.35    0.78
  -7  -1   2   14.26    0.73
   7  -1  -2   16.22    0.82
  -7   1  -2   17.59    0.83
   7  -1  -2   15.68    0.81
   7   1   2   16.10    0.74
   7   1   2   15.44    0.83
   8  -1   2    1.66    0.38
  -8   1   2    2.12    0.41
   8   1  -2    2.11    0.35
   8   1  -2    1.78    0.39
   8   1   2    1.83    0.42
  -8   1  -2    1.97    0.38
   8  -1  -2    2.30    0.39
   8  -1  -2    1.72    0.35
  -9   1   2    7.70    0.69
   9  -1   2    6.10    0.71
   9   1  -2    6.52    0.59
   9   1  -2    8.49    0.69
   9  -1  -2    6.33    0.61
   9   1   2    6.49    0.68
  -9   1  -2    7.20    0.65
   9  -1  -2    6.76    0.67
  10  -1   2    2.92    0.59
  10   1  -2    2.40    0.44
  10   1  -2    2.61    0.55
  10  -1  -2    1.64    0.54
  10   1   2    2.65    0.60
  10  -1  -2    1.74    0.44
   0  -2  -2  234.87    6.23
   0  -2   2  232.97    6.24
   0   2  -2  234.66    6.35
   0  -2   2  235.94    6.41
   0   2   2  236.83    6.31
   0   2  -2  242.50    6.42
   0   2   2  232.76    6.37
   0  -2   2  237.05    6.32
   0   2   2  219.57    6.37
   1  -2   2  155.48    4.30
   1  -2   2  158.62    4.38
   1   2  -2  168.07    4.45
  -1   2   2  155.79    4.41
  -1   2   2  156.69    4.36
  -1  -2  -2  158.15    4.30
   1   2  -2  160.16    4.38
   1  -2   2  158.45    4.37
   1   2   2  164.31    4.42
  -1  -2   2  162.70    4.54
   1   2   2  161.03    4.51
   1  -2  -2  162.28    4.55
   1  -2  -2  167.32    4.38
  -1   2  -2  163.53    4.44
  -1  -2   2  161.40    4.39
   1   2   2  167.54    4.51
   1   2   2  160.34    4.51
  -1  -2   2  161.59    4.43
  -2   2   2  103.02    2.93
   2   2  -2  103.45    2.94
  -2   2   2  100.19    2.96
   2  -2   2  106.02    2.89
   2  -2   2  102.04    2.90
   2   2  -2  102.14    2.99
   2  -2   2  105.31    2.89
   2  -2  -2  106.59    2.98
  -2  -2   2  109.64    2.99
   2   2   2  109.90    2.98
   2   2   2  106.58    3.07
   2  -2  -2  110.53    3.04
  -2   2  -2  109.17    2.96
  -2  -2   2  108.87    3.12
  -2  -2   2  104.96    2.99
  -2   2  -2  108.21    3.06
   2  -2  -2  109.89    3.13
   3   2  -2  174.64    4.94
   3   2  -2  167.65    4.87
  -3   2   2  176.63    4.88
  -3  -2  -2  180.27    4.75
   3  -2   2  178.88    4.82
  -3   2   2  170.31    4.93
   3  -2   2  172.24    4.82
   3  -2   2  173.31    4.81
  -3   2  -2  174.84    4.93
  -3  -2   2  181.15    4.86
  -3  -2   2  172.53    4.85
  -3  -2   2  174.54    5.02
   3  -2  -2  170.33    5.03
   3   2   2  180.54    4.89
   3  -2  -2  182.99    4.86
   3   2   2  175.67    4.95
   3  -2  -2  182.83    4.89
   4   2  -2    4.08    0.31
   4  -2   2    3.84    0.23
   4  -2   2    4.46    0.25
  -4   2   2    3.66    0.34
   4  -2   2    3.60    0.32
  -4  -2  -2    3.68    0.24
  -4   2   2    4.14    0.32
   4  -2   2    4.09    0.18
   4   2  -2    3.77    0.34
  -4  -2   2    3.85    0.34
   4  -2  -2    4.21    0.26
  -4  -2   2    4.05    0.28
  -4   2  -2    3.25    0.28
   4  -2  -2    3.83    0.30
   4  -2  -2    3.78    0.34
   4   2   2    3.68    0.32
   4   2   2    4.08    0.31
   5  -2   2   54.76    1.86
   5   2  -2   55.80    1.79
   5  -2   2   60.47    1.72
  -5  -2  -2   57.96    1.74
   5   2  -2   55.20    1.82
   5  -2   2   57.45    1.71
   5   2  -2   58.85    1.90
  -5   2   2   56.04    1.87
   5   2   2   57.10    1.88
  -5   2  -2   58.12    1.89
  -5  -2   2   59.64    1.79
   5  -2  -2   57.41    1.75
   5  -2  -2   57.50    1.93
   5   2   2   59.02    1.85
   5  -2  -2   57.89    1.84
   6  -2   2   23.93    0.83
   6   2  -2   24.43    0.99
   6  -2   2   24.43    0.83
   6   2  -2   23.70    0.98
  -6   2   2   23.77    1.03
   6  -2   2   24.39    1.04
   6   2  -2   23.76    1.02
  -6  -2  -2   26.88    0.94
  -6   2  -2   22.97    1.00
  -6  -2   2   25.05    0.94
   6  -2  -2   23.85    0.88
   6   2   2   25.27    0.98
   6  -2  -2   23.01    0.98
   6  -2  -2   24.18    1.05
   6   2   2   26.24    1.06
   7   2  -2    7.68    0.56
   7   2  -2    7.48    0.54
  -7   2   2    8.10    0.61
   7  -2   2    6.58    0.57
   7  -2   2    6.92    0.35
   7   2  -2    7.94    0.55
   7  -2  -2    7.17    0.55
   7   2   2    6.71    0.52
   7   2   2    7.15    0.57
   7  -2  -2    7.59    0.59
  -7   2  -2    7.03    0.57
   8  -2   2   10.07    0.73
  -8   2   2   11.42    0.77
   8   2  -2   11.07    0.67
   8   2  -2   10.58    0.68
   8   2  -2   12.07    0.75
  -8   2  -2   10.79    0.74
   8   2   2   10.68    0.74
   8  -2  -2   11.17    0.75
   8  -2  -2   10.84    0.70
   9  -2   2    7.74    0.72
  -9   2   2    8.98    0.73
   9   2  -2    8.47    0.65
  -9   2  -2    9.12    0.73
   9  -2  -2    9.58    0.77
   9   2   2    8.92    0.78
   9  -2  -2    8.27    0.68
  10   2  -2    1.04    0.36
 -10   2   2    0.33    0.45
  10  -2   2    1.03    0.54
  10  -2  -2    0.57    0.36
 -10   2  -2    1.24    0.47
  10   2   2    1.13    0.53
  10  -2  -2    0.70    0.51
 -10  -2   2    0.83    0.46
   0   3  -2  360.01   10.05
   0   3   2  367.85    9.87
   0   3   2  367.98   10.00
   0  -3   2  360.44    9.78
   0  -3   2  371.64   10.03
   0   3  -2  379.00    9.94
   0   3   2  375.52    9.97
   0  -3   2  366.59    9.88
   0  -3  -2  360.53    9.77
   1   3  -2  213.07    5.85
   1  -3   2  209.69    5.76
  -1   3   2  209.75    5.90
  -1  -3  -2  213.08    5.75
   1   3  -2  214.05    5.93
   1  -3   2  213.31    5.88
  -1   3   2  217.29    5.82
  -1   3   2  214.18    5.83
   1   3   2  211.51    5.89
  -1  -3   2  214.37    5.81
   1  -3  -2  216.36    5.79
  -1   3  -2  220.82    5.89
   1   3   2  217.45    5.81
  -1  -3   2  224.29    6.00
   1   3   2  214.47    5.89
   1  -3  -2  217.67    5.99
  -1   3  -2  213.84    5.85
  -1   3  -2  215.61    5.98
  -1  -3   2  208.01    5.83
  -2   3   2  135.33    3.81
   2  -3   2  142.26    3.82
   2  -3   2  132.78    3.80
  -2   3   2  128.94    3.86
   2  -3   2  135.96    3.76
   2   3  -2  136.56    3.82
  -2  -3  -2  132.97    3.75
   2   3  -2  136.67    3.87
  -2  -3   2  140.85    4.01
  -2   3  -2  141.61    3.93
  -2   3  -2  142.78    3.82
   2   3   2  140.48    3.85
  -2  -3   2  140.47    3.83
   2  -3  -2  139.82    3.90
  -2  -3   2  139.27    3.87
   2  -3  -2  138.36    4.02
   2  -3  -2  138.64    3.85
   2   3   2  133.90    3.96
   2   3   2  144.99    3.85
   2   3   2  144.57    3.81
   3   3  -2   79.20    2.49
  -3  -3  -2   81.18    2.42
  -3   3   2   80.52    2.50
   3  -3   2   81.31    2.40
  -3   3   2   83.95    2.47
   3   3  -2   79.59    2.45
  -3  -3  -2   84.43    2.28
   3  -3   2   89.42    2.43
   3  -3   2   80.79    2.42
  -3  -3   2   82.53    2.33
   3  -3  -2   83.80    2.37
  -3  -3   2   82.41    2.51
   3  -3  -2   83.01    2.40
  -3  -3   2   86.14    2.41
   3  -3  -2   83.83    2.53
   3   3   2   78.25    2.46
  -3   3  -2   82.49    2.46
   4   3  -2   47.08    1.57
   4   3  -2   45.73    1.60
   4  -3   2   48.66    1.50
  -4  -3  -2   49.47    1.42
  -4   3   2   46.10    1.59
  -4   3   2   49.36    1.64
  -4  -3  -2   46.74    1.58
   4  -3   2   52.58    1.52
   4  -3   2   46.54    1.58
  -4   3  -2   47.85    1.62
   4   3   2   49.70    1.62
   4  -3  -2   48.55    1.57
  -4  -3   2   50.74    1.49
  -4  -3   2   51.09    1.67
   4  -3  -2   49.93    1.68
   4  -3  -2   50.02    1.49
  -4  -3   2   48.66    1.58
  -5  -3  -2   27.83    0.92
   5   3  -2   28.57    1.09
  -5   3   2   26.18    1.07
   5  -3   2   27.67    0.96
   5  -3   2   29.20    0.97
  -5   3   2   26.11    1.11
   5  -3   2   26.37    1.07
   5   3  -2   26.81    1.06
   5   3   2   26.27    1.02
   5  -3  -2   27.20    0.90
  -5  -3   2   27.08    1.03
  -5   3  -2   26.70    1.06
   5   3   2   28.29    1.06
   5  -3  -2   26.14    1.02
  -5  -3   2   25.61    0.91
   5  -3  -2   26.36    1.09
  -6   3   2    4.35    0.44
   6   3  -2    4.03    0.39
   6  -3   2    4.67    0.44
   6  -3   2    4.31    0.31
   6   3  -2    3.71    0.40
   6   3   2    4.27    0.41
  -6   3  -2    3.50    0.41
   6   3   2    4.63    0.42
   6  -3  -2    3.96    0.39
  -6  -3   2    3.76    0.40
   6  -3  -2    4.44    0.45
   7   3  -2   11.89    0.69
   7   3  -2   13.36    0.76
   7  -3   2   13.14    0.57
   7  -3   2   14.01    0.79
  -7   3   2   12.52    0.79
  -7   3  -2   12.90    0.79
  -7  -3   2   14.60    0.78
   7  -3  -2   12.15    0.75
   7   3   2   13.99    0.78
   7  -3  -2   14.47    0.79
   7   3   2   14.09    0.76
   8   3  -2    6.03    0.55
   8  -3   2    5.87    0.62
   8   3  -2    6.52    0.59
  -8   3   2    8.25    0.67
   8  -3   2    6.94    0.37
  -8  -3   2    8.64    0.65
   8   3   2    9.15    0.61
   8  -3  -2    8.16    0.66
   8  -3  -2    8.80    0.69
  -8   3  -2    6.18    0.63
   8   3   2    7.51    0.65
   9  -3   2   -0.17    0.33
  -9   3   2    0.11    0.37
   9   3  -2   -0.88    0.24
  -9   3  -2   -0.08    0.36
   9  -3  -2    0.15    0.34
   9  -3  -2   -0.02    0.36
  -9  -3   2    0.06    0.30
  10  -3   2    4.06    0.65
  10   3  -2    4.96    0.53
 -10  -3  -2    3.87    0.63
 -10   3   2    3.67    0.61
  10  -3  -2    5.04    0.70
 -10  -3   2    4.05    0.59
  10  -3  -2    3.67    0.52
 -10   3  -2    4.04    0.68
   0   4   2    7.20    0.32
   0   4   2    7.61    0.37
   0  -4   2    7.70    0.34
   0  -4  -2    6.90    0.37
   0  -4   2    7.03    0.38
   0  -4   2    6.98    0.35
   0   4  -2    7.88    0.41
   0  -4  -2    7.17    0.34
   0   4   2    7.60    0.37
   0   4  -2    7.04    0.33
   1   4  -2   18.24    0.71
  -1   4   2   16.94    0.62
  -1  -4  -2   17.38    0.64
   1  -4   2   17.41    0.68
   1  -4   2   18.29    0.65
  -1   4   2   16.14    0.63
   1   4  -2   16.89    0.64
  -1   4   2   17.91    0.69
   1   4   2   16.69    0.67
  -1   4  -2   16.62    0.63
  -1  -4   2   17.72    0.58
  -1  -4   2   17.08    0.69
  -1   4  -2   17.03    0.70
   1   4   2   18.16    0.62
  -1   4  -2   17.22    0.58
   1  -4  -2   17.23    0.62
   1   4   2   17.46    0.55
  -1  -4   2   16.06    0.62
   1   4   2   17.46    0.62
   1  -4  -2   17.23    0.69
  -2   4   2  130.96    3.69
  -2   4   2  131.62    3.55
   2  -4   2  127.45    3.63
   2  -4   2  125.51    3.57
   2   4  -2  120.95    3.67
  -2  -4  -2  126.12    3.56
   2   4  -2  124.32    3.62
  -2   4   2  125.99    3.61
   2  -4  -2  130.28    3.82
   2   4   2  135.90    3.67
   2   4   2  129.78    3.67
  -2   4  -2  124.58    3.72
  -2  -4   2  130.81    3.60
  -2   4  -2  137.36    3.82
  -2  -4   2  130.59    3.81
   2   4   2  130.27    3.78
  -2   4  -2  135.22    3.59
   2  -4  -2  131.12    3.66
  -2  -4   2  127.48    3.66
   2   4   2  134.45    3.56
   3   4  -2    0.50    0.16
  -3   4   2    0.55    0.19
  -3  -4  -2    0.55    0.08
   3   4  -2    0.44    0.15
   3  -4   2    0.47    0.14
  -3  -4  -2    0.78    0.17
  -3   4   2    0.51    0.16
   3  -4   2    0.69    0.17
   3  -4   2    0.57    0.15
  -3   4  -2    0.48    0.15
   3  -4  -2    0.38    0.13
  -3  -4   2    0.49    0.15
   3  -4  -2    0.21    0.16
  -3   4  -2    0.41    0.16
   3   4   2    0.31    0.09
   3   4   2    0.54    0.10
   3  -4  -2    0.20    0.10
   3   4   2    0.56    0.17
  -3  -4   2    0.26    0.09
  -3  -4   2    0.37    0.17
  -4   4   2    2.71    0.31
   4  -4   2    2.98    0.28
  -4  -4  -2    2.54    0.29
   4  -4   2    2.75    0.27
   4   4  -2    2.73    0.29
   4   4  -2    3.13    0.33
   4  -4   2    2.77    0.30
  -4  -4  -2    3.15    0.19
  -4   4   2    2.71    0.32
  -4   4  -2    2.81    0.32
   4  -4  -2    2.72    0.33
   4  -4  -2    3.46    0.31
   4   4   2    3.20    0.16
   4   4   2    3.24    0.16
   4  -4  -2    2.83    0.22
  -4  -4   2    2.49    0.31
  -4  -4   2    3.05    0.29
  -4  -4   2    3.07    0.22
   4   4   2    3.55    0.33
   5  -4   2   18.60    0.84
  -5  -4  -2   17.38    0.82
  -5   4   2   17.40    0.87
   5   4  -2   18.62    0.83
   5   4  -2   17.45    0.82
   5  -4   2   17.87    0.74
  -5   4   2   17.38    0.83
   5   4   2   19.68    0.87
  -5   4  -2   18.95    0.88
  -5  -4   2   20.09    0.86
   5  -4  -2   20.48    0.93
   5  -4  -2   19.28    0.84
   6   4  -2   30.83    1.27
  -6  -4  -2   33.75    1.32
   6  -4   2   33.22    1.31
   6   4  -2   32.06    1.26
  -6   4   2   32.51    1.32
   6  -4   2   33.20    1.16
  -6   4  -2   29.45    1.27
  -6  -4   2   32.66    1.25
   6  -4  -2   34.23    1.27
   6  -4  -2   31.71    1.31
   6   4   2   32.01    1.26
   7  -4   2   36.39    1.24
  -7  -4  -2   34.30    1.44
  -7   4   2   34.25    1.47
   7   4  -2   34.52    1.42
   7  -4   2   36.03    1.47
   7   4  -2   36.46    1.39
   7   4   2   36.84    1.42
   7  -4  -2   35.13    1.40
   7  -4  -2   33.68    1.43
  -7   4  -2   35.12    1.45
  -7  -4   2   35.73    1.41
   8  -4   2    5.69    0.61
  -8  -4  -2    6.81    0.66
   8   4  -2    5.73    0.54
  -8   4   2    6.36    0.65
   8  -4   2    6.29    0.42
   8   4  -2    6.52    0.61
  -8  -4   2    6.98    0.63
   8  -4  -2    8.45    0.68
   8  -4  -2    6.68    0.63
   8   4   2    6.65    0.59
  -8   4  -2    6.08    0.63
   9   4  -2   11.97    0.72
  -9  -4  -2    9.85    0.86
   9  -4   2   10.58    0.87
   9   4  -2   10.60    0.78
  -9   4   2   11.69    0.91
  -9  -4   2   11.44    0.85
   9  -4  -2   10.17    0.79
   9  -4  -2   12.45    0.86
  -9   4  -2   10.68    0.86
  10  -4   2   -0.01    0.55
  10   4  -2    0.63    0.36
 -10  -4  -2    1.09    0.51
 -10   4   2    0.74    0.54
  10  -4  -2    0.63    0.49
 -10   4  -2    0.13    0.49
  10  -4  -2    0.35    0.43
 -10  -4   2    0.46    0.40
   0   5   2   41.09    1.35
   0  -5   2   43.09    1.35
   0  -5  -2   41.19    1.32
   0  -5  -2   46.03    1.42
   0   5   2   42.49    1.39
   0   5   2   42.12    1.29
   0   5  -2   41.16    1.33
   0   5  -2   43.07    1.45
   0   5  -2   43.26    1.30
   1   5  -2   24.09    0.89
   1   5  -2   22.30    0.93
  -1   5   2   24.70    0.86
  -1  -5  -2   24.67    0.87
  -1   5   2   24.68    0.93
   1  -5   2   24.87    0.88
  -1   5   2   25.81    0.86
   1  -5   2   24.44    0.92
  -1  -5  -2   25.57    0.91
   1   5   2   26.49    0.79
  -1   5  -2   25.34    0.88
  -1  -5   2   24.89    0.89
  -1  -5   2   25.60    0.82
   1  -5  -2   27.50    0.99
   1  -5  -2   25.07    0.88
   1   5   2   24.65    0.93
  -1   5  -2   25.61    0.84
   1   5   2   24.93    0.90
  -1   5  -2   26.41    0.99
   1   5   2   24.78    0.89
   2  -5   2    7.63    0.43
  -2   5   2    6.43    0.40
  -2   5   2    7.02    0.45
   2  -5   2    6.87    0.42
   2   5  -2    7.31    0.45
  -2  -5  -2    7.58    0.41
  -2   5   2    7.32    0.36
   2   5  -2    7.51    0.43
  -2  -5   2    7.10    0.41
   2  -5  -2    6.87    0.46
  -2   5  -2    7.64    0.31
  -2  -5   2    7.12    0.32
   2   5   2    7.32    0.37
   2  -5  -2    7.51    0.40
  -2   5  -2    7.28    0.41
   2   5   2    7.59    0.26
   2   5   2    7.87    0.45
   2   5   2    8.18    0.38
  -2  -5   2    7.63    0.47
  -2   5  -2    7.58    0.47
   3   5  -2   28.55    1.06
   3  -5   2   27.60    1.03
  -3   5   2   27.24    1.05
  -3   5   2   28.98    1.11
  -3  -5  -2   27.83    1.03
   3  -5   2   28.59    1.04
   3   5  -2   27.15    1.07
   3  -5  -2   28.08    0.93
   3  -5  -2   27.94    1.00
  -3  -5   2   27.65    1.08
   3  -5  -2   27.94    1.09
  -3   5  -2   27.51    1.03
  -3  -5   2   27.08    1.00
  -3   5  -2   28.48    1.09
  -3  -5   2   28.08    0.84
   3   5   2   26.43    1.05
   3   5   2   27.24    0.91
   3   5   2   28.54    0.91
   4   5  -2   57.58    1.93
   4  -5   2   59.30    1.88
   4   5  -2   57.39    1.93
   4  -5   2   57.13    1.90
  -4  -5  -2   57.74    1.89
  -4   5   2   58.94    1.98
   4  -5  -2   64.34    1.80
   4   5   2   61.12    1.76
   4  -5  -2   57.61    2.02
   4  -5  -2   57.56    1.90
  -4  -5   2   57.91    1.91
   4   5   2   60.99    1.99
   4   5   2   63.52    1.76
  -4   5  -2   55.25    1.94
   5   5  -2   18.93    0.89
   5  -5   2   19.67    0.89
   5  -5   2   17.68    0.79
  -5  -5  -2   18.70    0.88
  -5   5   2   19.12    0.90
   5   5  -2   18.93    0.87
   5  -5  -2   18.33    0.90
   5  -5  -2   18.65    0.84
   5   5   2   18.50    0.88
  -5   5  -2   16.79    0.85
   5   5   2   18.67    0.58
  -5  -5   2   19.86    0.85
   6   5  -2   10.84    0.66
   6  -5   2   12.08    0.73
  -6   5   2   13.84    0.77
   6   5  -2   10.88    0.72
  -6  -5  -2   12.10    0.74
   6  -5   2   11.73    0.62
  -6  -5   2   13.12    0.72
   6  -5  -2   11.55    0.68
   6   5   2   10.07    0.68
  -6   5  -2   10.86    0.71
   6  -5  -2   11.83    0.73
  -7  -5  -2    7.08    0.61
   7  -5   2    6.28    0.46
   7   5  -2    7.79    0.60
   7  -5   2    7.33    0.64
  -7   5   2    7.81    0.65
   7   5  -2    6.13    0.58
   7   5   2    7.65    0.63
   7  -5  -2    8.20    0.68
   7  -5  -2    7.44    0.62
  -7  -5   2    6.98    0.59
  -7   5  -2    6.31    0.63
   8  -5   2    1.63    0.31
  -8   5   2    1.86    0.45
  -8  -5  -2    1.52    0.39
   8   5  -2    1.66    0.42
   8   5  -2    1.34    0.35
   8  -5   2    2.21    0.46
   8  -5  -2    1.53    0.43
   8   5   2    1.80    0.42
  -8   5  -2    1.30    0.42
  -8  -5   2    1.38    0.40
   8  -5  -2    1.73    0.40
   9   5  -2   -0.29    0.37
  -9  -5  -2   -0.22    0.34
  -9   5   2   -0.20    0.41
   9  -5   2    0.04    0.41
   9  -5   2   -0.17    0.21
   9   5  -2    0.33    0.32
   9  -5  -2   -0.38    0.36
   9  -5  -2    0.28    0.39
  -9   5  -2    0.24    0.39
  -9  -5   2    0.10    0.40
 -10   5   2    9.89    0.95
  10   5  -2   10.36    0.67
  10  -5   2   11.23    0.94
  10  -5  -2   13.42    1.05
 -10  -5   2   11.39    0.90
 -10   5  -2   10.18    0.95
  10  -5  -2   10.48    0.84
   0  -6   2    2.16    0.27
   0   6   2    1.28    0.17
   0  -6   2    1.67    0.22
   0   6   2    1.30    0.21
   0  -6  -2    1.37    0.19
   0   6  -2    1.28    0.16
   0   6   2    1.48    0.20
   0   6  -2    1.13    0.19
   0  -6  -2    1.71    0.25
   0   6  -2    1.57    0.26
   1   6  -2   19.91    0.77
  -1   6   2   18.10    0.72
  -1   6   2   17.68    0.79
   1  -6   2   18.82    0.81
  -1   6   2   18.76    0.73
   1  -6   2   19.18    0.76
  -1  -6  -2   19.43    0.76
  -1  -6  -2   18.39    0.78
   1   6  -2   19.68    0.65
  -1   6  -2   19.80    0.88
   1   6   2   18.24    0.80
  -1  -6   2   19.27    0.84
  -1   6  -2   20.50    0.72
   1  -6  -2   20.11    0.85
  -1  -6   2   18.38    0.76
   1   6   2   19.35    0.78
  -1   6  -2   20.64    0.76
   1   6   2   20.55    0.66
   1  -6  -2   19.70    0.77
   2   6  -2    2.89    0.33
  -2   6   2    3.87    0.27
  -2  -6  -2    3.54    0.31
  -2   6   2    3.89    0.31
  -2   6   2    3.86    0.38
   2  -6   2    3.31    0.33
   2   6  -2    3.40    0.32
   2   6  -2    4.04    0.21
   2  -6   2    2.42    0.28
   2  -6  -2    3.62    0.36
   2  -6  -2    3.52    0.30
  -2   6  -2    3.44    0.30
   2   6   2    3.69    0.16
  -2   6  -2    3.29    0.36
   2   6   2    3.82    0.30
  -2   6  -2    3.37    0.23
   2   6   2    2.89    0.31
  -2  -6   2    3.47    0.36
   2   6   2    3.90    0.30
  -2  -6   2    3.43    0.31
   3  -6   2   26.95    1.05
  -3   6   2   26.88    1.04
  -3  -6  -2   23.39    0.98
   3   6  -2   26.59    1.07
   3  -6   2   25.42    1.01
  -3   6   2   27.77    1.10
   3   6  -2   25.87    1.04
   3  -6  -2   27.24    0.94
  -3  -6   2   28.99    1.12
  -3  -6   2   27.29    1.03
   3  -6  -2   27.13    1.12
  -3   6  -2   27.27    1.06
   3   6   2   26.10    1.07
   3   6   2   28.35    0.95
   3  -6  -2   27.55    1.02
   3   6   2   26.29    0.95
  -4  -6  -2    0.82    0.21
   4   6  -2    0.57    0.21
  -4   6   2    0.37    0.23
   4  -6   2    0.73    0.22
   4   6  -2    0.42    0.21
  -4   6   2    0.34    0.24
   4  -6   2    0.41    0.20
   4   6   2    0.56    0.14
  -4  -6   2    0.62    0.21
   4  -6  -2    0.47    0.24
   4  -6  -2    0.76    0.22
  -4   6  -2    0.30    0.21
   4   6   2    0.45    0.20
   4   6   2    0.37    0.15
   5  -6   2    7.92    0.51
  -5  -6  -2    7.54    0.56
   5   6  -2    8.24    0.60
   5  -6   2    7.53    0.55
   5   6  -2    7.48    0.55
  -5   6   2    7.37    0.58
   5   6   2    7.99    0.35
  -5  -6   2    7.16    0.51
   5  -6  -2    6.97    0.54
  -5   6  -2    6.77    0.55
   5   6   2    7.95    0.35
   5  -6  -2    7.19    0.62
   5   6   2    7.61    0.57
   6  -6   2    7.25    0.60
  -6  -6  -2    6.73    0.57
   6  -6   2    6.53    0.51
   6   6  -2    6.88    0.57
  -6   6   2    6.32    0.57
   6   6  -2    7.16    0.57
   6  -6  -2    6.56    0.61
  -6  -6   2    7.56    0.55
   6  -6  -2    6.50    0.57
  -6   6  -2    7.29    0.62
   6   6   2    7.48    0.60
   7  -6   2    5.86    0.50
   7   6  -2    4.87    0.55
  -7   6   2    4.30    0.53
  -7  -6  -2    5.52    0.59
   7   6  -2    6.18    0.54
   7  -6   2    5.05    0.54
   7   6   2    4.76    0.55
  -7  -6   2    6.15    0.57
  -7   6  -2    4.63    0.57
   7  -6  -2    5.30    0.56
   7  -6  -2    5.69    0.56
   8  -6   2   11.64    0.85
   8   6  -2    8.98    0.66
  -8   6   2   10.46    0.84
   8   6  -2   11.93    0.80
   8  -6   2   10.39    0.63
  -8  -6  -2    9.39    0.78
  -8   6  -2    9.89    0.82
   8   6   2   10.02    0.79
  -8  -6   2   10.64    0.76
   8  -6  -2   10.56    0.83
   8  -6  -2   10.57    0.83
   9   6  -2    0.07    0.43
  -9   6   2    0.12    0.44
   9   6  -2    0.55    0.33
   9  -6   2   -0.06    0.26
  -9  -6  -2   -0.03    0.37
   9  -6   2    0.02    0.46
   9   6   2   -0.05    0.40
   9  -6  -2   -0.01    0.38
   9  -6  -2    0.46    0.46
  -9   6  -2    0.18    0.42
  -9  -6   2    0.64    0.42
   0  -7  -2   25.29    0.94
   0  -7   2   22.80    0.99
   0   7  -2   22.83    1.03
   0   7   2   24.60    0.95
   0   7  -2   23.54    0.91
   0   7  -2   25.07    0.86
   0  -7   2   23.59    0.93
   0  -7  -2   23.12    0.99
   0   7   2   24.39    0.85
   0   7   2   25.46    0.99
  -1  -7  -2   37.47    1.30
  -1   7   2   39.04    1.28
   1   7  -2   36.30    1.31
   1   7  -2   36.33    1.41
   1  -7   2   35.82    1.38
   1  -7   2   37.44    1.31
   1   7  -2   39.31    1.18
  -1   7   2   36.36    1.38
  -1   7   2   38.25    1.26
   1   7   2   40.01    1.38
   1   7   2   37.65    1.38
   1  -7  -2   37.45    1.43
  -1  -7   2   40.19    1.46
  -1   7  -2   39.17    1.31
   1   7   2   39.83    1.19
  -1  -7   2   39.60    1.35
   1  -7  -2   39.17    1.34
  -1   7  -2   39.86    1.29
  -1   7  -2   39.19    1.47
   2   7  -2   14.38    0.70
   2  -7   2   13.02    0.66
  -2   7   2   13.57    0.72
  -2  -7  -2   11.87    0.63
  -2   7   2   11.94    0.62
   2   7  -2   12.76    0.70
   2  -7   2   13.30    0.69
  -2   7   2   14.15    0.59
  -2   7  -2   13.26    0.64
   2   7   2   13.05    0.61
   2  -7  -2   11.73    0.69
  -2   7  -2   12.27    0.52
  -2   7  -2   12.32    0.71
  -2  -7   2   12.95    0.64
   2  -7  -2   13.85    0.65
  -2  -7   2   12.25    0.68
   2   7   2   12.32    0.66
  -3  -7  -2    5.13    0.41
  -3   7   2    4.36    0.32
   3   7  -2    5.57    0.47
   3  -7   2    5.02    0.45
   3  -7   2    4.34    0.39
  -3   7   2    5.18    0.44
   3   7  -2    4.73    0.44
  -3   7   2    5.03    0.49
   3   7   2    4.78    0.35
   3  -7  -2    5.05    0.47
  -3   7  -2    5.03    0.43
  -3  -7   2    4.97    0.41
   3  -7  -2    5.01    0.40
   3   7   2    5.36    0.45
   4   7  -2   20.55    0.97
  -4   7   2   22.65    1.05
   4  -7   2   22.14    0.96
   4   7  -2   20.39    0.96
   4  -7   2   20.04    0.93
  -4   7   2   20.75    0.96
  -4  -7  -2   20.98    0.94
   4  -7  -2   22.45    1.07
  -4  -7   2   22.19    0.96
   4  -7  -2   21.82    0.95
   4   7   2   22.55    1.01
  -4   7  -2   22.64    1.00
   4   7   2   22.26    0.84
   5  -7   2    0.93    0.27
  -5  -7  -2    0.62    0.27
   5  -7   2    0.32    0.27
   5   7  -2    0.37    0.26
  -5   7   2    0.13    0.27
   5   7  -2    0.33    0.25
  -5   7  -2    0.69    0.28
   5  -7  -2    0.12    0.24
   5  -7  -2    0.20    0.25
   5   7   2    0.56    0.17
   5   7   2    0.57    0.30
  -5  -7   2    0.49    0.25
   6   7  -2   28.16    1.24
  -6  -7  -2   29.37    1.27
   6  -7   2   30.43    1.32
  -6   7   2   29.19    1.32
   6  -7   2   30.56    1.23
   6   7  -2   30.92    1.34
  -6  -7   2   32.14    1.31
   6  -7  -2   31.28    1.31
   6  -7  -2   29.30    1.37
   6   7   2   30.79    1.34
  -6   7  -2   32.49    1.39
   7  -7   2    5.87    0.64
  -7  -7  -2    5.65    0.61
  -7   7   2    5.51    0.65
   7   7  -2    5.32    0.58
   7  -7   2    5.62    0.51
   7   7  -2    5.68    0.56
  -7  -7   2    4.72    0.58
   7  -7  -2    6.20    0.67
   7  -7  -2    5.45    0.58
   7   7   2    6.21    0.61
  -7   7  -2    6.38    0.66
   8  -7   2    6.98    0.58
   8   7  -2    6.89    0.73
  -8  -7  -2    6.55    0.71
   8  -7   2    6.85    0.70
  -8   7   2    6.06    0.73
   8   7  -2    7.50    0.63
   8  -7  -2    7.68    0.75
   8  -7  -2    9.02    0.76
   8   7   2    6.72    0.70
  -8   7  -2    7.48    0.75
  -8  -7   2    7.18    0.67
   9   7  -2    1.40    0.55
   9  -7   2    0.70    0.35
   9  -7   2    0.66    0.56
  -9   7   2    1.52    0.52
  -9  -7  -2    1.08    0.53
   9   7  -2    1.95    0.42
  -9   7  -2    1.33    0.54
   9  -7  -2    1.79    0.57
   9  -7  -2    1.31    0.51
   9   7   2    1.14    0.48
  -9  -7   2    0.92    0.50
   0   8  -2    0.53    0.15
   0   8   2    0.22    0.19
   0   8  -2    0.56    0.24
   0   8  -2    0.55    0.21
   0  -8   2    0.41    0.19
   0  -8   2    0.71    0.23
   0   8   2    0.66    0.17
   0  -8  -2    0.42    0.17
   0   8   2    0.81    0.23
   1   8  -2   24.24    0.85
   1   8  -2   25.97    1.11
  -1  -8  -2   25.55    1.00
  -1   8   2   24.17    0.94
  -1   8   2   25.53    1.08
   1  -8   2   25.06    1.01
  -1   8   2   24.80    0.97
   1  -8   2   22.54    1.05
   1   8  -2   23.87    0.99
  -1   8  -2   25.91    0.97
   1  -8  -2   23.51    0.99
   1  -8  -2   24.51    1.09
  -1   8  -2   25.93    0.95
  -1  -8   2   27.02    1.14
   1   8   2   23.86    1.02
  -1  -8   2   24.26    1.00
   1   8   2   26.74    1.06
  -2   8   2    7.52    0.49
  -2  -8  -2    7.94    0.53
   2  -8   2    7.09    0.50
  -2   8   2    7.85    0.57
   2   8  -2    7.04    0.51
   2   8  -2    6.88    0.56
  -2   8   2    7.27    0.44
   2  -8   2    7.12    0.52
  -2   8  -2    7.79    0.63
   2   8   2    7.29    0.54
   2  -8  -2    8.35    0.60
   2   8   2    7.45    0.49
  -2  -8   2    5.87    0.54
  -2   8  -2    8.42    0.51
  -2  -8   2    8.22    0.53
   2  -8  -2    7.61    0.51
   3   8  -2   25.08    1.12
  -3   8   2   28.14    1.12
  -3   8   2   25.06    1.16
   3  -8   2   27.76    1.13
   3   8  -2   26.44    1.16
   3  -8   2   26.77    1.16
  -3  -8  -2   28.81    1.13
  -3  -8   2   25.75    1.10
   3   8   2   28.21    1.06
   3  -8  -2   28.81    1.24
  -3   8  -2   27.15    1.13
   3  -8  -2   28.68    1.13
   3   8   2   28.85    1.19
   4  -8   2   26.96    1.16
   4   8  -2   24.13    1.14
   4  -8   2   26.36    1.15
  -4   8   2   27.13    1.23
  -4  -8  -2   28.19    1.15
   4   8  -2   28.67    1.21
  -4   8   2   26.62    1.16
   4  -8  -2   28.79    1.16
  -4   8  -2   26.09    1.15
   4   8   2   27.21    1.01
   4   8   2   25.47    1.17
  -4  -8   2   26.65    1.12
   4  -8  -2   25.84    1.21
  -5  -8  -2    1.07    0.31
   5  -8   2    0.50    0.28
   5   8  -2    0.63    0.33
  -5   8   2    0.58    0.27
   5   8  -2    0.84    0.32
   5  -8   2    0.61    0.29
   5  -8  -2    0.60    0.33
   5   8   2    0.77    0.19
   5  -8  -2    0.35    0.26
  -5  -8   2    0.34    0.27
   5   8   2    0.89    0.30
  -5   8  -2    1.01    0.34
   6   8  -2    0.97    0.35
  -6  -8  -2    0.52    0.31
  -6   8   2    1.66    0.41
   6   8  -2    0.98    0.33
   6  -8   2    1.17    0.39
   6  -8   2    0.75    0.31
   6  -8  -2    0.79    0.34
   6   8   2    0.77    0.36
  -6  -8   2    1.02    0.35
   6  -8  -2    0.71    0.36
  -6   8  -2    1.07    0.35
   7   8  -2    1.20    0.37
  -7   8   2    1.63    0.45
  -7  -8  -2    1.14    0.40
   7  -8   2    1.95    0.47
   7  -8   2    1.65    0.40
   7   8  -2    1.68    0.46
  -7   8  -2    1.43    0.44
   7  -8  -2    2.01    0.51
   7  -8  -2    1.40    0.45
  -7  -8   2    1.26    0.38
   7   8   2    2.03    0.42
  -8   8   2    0.22    0.49
   8  -8   2   -0.21    0.34
   8  -8   2    0.17    0.39
  -8  -8  -2   -0.12    0.41
   8   8  -2    0.00    0.36
   8   8  -2    0.04    0.32
   8  -8  -2    0.17    0.37
  -8   8  -2    0.03    0.40
   8  -8  -2    0.27    0.40
   8   8   2    0.54    0.45
  -8  -8   2   -0.15    0.39
   9   8  -2    0.69    0.37
   9  -8   2    1.10    0.51
   9  -8   2    1.22    0.39
   9   8  -2    1.37    0.60
   9  -8  -2    0.82    0.49
   9  -8  -2    0.68    0.50
   9   8   2    0.90    0.51
  -9  -8   2    1.18    0.50
   0   9   2    6.44    0.49
   0   9   2    5.31    0.51
   0  -9   2    5.96    0.55
   0   9  -2    5.84    0.54
   0   9  -2    6.00    0.46
   0  -9   2    6.53    0.50
   0  -9  -2    5.48    0.45
   0   9  -2    6.07    0.41
  -1   9   2    6.85    0.58
   1  -9   2    5.71    0.50
  -1   9   2    6.44    0.47
   1  -9   2    6.19    0.56
  -1  -9  -2    7.12    0.50
   1   9  -2    8.04    0.65
  -1   9   2    6.47    0.45
   1   9  -2    7.02    0.53
   1  -9  -2    5.82    0.49
  -1   9  -2    6.68    0.58
  -1  -9   2    5.76    0.47
  -1   9  -2    7.17    0.48
  -1   9  -2    6.81    0.46
   1   9   2    5.84    0.52
  -1  -9   2    5.96    0.56
   1   9   2    6.61    0.52
   2   9  -2   37.35    1.42
  -2   9   2   33.76    1.47
  -2  -9  -2   36.43    1.39
   2  -9   2   35.71    1.40
   2   9  -2   36.22    1.49
  -2   9   2   36.07    1.29
  -2   9   2   38.23    1.37
   2  -9   2   36.99    1.48
  -2   9  -2   34.31    1.28
   2  -9  -2   32.45    1.29
   2   9   2   35.50    1.38
   2   9   2   32.03    1.28
  -2  -9   2   33.97    1.30
  -3   9   2    8.38    0.59
  -3   9   2    9.45    0.68
   3  -9   2    7.39    0.62
   3  -9   2    8.60    0.64
   3   9  -2    7.84    0.65
   3   9  -2    8.56    0.67
  -3  -9  -2    8.75    0.60
   3  -9  -2    9.21    0.60
  -3   9  -2    8.81    0.59
   3   9   2    8.67    0.55
   3  -9  -2    8.19    0.69
   3   9   2    8.92    0.65
  -3  -9   2    8.29    0.58
   4   9  -2    3.87    0.49
   4  -9   2    4.83    0.52
   4   9  -2    3.68    0.46
   4  -9   2    3.80    0.46
  -4   9   2    3.45    0.46
  -4   9   2    5.20    0.56
  -4  -9  -2    4.82    0.48
  -4  -9   2    4.23    0.48
  -4   9  -2    4.39    0.49
   4  -9  -2    4.09    0.56
   4   9   2    4.32    0.41
   4  -9  -2    4.00    0.45
   4   9   2    4.01    0.50
   5   9  -2    7.99    0.66
   5  -9   2    6.50    0.62
  -5   9   2    5.90    0.58
  -5  -9  -2    5.85    0.56
   5   9  -2    7.20    0.66
   5  -9   2    6.49    0.61
  -5   9  -2    6.49    0.61
  -5  -9   2    8.13    0.62
   5  -9  -2    7.84    0.61
   5   9   2    6.47    0.44
   5   9   2    6.27    0.62
   5  -9  -2    7.75    0.73
   6   9  -2    7.91    0.68
   6   9  -2    7.72    0.72
  -6   9   2    7.86    0.71
  -6  -9  -2    7.06    0.67
   6  -9   2    7.18    0.65
   6  -9   2    8.58    0.76
  -6   9  -2    7.79    0.69
   6  -9  -2    9.51    0.83
   6  -9  -2    7.21    0.67
   6   9   2    7.46    0.39
   6   9   2    7.49    0.70
  -6  -9   2    7.44    0.66
   7  -9   2    0.67    0.45
  -7  -9  -2    0.65    0.42
   7   9  -2    0.21    0.40
  -7   9   2    0.21    0.36
   7  -9   2    0.26    0.35
   7   9  -2    0.33    0.32
  -7  -9   2    0.37    0.36
   7  -9  -2    0.95    0.44
   7   9   2    0.06    0.41
  -7   9  -2    0.78    0.41
   7  -9  -2    0.26    0.38
  -8  -9  -2    1.89    0.50
   8  -9   2    1.75    0.44
   8  -9   2    0.77    0.49
   8   9  -2    0.98    0.49
  -8   9   2    1.07    0.57
   8   9  -2    2.16    0.49
   8  -9  -2    1.34    0.53
  -8   9  -2    1.41    0.53
   8   9   2    1.89    0.58
   8  -9  -2    1.24    0.51
  -8  -9   2    2.45    0.54
   0 -10  -2    0.24    0.26
   0  10   2    0.71    0.28
   0  10  -2    0.67    0.31
   0 -10   2    0.90    0.30
   0  10  -2    0.46    0.24
   0 -10   2    0.34    0.25
   0  10   2    0.68    0.30
  -1 -10  -2   21.68    1.01
  -1  10   2   23.08    1.11
   1  10  -2   23.02    1.14
   1  10  -2   23.55    1.04
  -1  10   2   22.87    1.00
   1 -10   2   22.34    1.05
  -1  10  -2   22.48    1.15
   1 -10  -2   21.47    1.01
   1  10   2   22.74    1.05
  -1 -10   2   22.11    1.02
   1  10   2   22.80    1.06
  -1  10  -2   22.75    0.94
   2 -10   2    3.47    0.50
   2  10  -2    4.59    0.54
  -2 -10  -2    4.10    0.43
  -2  10   2    4.76    0.58
   2  10  -2    4.02    0.48
   2 -10   2    3.77    0.45
  -2  10   2    3.85    0.42
   2  10   2    3.89    0.44
   2  10   2    4.83    0.53
   2 -10  -2    4.10    0.44
  -2  10  -2    3.71    0.42
  -2 -10   2    3.77    0.46
  -3  10   2    2.40    0.47
   3  10  -2    2.41    0.42
  -3  10   2    2.14    0.37
  -3 -10  -2    2.95    0.40
   3 -10   2    3.01    0.48
   3 -10   2    2.15    0.38
   3  10  -2    2.06    0.45
   3  10   2    2.74    0.45
   3  10   2    1.75    0.34
  -3  10  -2    2.60    0.40
   3 -10  -2    2.61    0.41
  -3 -10   2    2.62    0.39
  -4 -10  -2    7.37    0.62
   4 -10   2    7.06    0.66
   4 -10   2    8.52    0.70
   4  10  -2    8.22    0.69
   4  10  -2    7.42    0.66
  -4  10   2    7.21    0.61
   4  10   2    6.90    0.66
   4 -10  -2    7.32    0.64
   4  10   2    8.43    0.55
   4 -10  -2    9.26    0.82
  -4 -10   2    6.26    0.60
  -4  10  -2    9.05    0.68
  -5 -10  -2    1.25    0.39
   5 -10   2    0.38    0.34
   5 -10   2    0.42    0.37
  -5  10   2    0.79    0.39
   5  10  -2    0.66    0.37
   5  10  -2    0.28    0.33
  -5 -10   2    0.80    0.34
   5  10   2    0.85    0.26
  -5  10  -2    0.74    0.34
   5 -10  -2    1.27    0.42
   5  10   2    0.72    0.39
   5 -10  -2    0.49    0.35
   6 -10   2    1.86    0.45
  -6 -10  -2    1.79    0.45
   6  10  -2    3.00    0.49
   6  10  -2    1.57    0.45
   6 -10   2    1.92    0.46
  -6  10   2    1.66    0.45
  -6  10  -2    1.57    0.43
   6 -10  -2    1.57    0.46
   6  10   2    1.28    0.49
   6  10   2    2.23    0.26
   6 -10  -2    2.64    0.48
  -6 -10   2    1.11    0.38
   7 -10   2    6.80    0.70
  -7  10   2    6.70    0.76
   7  10  -2    6.40    0.76
   7 -10   2    6.37    0.80
   7  10  -2    5.85    0.66
  -7 -10  -2    6.70    0.72
   7 -10  -2    7.03    0.83
   7  10   2    6.71    0.80
   7 -10  -2    5.81    0.68
  -7 -10   2    7.39    0.71
  -7  10  -2    5.43    0.73
   0  11   2   16.99    0.89
   0  11  -2   16.34    0.99
   0 -11   2   16.75    0.91
   0  11  -2   17.32    0.87
   0  11   2   14.44    0.91
   0 -11  -2   16.36    0.87
  -1 -11  -2    4.60    0.49
   1 -11   2    4.09    0.48
   1  11  -2    5.19    0.61
   1 -11   2    4.88    0.60
  -1  11   2    4.60    0.59
   1  11  -2    3.85    0.47
   1  11   2    4.80    0.52
   1  11   2    4.05    0.52
   1 -11  -2    5.62    0.55
  -1 -11   2    4.65    0.51
  -2 -11  -2   10.47    0.71
   2 -11   2    9.72    0.74
   2  11  -2    8.07    0.69
   2 -11   2   10.59    0.87
  -2  11   2   11.46    0.82
   2 -11  -2    8.69    0.69
  -2 -11   2    9.87    0.72
  -2  11  -2    9.90    0.65
   2  11   2    9.58    0.75
   2  11   2    9.42    0.67
  -3  11   2    3.48    0.58
   3  11  -2    4.17    0.53
   3 -11   2    3.42    0.50
   3 -11   2    3.86    0.54
  -3 -11  -2    3.99    0.50
  -3  11   2    3.41    0.45
   3  11  -2    4.34    0.56
   3  11   2    3.92    0.55
   3 -11  -2    3.57    0.48
  -3 -11   2    3.72    0.49
  -3  11  -2    4.02    0.47
   3  11   2    3.86    0.47
   4 -11   2    3.76    0.53
  -4 -11  -2    2.38    0.48
   4  11  -2    3.07    0.51
   4  11  -2    3.54    0.56
   4 -11   2    2.76    0.48
  -4  11   2    3.57    0.52
   4 -11  -2    2.82    0.49
  -4 -11   2    4.33    0.56
   4  11   2    3.46    0.55
   4  11   2    3.58    0.42
  -4  11  -2    2.75    0.46
  -5 -11  -2    6.64    0.67
   5 -11   2    6.61    0.70
   5  11  -2    7.69    0.75
  -5  11   2    8.13    0.73
   5 -11   2    6.58    0.71
   5  11  -2    6.56    0.68
   5  11   2    6.60    0.73
  -5  11  -2    7.36    0.69
   5 -11  -2    6.93    0.80
   5  11   2    6.81    0.53
  -5 -11   2    8.20    0.71
   5 -11  -2    7.48    0.70
   6  11  -2    0.36    0.38
  -6 -11  -2    0.68    0.45
   6 -11   2    1.16    0.50
   6  11  -2    0.84    0.44
   6 -11   2    0.54    0.41
  -6  11   2    1.40    0.51
  -6 -11   2    1.51    0.44
   6 -11  -2    0.92    0.55
   6 -11  -2    1.76    0.52
  -6  11  -2    1.24    0.47
   6  11   2    1.46    0.26
   6  11   2    1.06    0.47
  -7 -11  -2    3.54    0.56
   7 -11   2    2.34    0.54
   7  11  -2    2.72    0.61
   7 -11   2    3.04    0.67
  -7  11   2    2.52    0.61
  -7  11  -2    3.02    0.63
   7  11   2    2.01    0.60
   7 -11  -2    3.72    0.74
  -7 -11   2    3.32    0.55
   7 -11  -2    3.08    0.58
   0 -12  -2    1.62    0.36
   0  12   2    1.04    0.43
   0  12  -2    1.00    0.45
   0  12   2    1.45    0.41
   0 -12   2    0.94    0.38
   1 -12   2    1.78    0.40
   1  12  -2    2.79    0.52
   1  12  -2    2.58    0.46
  -1  12   2    2.06    0.47
  -1 -12  -2    2.83    0.45
   1  12   2    3.37    0.49
   1  12   2    2.65    0.49
  -1 -12   2    2.93    0.49
   1 -12  -2    2.65    0.47
   2  12  -2   11.35    0.93
   2 -12   2   11.59    0.93
   2  12  -2   12.27    0.85
   2 -12   2   12.20    0.86
  -2 -12  -2   11.80    0.83
  -2  12   2   12.20    0.89
  -2 -12   2   12.44    0.84
   2  12   2   11.91    0.79
   2 -12  -2   12.89    0.83
   2  12   2   11.97    0.89
  -3 -12  -2    1.29    0.37
  -3  12   2    1.00    0.46
   3  12  -2    0.49    0.42
   3  12  -2    0.91    0.43
   3 -12   2    1.13    0.46
   3 -12   2    0.69    0.45
  -3 -12   2    1.21    0.39
   3  12   2    0.66    0.47
   3  12   2    1.23    0.38
   3 -12  -2    0.71    0.38
  -4  12   2    7.74    0.70
   4  12  -2    8.11    0.77
   4 -12   2    8.11    0.81
   4 -12   2    7.88    0.75
  -4 -12  -2    7.05    0.69
   4 -12  -2    6.37    0.70
   4  12   2    8.18    0.81
   4  12   2    7.26    0.62
  -4 -12   2    9.06    0.78
  -4  12  -2    7.77    0.72
  -5  12   2    5.67    0.68
   5 -12   2    3.65    0.68
   5 -12   2    5.79    0.72
   5  12  -2    4.48    0.66
  -5 -12  -2    6.71    0.72
   5 -12  -2    5.54    0.68
  -5  12  -2    6.90    0.74
   5  12   2    6.34    0.77
  -5 -12   2    5.30    0.65
   5  12   2    6.11    0.52
  -6 -12  -2    0.88    0.48
   6  12  -2    1.02    0.50
   6  12  -2    0.72    0.47
  -6  12   2    2.12    0.53
   6 -12   2    1.24    0.52
   6 -12   2    0.92    0.51
   6 -12  -2    1.21    0.54
   6  12   2    1.03    0.28
   6  12   2    1.48    0.59
   6 -12  -2    1.10    0.54
  -6  12  -2    0.87    0.54
  -6 -12   2    0.68    0.49
   0 -13   2   28.11    1.35
   0 -13  -2   27.94    1.36
   0  13  -2   28.58    1.50
   0  13   2   27.30    1.39
   1  13  -2    0.73    0.48
  -1  13   2    1.22    0.49
  -1 -13  -2    1.59    0.42
   1 -13   2    1.47    0.45
   1  13   2    1.80    0.42
   1  13   2    1.42    0.45
   1 -13  -2    2.47    0.45
  -1 -13   2    0.84    0.40
   2  13  -2    7.77    0.74
  -2  13   2    8.76    0.87
   2  13  -2    7.32    0.83
   2 -13   2    8.54    0.78
  -2 -13  -2    8.43    0.75
   2 -13   2    8.89    0.91
   2 -13  -2    7.90    0.74
  -2 -13   2    7.53    0.75
   2  13   2    9.06    0.77
   2  13   2    9.04    0.82
   3  13  -2    3.62    0.63
   3  13  -2    3.19    0.61
   3 -13   2    4.53    0.70
   3 -13   2    4.52    0.63
  -3 -13  -2    2.93    0.55
  -3  13   2    3.63    0.66
   3 -13  -2    5.36    0.70
   3  13   2    4.82    0.68
   3  13   2    4.43    0.57
  -3 -13   2    3.77    0.56
  -4 -13  -2    1.12    0.47
   4  13  -2   -0.34    0.41
   4 -13   2    1.40    0.51
   4  13  -2    0.78    0.51
   4 -13   2    0.28    0.48
  -4 -13   2    0.77    0.49
   4  13   2    0.39    0.37
   4  13   2    0.50    0.44
   4 -13  -2    0.61    0.45
   5 -13   2    2.05    0.65
   5  13  -2    2.32    0.63
  -5 -13   2    4.68    0.65
   5 -13  -2    4.07    0.71
   5  13   2    4.10    0.76
   0 -14   2    3.06    0.57
   0  14   2    2.33    0.59
   0 -14  -2    2.92    0.55
   1  14  -2    0.47    0.49
  -1 -14  -2    0.83    0.50
   1 -14   2    0.83    0.51
  -1  14   2    0.38    0.49
  -1 -14   2    0.55    0.43
   1 -14  -2    1.50    0.50
   1  14   2    1.16    0.50
   2 -14   2    2.34    0.57
  -2  14   2    2.64    0.65
  -2 -14  -2    2.77    0.59
   2  14  -2    2.85    0.70
  -2 -14   2    2.95    0.56
   2  14   2    2.65    0.62
   2 -14  -2    2.83    0.63
   2  14   2    2.95    0.57
   3 -14   2    5.40    0.72
   3  14  -2    4.49    0.77
  -3 -14  -2    6.04    0.69
   3 -14   2    6.68    0.88
   3  14  -2    5.91    0.76
   3  14   2    4.51    0.62
   3 -14  -2    3.45    0.64
  -3 -14   2    4.77    0.68
   3  14   2    4.26    0.74
   0   0   3   -0.01    0.04
   0   0   3   -0.07    0.05
   0   0   3   -0.08    0.04
   0   0   3    0.01    0.03
   0   0  -3    0.03    0.07
   1   0  -3  201.55    5.43
   1   0   3  196.30    5.36
  -1   0   3  198.32    5.35
   1   0   3  191.56    5.35
  -1   0   3  200.32    5.41
   1   0   3  189.93    5.25
   2   0   3   45.18    1.37
   2   0  -3   45.37    1.27
   2   0  -3   45.79    1.43
   2   0   3   44.95    1.33
   2   0  -3   45.93    1.39
  -2   0   3   43.43    1.37
   2   0   3   44.79    1.34
  -2   0   3   44.26    1.41
  -3   0  -3   99.91    2.86
   3   0   3  103.85    2.84
  -3   0   3  101.68    2.90
   3   0  -3  101.51    2.99
   3   0  -3   98.47    2.89
  -3   0   3  100.42    2.96
   3   0   3   97.65    2.87
   3   0  -3  100.75    2.79
  -4   0  -3    2.13    0.22
  -4   0   3    2.06    0.27
   4   0   3    2.54    0.21
   4   0  -3    2.85    0.24
   4   0   3    2.45    0.25
   4   0  -3    2.19    0.28
   4   0  -3    2.70    0.25
  -4   0   3    2.52    0.26
  -5   0  -3   15.51    0.66
  -5   0   3   14.49    0.66
   5   0  -3   14.70    0.64
   5   0  -3   15.34    0.73
   5   0   3   12.69    0.67
   5   0  -3   13.42    0.63
   5   0   3   15.44    0.60
  -5   0   3   13.67    0.70
   6   0  -3   40.99    1.43
  -6   0  -3   41.33    1.44
   6   0  -3   40.90    1.53
   6   0   3   40.16    1.50
   6   0   3   43.46    1.36
   6   0  -3   40.08    1.41
  -6   0   3   40.28    1.45
   7   0   3    1.40    0.31
   7   0  -3    0.85    0.28
   7   0  -3    0.85    0.30
  -7   0   3    0.97    0.27
   7   0  -3    1.33    0.26
  -7   0  -3    1.35    0.29
   8   0   3   25.42    1.24
  -8   0   3   26.50    1.19
   8   0  -3   29.17    1.22
   8   0  -3   28.38    1.26
  -8   0  -3   27.27    1.18
   9   0  -3    0.36    0.34
   9   0   3    0.80    0.41
   9   0  -3    0.70    0.38
  10   0  -3    8.83    0.81
  10   0   3    8.48    0.87
  10   0  -3    7.39    0.69
   0  -1   3  216.99    5.78
   0   1   3  221.03    5.90
   0  -1   3  217.26    5.90
   0  -1   3  217.48    5.94
   0   1   3  219.16    5.92
   0  -1   3  215.52    5.94
   0   1   3  212.01    5.91
   0  -1  -3  216.38    5.77
   0   1  -3  220.82    5.94
   1  -1   3  449.20   12.14
   1  -1   3  452.83   11.96
  -1   1   3  461.43   12.14
   1   1  -3  438.53   12.27
   1   1  -3  445.18   12.21
  -1   1   3  445.43   12.25
   1  -1   3  471.65   12.59
   1  -1  -3  443.20   11.97
   1   1   3  446.82   11.87
   1  -1  -3  437.65   12.03
  -1  -1   3  417.52   12.02
  -1  -1   3  434.00   11.87
  -1   1  -3  441.81   11.93
   1   1   3  459.11   11.72
   1   1   3  445.10   11.96
   1  -1  -3  472.81   11.75
  -1  -1   3  430.90   11.69
   2   1  -3    3.68    0.25
  -2   1   3    3.12    0.25
  -2   1   3    3.24    0.25
   2  -1   3    3.43    0.25
   2   1  -3    3.59    0.28
   2  -1   3    4.03    0.24
  -2  -1   3    4.13    0.21
   2   1   3    3.81    0.24
   2   1   3    4.22    0.24
  -2  -1   3    3.76    0.27
   2  -1  -3    4.33    0.29
   2   1   3    4.37    0.25
   2  -1  -3    3.59    0.19
   2  -1  -3    3.57    0.24
  -2  -1   3    3.75    0.24
   3  -1   3   61.41    1.83
   3   1  -3   58.60    1.90
  -3   1   3   62.39    1.89
   3  -1   3   61.10    1.73
  -3   1   3   58.86    1.84
   3   1  -3   61.15    1.74
   3   1  -3   58.48    1.82
  -3  -1   3   57.42    1.81
   3  -1  -3   57.02    1.82
  -3   1  -3   57.39    1.74
   3  -1  -3   58.05    1.74
  -3  -1   3   56.28    1.72
   3   1   3   55.94    1.71
   3  -1  -3   58.15    1.66
   3   1   3   58.46    1.74
   4  -1   3   16.73    0.71
  -4  -1  -3   16.43    0.64
   4   1  -3   16.29    0.68
  -4   1   3   16.27    0.70
   4   1  -3   16.99    0.76
   4   1  -3   17.01    0.65
  -4   1   3   16.36    0.73
   4  -1   3   17.64    0.59
   4  -1  -3   18.03    0.78
   4  -1  -3   17.29    0.66
  -4   1  -3   16.06    0.69
  -4  -1   3   16.99    0.69
  -4  -1   3   18.09    0.77
   4   1   3   17.11    0.68
   4  -1  -3   17.57    0.68
   4   1   3   17.78    0.73
   5   1  -3    9.02    0.49
   5   1  -3    8.59    0.50
   5   1  -3    9.80    0.57
  -5   1   3    8.12    0.54
  -5   1   3    9.00    0.53
   5  -1   3    9.98    0.41
  -5  -1  -3    9.04    0.47
   5  -1   3    9.46    0.54
   5   1   3    7.83    0.50
   5  -1  -3    8.63    0.47
  -5   1  -3    8.97    0.49
   5   1   3    9.26    0.48
   5  -1  -3    8.94    0.46
  -5  -1   3    8.90    0.48
   5  -1  -3    8.68    0.55
  -5  -1   3    9.66    0.57
  -6  -1  -3    9.75    0.53
   6   1  -3    8.55    0.53
   6   1  -3    8.51    0.58
  -6   1   3    9.54    0.58
   6  -1   3    8.87    0.58
   6   1  -3    9.52    0.55
   6  -1  -3    8.52    0.48
   6  -1  -3    8.45    0.59
  -6  -1   3    8.64    0.52
  -6   1  -3   10.22    0.57
   6   1   3    8.24    0.57
   6  -1  -3    9.54    0.54
   6   1   3   10.15    0.53
   7  -1   3    7.60    0.60
   7   1  -3    8.25    0.57
   7   1  -3    7.09    0.52
   7   1  -3    6.96    0.58
  -7   1   3    7.70    0.57
  -7  -1  -3    7.30    0.53
   7  -1  -3    5.78    0.57
   7  -1  -3    7.22    0.55
  -7  -1   3    6.97    0.50
   7   1   3    5.62    0.52
   7  -1  -3    7.01    0.47
  -7   1  -3    8.23    0.59
   8   1  -3   17.99    0.88
   8   1  -3   18.09    0.96
   8   1  -3   19.89    0.97
  -8   1   3   18.29    0.96
   8  -1   3   18.08    1.00
   8  -1  -3   18.93    1.00
  -8  -1   3   18.13    0.91
   8   1   3   19.80    1.03
   8  -1  -3   19.73    0.99
  -8   1  -3   18.51    0.96
   9   1  -3   14.94    0.88
   9   1  -3   17.99    0.94
  -9   1   3   15.09    0.94
   9  -1   3   12.89    0.91
  -9   1  -3   15.90    0.96
   9  -1  -3   17.57    0.97
   9  -1  -3   15.80    0.95
   9   1   3   17.32    1.03
  10   1  -3    4.37    0.56
  10  -1   3    5.17    0.77
  10   1   3    4.93    0.69
  10  -1  -3    4.63    0.59
  10  -1  -3    4.84    0.66
   0   2   3    5.38    0.24
   0  -2   3    5.22    0.27
   0   2  -3    4.91    0.28
   0  -2  -3    5.20    0.22
   0   2  -3    5.06    0.26
   0   2   3    5.13    0.28
   0  -2   3    5.25    0.27
   0  -2   3    5.16    0.23
   0   2   3    5.54    0.26
   0   2   3    5.43    0.24
   1   2  -3  133.18    3.80
   1  -2   3  134.24    3.79
  -1   2   3  131.35    3.81
   1  -2   3  136.23    3.72
   1   2  -3  136.55    3.86
   1  -2   3  137.05    3.77
   1  -2   3  138.07    3.77
  -1   2   3  136.76    3.78
  -1  -2  -3  140.37    3.71
  -1  -2   3  141.70    3.78
   1   2   3  130.46    3.90
  -1   2  -3  139.03    3.85
   1  -2  -3  145.24    3.92
   1  -2  -3  141.84    3.76
  -1  -2   3  137.37    3.85
   1   2   3  139.81    3.83
   1  -2  -3  148.17    3.95
  -1  -2   3  136.29    3.94
   2  -2   3   34.57    1.13
   2  -2   3   34.74    1.02
  -2   2   3   33.73    1.13
   2  -2   3   34.65    1.10
   2  -2   3   35.79    1.02
   2   2  -3   33.51    1.17
   2   2  -3   34.80    1.13
  -2   2   3   35.00    1.15
   2   2   3   37.23    1.16
  -2   2  -3   37.47    1.09
  -2  -2   3   38.11    1.15
   2   2   3   37.32    1.13
  -2  -2   3   37.32    1.24
   2   2   3   37.68    1.20
   2  -2  -3   37.15    1.24
  -2  -2   3   37.21    1.12
   2  -2  -3   38.48    1.11
   2  -2  -3   36.37    1.18
   3  -2   3   23.69    0.68
   3   2  -3   22.72    0.84
   3  -2   3   23.46    0.68
   3   2  -3   23.12    0.90
  -3   2   3   20.55    0.83
  -3   2   3   21.59    0.86
   3  -2   3   22.71    0.84
  -3  -2   3   23.18    0.80
   3   2   3   23.12    0.83
   3  -2  -3   24.45    0.92
  -3  -2   3   22.28    0.79
   3  -2  -3   23.24    0.78
   3   2   3   23.96    0.78
  -3  -2   3   21.59    0.88
  -3   2  -3   23.79    0.71
   3   2   3   24.31    0.84
   3  -2  -3   23.01    0.81
  -3   2  -3   21.99    0.83
  -4   2   3   20.59    0.86
   4  -2   3   20.76    0.64
  -4   2   3   20.16    0.84
   4   2  -3   20.88    0.87
   4  -2   3   18.55    0.81
   4   2  -3   21.30    0.82
  -4  -2  -3   21.62    0.73
   4   2   3   18.38    0.76
  -4  -2   3   19.40    0.75
   4  -2  -3   20.26    0.74
  -4  -2   3   20.35    0.74
   4   2   3   19.07    0.79
   4  -2  -3   19.05    0.84
   4  -2  -3   21.14    0.76
  -4   2  -3   19.44    0.79
  -4  -2   3   19.67    0.84
  -5  -2  -3    7.73    0.41
   5   2  -3    6.90    0.50
  -5   2   3    7.81    0.52
   5  -2   3    7.02    0.47
   5   2  -3    6.88    0.45
  -5   2   3    6.60    0.46
   5  -2  -3    6.82    0.40
   5   2   3    6.96    0.46
   5   2   3    6.98    0.45
  -5  -2   3    7.67    0.51
   5  -2  -3    7.23    0.44
  -5  -2   3    7.62    0.46
  -5  -2   3    7.71    0.43
  -5   2  -3    6.76    0.45
   5  -2  -3    7.86    0.53
   6   2  -3   59.94    2.04
   6  -2   3   64.46    2.11
   6   2  -3   61.29    2.14
  -6   2   3   64.16    2.11
  -6  -2  -3   65.45    1.98
   6  -2  -3   61.60    1.96
   6  -2  -3   58.63    1.86
   6  -2  -3   60.36    2.08
  -6  -2   3   60.26    1.91
   6   2   3   61.43    1.95
   6   2   3   60.98    2.02
  -6   2  -3   56.16    1.99
   7   2  -3   -0.08    0.23
   7   2  -3    0.15    0.25
   7  -2   3   -0.44    0.20
  -7   2   3   -0.04    0.22
  -7  -2   3   -0.05    0.19
   7   2   3   -0.19    0.23
   7   2   3    0.01    0.20
  -7   2  -3    0.05    0.25
   7  -2  -3   -0.22    0.23
   7  -2  -3    0.17    0.25
   8  -2   3   10.10    0.76
   8   2  -3   10.01    0.71
  -8   2   3   10.08    0.74
   8   2  -3   10.87    0.72
   8  -2  -3   12.00    0.76
   8  -2  -3   10.38    0.74
  -8  -2   3    9.83    0.71
   8   2   3   10.80    0.75
  -8   2  -3   10.14    0.75
   9   2  -3    4.89    0.58
  -9   2   3    4.34    0.57
   9  -2   3    4.79    0.62
   9   2   3    3.28    0.58
  -9  -2   3    3.41    0.51
   9  -2  -3    3.56    0.56
   9  -2  -3    5.83    0.60
  -9   2  -3    3.63    0.55
  10  -2   3    6.19    0.76
 -10   2   3    5.62    0.72
  10   2  -3    4.67    0.62
 -10  -2   3    5.26    0.63
  10  -2  -3    5.99    0.67
  10   2   3    5.82    0.70
  10  -2  -3    5.69    0.72
   0   3  -3   49.27    1.47
   0   3  -3   48.60    1.54
   0  -3   3   49.49    1.48
   0   3   3   48.36    1.46
   0   3   3   49.58    1.47
   0  -3  -3   48.95    1.42
   0   3   3   47.47    1.50
   0   3   3   49.46    1.46
   0  -3   3   50.92    1.52
   0  -3   3   50.87    1.44
   1   3  -3   23.69    0.81
  -1   3   3   23.55    0.82
   1  -3   3   21.97    0.81
   1   3  -3   24.30    0.87
  -1  -3  -3   23.05    0.78
   1  -3   3   23.10    0.80
  -1   3   3   24.25    0.81
  -1   3   3   23.14    0.80
   1  -3   3   25.10    0.80
   1   3   3   25.81    0.76
  -1  -3   3   23.93    0.88
  -1   3  -3   24.43    0.79
   1  -3  -3   24.76    0.89
   1  -3  -3   25.85    0.79
  -1  -3   3   26.16    0.82
  -1  -3   3   24.99    0.81
   1   3   3   26.06    0.76
   1   3   3   26.00    0.79
   1   3   3   24.26    0.87
  -2   3   3  287.87    8.01
   2  -3   3  314.43    7.94
   2   3  -3  292.28    7.96
   2  -3   3  283.56    7.92
   2   3  -3  283.48    8.04
  -2   3   3  273.90    7.90
   2  -3   3  289.17    7.81
  -2  -3  -3  290.65    7.81
  -2  -3   3  294.34    8.07
  -2  -3   3  294.75    8.13
   2  -3  -3  298.44    8.05
  -2   3  -3  316.85    8.13
  -2   3  -3  297.58    8.22
  -2  -3   3  301.24    8.35
   2  -3  -3  303.01    8.24
   2   3   3  291.66    8.27
   2  -3  -3  305.86    8.37
   2   3   3  308.92    8.11
   3   3  -3   22.56    0.93
  -3   3   3   23.28    0.90
   3  -3   3   24.00    0.79
   3   3  -3   23.73    0.90
  -3   3   3   23.15    0.92
   3  -3   3   23.16    0.88
  -3  -3  -3   24.86    0.89
   3  -3   3   25.66    0.81
   3  -3  -3   24.23    0.82
   3  -3  -3   23.80    0.94
  -3   3  -3   23.98    0.68
  -3   3  -3   22.44    0.86
   3  -3  -3   23.39    0.83
   3   3   3   24.39    0.77
   3   3   3   21.65    0.87
  -3  -3   3   22.89    0.79
  -3  -3   3   23.94    0.83
  -3  -3   3   24.28    0.93
  -4   3   3   29.91    1.19
   4   3  -3   30.89    1.14
   4  -3   3   30.56    0.99
  -4  -3  -3   31.53    0.99
   4  -3   3   29.68    1.14
   4   3  -3   33.27    1.21
   4  -3   3   33.87    1.01
  -4   3   3   31.69    1.16
   4  -3  -3   32.01    1.25
   4  -3  -3   34.42    1.10
   4   3   3   34.85    1.19
  -4  -3   3   31.79    1.22
   4  -3  -3   33.55    1.13
  -4   3  -3   31.48    1.18
  -4  -3   3   33.11    1.08
  -4  -3   3   31.85    1.12
   5  -3   3    8.92    0.38
  -5   3   3    9.85    0.57
   5  -3   3    9.22    0.56
   5   3  -3    8.56    0.56
  -5   3   3    8.49    0.57
   5   3  -3    9.52    0.54
  -5  -3  -3    8.19    0.42
   5  -3   3    8.93    0.38
  -5   3  -3    9.36    0.55
  -5  -3   3    8.83    0.46
   5   3   3    9.36    0.53
   5  -3  -3    7.30    0.54
   5   3   3    8.70    0.53
  -5  -3   3    9.14    0.52
   5  -3  -3    8.37    0.49
   5  -3  -3    8.74    0.44
   6  -3   3    9.04    0.36
   6  -3   3    8.86    0.60
   6   3  -3    8.35    0.56
   6  -3   3    9.40    0.36
  -6   3   3    7.66    0.58
   6   3  -3    8.77    0.59
   6   3   3    9.44    0.58
   6  -3  -3    7.91    0.54
  -6   3  -3    9.20    0.59
   6  -3  -3    7.71    0.61
   6   3   3    8.30    0.58
  -6  -3   3    8.30    0.56
  -6  -3   3    9.65    0.51
  -7   3   3    3.64    0.46
   7   3  -3    4.25    0.46
   7  -3   3    5.07    0.50
   7   3  -3    3.39    0.42
   7  -3  -3    4.32    0.52
   7   3   3    4.67    0.49
  -7  -3   3    4.67    0.46
   7   3   3    4.60    0.45
  -7   3  -3    4.01    0.45
   7  -3  -3    3.95    0.44
   8   3  -3   13.56    0.81
  -8   3   3   14.11    0.90
   8   3  -3   13.83    0.84
   8  -3   3   15.10    0.89
   8  -3  -3   13.27    0.86
  -8  -3   3   15.02    0.86
   8   3   3   14.81    0.89
   8  -3  -3   16.13    0.90
  -8   3  -3   15.92    0.92
   9   3  -3    2.87    0.50
   9   3  -3    4.30    0.53
   9  -3   3    4.29    0.59
  -9   3   3    2.78    0.57
  -9   3  -3    2.93    0.54
   9  -3  -3    4.02    0.59
  -9  -3   3    3.25    0.51
   9  -3  -3    3.77    0.55
  10  -3   3   23.12    1.32
  10   3  -3   23.22    1.13
 -10  -3  -3   21.00    1.30
 -10   3   3   22.92    1.34
 -10   3  -3   21.55    1.25
  10  -3  -3   21.09    1.18
 -10  -3   3   21.68    1.20
   0   4   3    8.70    0.42
   0  -4  -3    7.83    0.37
   0   4  -3    7.62    0.43
   0   4   3    7.57    0.38
   0   4   3    7.96    0.38
   0  -4   3    7.72    0.41
   0  -4   3    8.56    0.38
   0   4   3    7.97    0.36
   0   4  -3    7.99    0.38
   0  -4   3    8.55    0.39
  -1   4   3   17.32    0.66
  -1  -4  -3   17.43    0.64
  -1   4   3   17.60    0.69
   1  -4   3   18.32    0.69
   1   4  -3   17.22    0.67
  -1   4   3   17.72    0.66
   1   4  -3   17.85    0.73
   1  -4   3   17.56    0.66
   1   4   3   17.88    0.61
   1   4   3   18.42    0.72
   1  -4  -3   18.89    0.74
   1  -4  -3   19.37    0.65
  -1  -4   3   18.51    0.65
  -1  -4   3   18.43    0.66
  -1   4  -3   17.94    0.74
   1   4   3   18.42    0.63
  -1  -4   3   18.26    0.74
  -1   4  -3   18.85    0.63
   1   4   3   18.18    0.62
  -2   4   3   14.96    0.65
  -2  -4  -3   15.41    0.61
   2  -4   3   14.72    0.62
   2   4  -3   13.64    0.66
   2  -4   3   16.47    0.63
   2  -4   3   15.29    0.61
   2   4  -3   14.25    0.63
  -2   4   3   13.93    0.62
   2  -4  -3   14.93    0.58
  -2  -4   3   15.45    0.59
   2   4   3   13.37    0.63
  -2   4  -3   15.21    0.50
  -2  -4   3   15.14    0.55
  -2  -4   3   14.47    0.66
  -2   4  -3   14.52    0.62
  -2   4  -3   16.16    0.68
   2   4   3   15.72    0.47
   2   4   3   14.74    0.47
   2  -4  -3   14.09    0.66
   2   4   3   14.90    0.51
   2  -4  -3   14.83    0.60
   3  -4   3   49.41    1.55
  -3   4   3   50.57    1.64
   3  -4   3   49.82    1.62
   3  -4   3   56.23    1.60
  -3  -4  -3   49.71    1.61
  -3   4   3   48.83    1.67
   3   4  -3   46.00    1.66
   3   4  -3   48.40    1.62
   3   4   3   50.98    1.70
  -3  -4   3   51.55    1.74
   3  -4  -3   50.75    1.60
   3  -4  -3   52.75    1.61
  -3  -4   3   53.42    1.55
  -3   4  -3   54.34    1.69
   3  -4  -3   51.67    1.76
   3   4   3   53.43    1.50
  -3  -4   3   49.47    1.61
   4   4  -3    3.32    0.33
  -4  -4  -3    4.45    0.24
  -4   4   3    4.51    0.39
   4  -4   3    4.11    0.37
  -4   4   3    4.42    0.42
   4  -4   3    4.47    0.30
  -4  -4  -3    4.16    0.37
   4   4  -3    4.53    0.41
   4  -4   3    4.55    0.32
   4  -4  -3    3.86    0.28
  -4  -4   3    4.25    0.34
   4   4   3    4.23    0.37
  -4   4  -3    2.90    0.32
   4  -4  -3    3.87    0.33
  -4  -4   3    3.53    0.38
   4  -4  -3    3.80    0.40
  -4  -4   3    4.46    0.28
   5  -4   3   93.46    2.89
  -5  -4  -3   93.14    2.88
   5   4  -3   93.93    2.90
   5  -4   3   95.02    2.73
   5   4  -3   90.03    2.93
  -5   4   3   91.51    2.91
  -5   4   3   96.49    2.99
  -5   4  -3   99.90    3.06
   5  -4  -3  103.05    2.88
   5   4   3   95.16    3.03
  -5  -4   3   99.03    2.97
   5  -4  -3   97.54    3.14
   5  -4  -3   98.71    2.96
  -6   4   3    1.71    0.32
   6   4  -3    1.34    0.28
   6   4  -3    1.39    0.32
   6  -4   3    1.12    0.19
  -6  -4  -3    2.04    0.35
   6  -4   3    1.09    0.30
   6  -4  -3    1.79    0.32
   6   4   3    1.46    0.29
  -6  -4   3    1.26    0.28
   6  -4  -3    1.75    0.39
  -6   4  -3    1.88    0.33
   7   4  -3    2.91    0.45
  -7  -4  -3    2.92    0.45
  -7   4   3    3.07    0.44
   7   4  -3    3.99    0.48
   7  -4   3    3.66    0.27
   7  -4   3    3.39    0.47
  -7  -4   3    3.99    0.45
  -7   4  -3    3.90    0.47
   7  -4  -3    3.78    0.46
   7   4   3    4.04    0.46
   7  -4  -3    4.36    0.52
   8  -4   3    9.73    0.75
  -8  -4  -3    7.79    0.70
  -8   4   3    9.76    0.76
   8   4  -3    9.57    0.71
   8   4  -3    9.35    0.68
  -8  -4   3    8.21    0.66
   8  -4  -3    9.36    0.78
   8   4   3    9.47    0.68
  -8   4  -3    9.15    0.74
   8  -4  -3   10.06    0.75
   9   4  -3   13.24    0.90
   9  -4   3   14.23    0.97
  -9   4   3   14.12    0.98
  -9  -4  -3   15.33    1.02
   9   4  -3   14.21    0.86
   9  -4  -3   14.25    0.94
  -9   4  -3   15.40    0.99
   9  -4  -3   14.72    0.95
  -9  -4   3   14.15    0.91
  10  -4   3    4.42    0.70
  10   4  -3    4.34    0.57
 -10   4   3    4.33    0.73
 -10  -4  -3    4.55    0.70
 -10   4  -3    3.61    0.64
  10  -4  -3    3.51    0.62
 -10  -4   3    4.92    0.66
   0  -5  -3  190.56    5.05
   0  -5   3  179.40    5.08
   0   5   3  178.38    5.16
   0  -5   3  181.18    5.06
   0   5  -3  183.91    5.11
   0  -5   3  179.04    5.22
   0   5   3  185.54    5.17
   0   5  -3  187.24    5.27
   0  -5  -3  185.67    5.21
   0   5   3  186.50    5.06
  -1  -5  -3   21.90    0.79
  -1   5   3   21.86    0.84
  -1   5   3   21.11    0.79
   1  -5   3   21.01    0.79
  -1   5   3   20.63    0.78
   1  -5   3   20.36    0.83
   1   5  -3   21.82    0.88
   1   5  -3   21.15    0.80
   1   5   3   22.04    0.73
  -1   5  -3   24.39    0.92
   1   5   3   21.45    0.78
   1  -5  -3   23.62    0.90
  -1  -5   3   21.82    0.89
   1  -5  -3   22.06    0.79
   1   5   3   22.66    0.79
  -1   5  -3   22.47    0.76
  -1   5  -3   23.08    0.82
  -1  -5   3   22.70    0.78
   1   5   3   21.21    0.85
  -1  -5   3   22.73    0.81
   2  -5   3  119.94    3.45
  -2   5   3  123.87    3.51
   2   5  -3  117.35    3.44
   2  -5   3  116.12    3.38
  -2  -5  -3  115.28    3.36
  -2   5   3  117.14    3.37
   2   5  -3  116.43    3.52
  -2   5   3  116.09    3.41
  -2   5  -3  131.46    3.47
   2   5   3  118.60    3.65
  -2  -5   3  124.36    3.48
   2  -5  -3  127.65    3.53
  -2   5  -3  125.39    3.60
  -2  -5   3  125.56    3.71
  -2  -5   3  117.41    3.53
   2  -5  -3  124.28    3.72
   2   5   3  127.02    3.50
  -2   5  -3  126.84    3.72
   2   5   3  119.16    3.49
   2   5   3  131.54    3.42
   3  -5   3    7.27    0.42
  -3  -5  -3    7.66    0.45
   3   5  -3    6.98    0.48
  -3   5   3    7.70    0.47
  -3   5   3    6.83    0.49
   3  -5   3    7.18    0.45
   3   5  -3    7.57    0.46
   3   5   3    6.97    0.29
   3  -5  -3    7.27    0.43
   3   5   3    7.41    0.26
   3  -5  -3    7.94    0.42
  -3  -5   3    7.42    0.44
   3   5   3    7.02    0.46
  -3  -5   3    7.20    0.48
  -3  -5   3    7.13    0.34
  -3   5  -3    7.21    0.46
   3  -5  -3    6.05    0.49
  -4   5   3   43.95    1.61
   4   5  -3   44.25    1.56
  -4   5   3   44.00    1.56
   4   5  -3   43.17    1.58
   4  -5   3   45.15    1.47
   4  -5   3   43.49    1.53
  -4  -5  -3   44.49    1.53
  -4  -5   3   48.36    1.70
   4  -5  -3   44.64    1.68
  -4  -5   3   46.85    1.57
  -4   5  -3   47.31    1.64
   4  -5  -3   45.96    1.55
   4  -5  -3   49.44    1.51
   4   5   3   47.41    1.65
   5  -5   3    3.13    0.37
   5   5  -3    3.92    0.43
   5   5  -3    4.40    0.42
  -5   5   3    3.86    0.41
  -5  -5  -3    3.78    0.39
  -5   5   3    4.43    0.46
   5  -5   3    4.61    0.37
  -5  -5   3    4.29    0.40
   5   5   3    4.83    0.46
   5  -5  -3    4.53    0.41
   5  -5  -3    4.40    0.48
  -5   5  -3    3.61    0.40
   6   5  -3    8.96    0.64
   6   5  -3    7.67    0.62
  -6  -5  -3    9.07    0.62
   6  -5   3    8.64    0.63
  -6   5   3    8.90    0.65
   6  -5   3    8.02    0.47
   6  -5  -3    9.47    0.59
   6   5   3    9.00    0.63
   6  -5  -3    8.13    0.69
  -6  -5   3    8.06    0.59
  -6   5  -3    8.71    0.61
   7   5  -3    2.77    0.44
   7   5  -3    3.22    0.46
   7  -5   3    3.33    0.46
  -7   5   3    4.31    0.51
   7  -5   3    3.39    0.32
  -7  -5  -3    3.64    0.52
   7   5   3    3.45    0.47
   7  -5  -3    2.97    0.49
  -7  -5   3    3.35    0.45
   7  -5  -3    4.01    0.47
  -7   5  -3    3.47    0.50
  -8   5   3   13.85    0.90
   8  -5   3   12.21    0.51
   8   5  -3   12.32    0.82
   8   5  -3   11.82    0.78
  -8  -5  -3   12.05    0.85
   8  -5   3   11.96    0.86
  -8   5  -3   11.54    0.85
   8  -5  -3   12.50    0.81
   8   5   3   14.11    0.89
   8  -5  -3   13.04    0.89
  -8  -5   3   12.98    0.80
   9  -5   3    4.12    0.64
  -9   5   3    3.14    0.56
  -9  -5  -3    2.16    0.54
   9   5  -3    3.05    0.52
   9   5  -3    3.70    0.53
   9  -5  -3    3.32    0.58
  -9   5  -3    4.20    0.61
  -9  -5   3    4.07    0.57
   9  -5  -3    3.54    0.61
   0  -6   3   18.75    0.80
   0  -6  -3   17.06    0.77
   0   6  -3   17.85    0.71
   0   6   3   17.54    0.74
   0  -6  -3   17.38    0.70
   0   6   3   18.47    0.67
   0  -6   3   17.61    0.73
   0   6  -3   18.78    0.69
   0   6   3   17.04    0.73
   1   6  -3    2.27    0.31
   1   6  -3    1.97    0.24
  -1  -6  -3    2.01    0.25
  -1   6   3    1.99    0.24
  -1   6   3    2.47    0.24
   1  -6   3    1.90    0.25
   1  -6   3    2.44    0.30
  -1   6   3    2.07    0.26
   1   6   3    2.33    0.28
   1   6   3    2.02    0.23
  -1   6  -3    2.31    0.32
  -1  -6   3    1.92    0.21
   1   6   3    1.87    0.18
   1   6   3    2.08    0.23
  -1   6  -3    2.32    0.24
  -1   6  -3    2.37    0.23
  -1  -6   3    2.05    0.30
  -1  -6   3    2.05    0.23
   1  -6  -3    2.04    0.23
   1  -6  -3    1.37    0.25
  -2   6   3   31.06    1.20
  -2   6   3   31.93    1.10
   2  -6   3   30.10    1.16
   2  -6   3   31.90    1.15
  -2  -6  -3   33.54    1.15
  -2   6   3   32.43    1.15
   2   6  -3   31.64    1.23
   2   6  -3   32.25    1.17
   2   6   3   34.24    1.11
   2  -6  -3   33.89    1.16
   2   6   3   32.71    1.24
   2  -6  -3   33.41    1.27
   2   6   3   35.21    1.00
  -2  -6   3   33.11    1.17
  -2   6  -3   32.31    1.18
  -2  -6   3   33.82    1.07
  -2  -6   3   33.40    1.28
   2   6   3   33.23    1.11
  -2   6  -3   33.15    1.29
  -2   6  -3   34.80    1.07
   3   6  -3    5.57    0.44
  -3   6   3    5.40    0.43
   3  -6   3    5.54    0.40
   3   6  -3    4.97    0.43
  -3   6   3    5.86    0.47
   3  -6   3    4.37    0.39
  -3  -6  -3    4.74    0.39
  -3  -6   3    4.88    0.44
   3  -6  -3    5.79    0.36
  -3  -6   3    5.97    0.43
   3  -6  -3    5.93    0.41
   3  -6  -3    6.01    0.50
   3   6   3    6.36    0.31
   3   6   3    6.15    0.30
   3   6   3    5.29    0.46
  -3   6  -3    6.80    0.45
   4  -6   3   16.68    0.84
   4   6  -3   17.43    0.85
  -4   6   3   19.72    0.93
  -4   6   3   18.08    0.87
  -4  -6  -3   17.79    0.82
   4   6  -3   18.54    0.88
   4  -6   3   16.75    0.78
   4   6   3   17.15    0.86
  -4  -6   3   18.75    0.83
   4  -6  -3   19.44    0.83
  -4   6  -3   18.35    0.87
   4  -6  -3   18.50    0.94
   4  -6  -3   18.90    0.73
   5  -6   3    8.40    0.59
  -5   6   3    6.87    0.57
  -5  -6  -3    8.47    0.60
   5   6  -3    7.95    0.60
   5   6  -3    7.59    0.58
   5  -6   3    7.51    0.50
  -5   6   3    7.99    0.63
   5  -6  -3    8.65    0.69
   5  -6  -3    8.12    0.56
  -5   6  -3    7.42    0.58
  -5  -6   3    8.11    0.54
   5   6   3    8.14    0.59
  -6   6   3    8.48    0.68
   6   6  -3    9.03    0.66
   6  -6   3    8.71    0.66
   6  -6   3    9.42    0.54
  -6  -6  -3    8.36    0.66
   6   6  -3    9.79    0.73
   6  -6  -3    9.31    0.63
  -6  -6   3    8.63    0.62
  -6   6  -3    9.67    0.68
   6  -6  -3    9.78    0.74
   6   6   3    8.00    0.65
   7  -6   3   25.88    1.20
  -7   6   3   23.86    1.21
   7   6  -3   25.36    1.16
   7  -6   3   22.71    0.95
   7   6  -3   23.58    1.17
  -7  -6  -3   24.88    1.18
   7   6   3   25.16    1.19
   7  -6  -3   25.07    1.25
  -7   6  -3   25.03    1.23
  -7  -6   3   24.12    1.14
   7  -6  -3   26.70    1.20
   8   6  -3    1.83    0.43
   8   6  -3    1.30    0.40
  -8  -6  -3    1.67    0.48
   8  -6   3    1.42    0.27
   8  -6   3    2.49    0.50
  -8   6   3    2.23    0.48
  -8  -6   3    2.04    0.44
   8   6   3    1.74    0.48
   8  -6  -3    1.09    0.45
  -8   6  -3    1.75    0.48
   8  -6  -3    0.81    0.49
  -9   6   3   17.03    1.16
   9   6  -3   18.53    1.01
   9  -6   3   18.88    1.17
   9   6  -3   19.73    1.14
  -9  -6  -3   19.06    1.17
   9  -6  -3   18.43    1.12
   9  -6  -3   19.53    1.18
  -9  -6   3   18.83    1.12
  -9   6  -3   20.08    1.24
   9   6   3   21.05    1.20
   0   7  -3  125.47    3.63
   0   7  -3  131.72    3.56
   0   7   3  128.43    3.68
   0   7  -3  129.08    3.83
   0   7   3  122.78    3.53
   0  -7  -3  124.63    3.59
   0  -7   3  118.41    3.60
   0  -7   3  117.48    3.74
   0   7   3  123.79    3.69
  -1   7   3   12.46    0.59
   1  -7   3   13.33    0.66
   1   7  -3   12.71    0.65
   1   7  -3   13.79    0.54
  -1   7   3   13.63    0.68
  -1   7   3   13.90    0.63
  -1  -7  -3   12.89    0.63
   1   7  -3   12.79    0.71
   1  -7   3   14.00    0.71
  -1  -7   3   12.41    0.69
   1   7   3   12.94    0.62
  -1   7  -3   13.76    0.60
   1   7   3   14.36    0.53
  -1  -7   3   13.30    0.64
   1   7   3   14.23    0.68
  -1   7  -3   12.81    0.73
  -1   7  -3   13.77    0.62
   1  -7  -3   12.89    0.70
   1  -7  -3   12.99    0.62
   2  -7   3   86.97    2.69
  -2   7   3   88.08    2.63
   2   7  -3   91.16    2.51
   2  -7   3   89.08    2.77
   2   7  -3   86.09    2.73
  -2   7   3   86.99    2.78
   2   7  -3   88.87    2.82
  -2  -7  -3   89.40    2.68
  -2   7   3   83.90    2.66
   2  -7  -3   88.60    2.83
  -2   7  -3   83.07    2.68
   2  -7  -3   89.75    2.65
  -2  -7   3   85.74    2.81
  -2  -7   3   88.96    2.67
   2   7   3   91.46    2.65
   2   7   3   89.70    2.77
   3  -7   3   -0.15    0.15
  -3   7   3   -0.21    0.19
   3   7  -3   -0.01    0.20
  -3   7   3    0.12    0.18
   3   7  -3   -0.04    0.21
  -3  -7  -3   -0.13    0.17
   3  -7   3   -0.13    0.17
   3  -7  -3   -0.06    0.24
  -3  -7   3   -0.09    0.19
  -3   7  -3   -0.05    0.17
   3   7   3   -0.14    0.20
  -3  -7   3    0.02    0.15
   3  -7  -3   -0.01    0.16
   3  -7  -3   -0.08    0.16
   3   7   3   -0.03    0.13
   4   7  -3    5.88    0.51
   4  -7   3    6.07    0.49
   4  -7   3    6.29    0.51
  -4   7   3    6.62    0.58
  -4  -7  -3    6.48    0.50
  -4   7   3    6.12    0.51
   4   7  -3    6.72    0.57
  -4  -7   3    6.27    0.48
   4   7   3    5.62    0.50
   4  -7  -3    5.73    0.45
   4  -7  -3    5.34    0.54
  -4   7  -3    7.37    0.54
   4   7   3    6.42    0.30
   4   7   3    6.02    0.31
   5   7  -3    8.56    0.66
  -5  -7  -3    8.54    0.61
  -5   7   3    9.55    0.67
   5   7  -3    8.64    0.64
   5  -7   3    8.39    0.55
   5  -7   3    7.89    0.61
   5   7   3    8.49    0.63
  -5  -7   3    9.36    0.61
   5  -7  -3    8.69    0.70
  -5   7  -3    8.47    0.66
   5  -7  -3    9.92    0.63
   6  -7   3    0.79    0.27
   6  -7   3    0.65    0.32
   6   7  -3    1.03    0.34
  -6  -7  -3    0.85    0.32
  -6   7   3    0.54    0.32
   6   7  -3    0.43    0.30
   6  -7  -3    0.85    0.32
  -6   7  -3    0.75    0.32
  -6  -7   3    0.67    0.27
   6   7   3    1.32    0.38
   6  -7  -3    0.70    0.34
   7   7  -3    0.02    0.29
   7  -7   3   -0.05    0.33
   7   7  -3    0.42    0.34
   7  -7   3    0.17    0.25
  -7   7   3   -0.02    0.34
  -7  -7  -3    0.22    0.30
   7  -7  -3    0.21    0.34
   7   7   3    0.01    0.36
   7  -7  -3    0.74    0.38
  -7   7  -3    0.23    0.40
  -7  -7   3    0.61    0.32
  -8  -7  -3    3.44    0.57
  -8   7   3    2.76    0.57
   8   7  -3    2.62    0.50
   8  -7   3    2.50    0.37
   8  -7   3    2.60    0.52
   8   7  -3    2.13    0.48
  -8   7  -3    2.28    0.54
   8   7   3    2.08    0.52
   8  -7  -3    2.38    0.54
  -8  -7   3    3.03    0.51
   8  -7  -3    2.92    0.55
   9   7  -3    2.62    0.59
   9  -7   3    2.20    0.31
  -9  -7  -3    2.34    0.55
   9  -7   3    2.17    0.63
   9   7  -3    3.05    0.50
  -9   7   3    1.94    0.58
  -9   7  -3    2.86    0.67
  -9  -7   3    2.33    0.55
   9  -7  -3    2.32    0.60
   9   7   3    2.05    0.58
   0   8  -3    6.53    0.44
   0   8  -3    5.17    0.51
   0  -8   3    5.95    0.46
   0   8   3    5.98    0.49
   0   8   3    5.90    0.46
   0   8   3    6.14    0.38
   0  -8   3    6.41    0.52
   0  -8  -3    6.69    0.46
   0   8  -3    6.33    0.39
   1   8  -3   14.71    0.71
   1   8  -3   13.08    0.77
  -1  -8  -3   13.43    0.68
  -1   8   3   12.86    0.72
   1  -8   3   13.76    0.75
  -1   8   3   13.66    0.66
  -1   8   3   14.04    0.65
   1  -8   3   13.21    0.69
   1   8  -3   13.10    0.56
  -1   8  -3   14.65    0.82
   1  -8  -3   14.57    0.70
  -1  -8   3   14.79    0.79
  -1   8  -3   14.36    0.67
   1   8   3   13.60    0.69
  -1   8  -3   15.66    0.67
   1   8   3   13.62    0.73
  -1  -8   3   13.57    0.69
   2  -8   3    2.50    0.36
  -2   8   3    2.84    0.39
  -2   8   3    2.87    0.31
  -2   8   3    2.59    0.32
   2   8  -3    2.72    0.40
   2   8  -3    2.84    0.35
  -2  -8  -3    3.43    0.37
   2  -8   3    2.60    0.34
   2   8   3    3.36    0.41
  -2   8  -3    3.03    0.34
   2   8   3    2.75    0.31
   2  -8  -3    2.72    0.32
  -2  -8   3    2.49    0.38
  -2  -8   3    2.87    0.35
  -3  -8  -3    3.24    0.39
   3  -8   3    2.90    0.39
   3   8  -3    2.65    0.40
  -3   8   3    3.31    0.39
   3   8  -3    3.30    0.43
  -3   8   3    3.29    0.44
   3  -8   3    3.36    0.38
  -3  -8   3    2.41    0.31
   3  -8  -3    3.08    0.37
   3   8   3    2.47    0.37
   3  -8  -3    2.77    0.44
  -3   8  -3    3.11    0.37
   3   8   3    2.88    0.29
   4  -8   3    0.91    0.28
   4  -8   3    0.40    0.23
  -4  -8  -3    0.66    0.26
   4   8  -3    0.76    0.30
   4   8  -3    1.04    0.30
  -4   8   3    1.03    0.32
  -4   8   3    1.23    0.36
  -4   8  -3    1.08    0.32
  -4  -8   3    1.06    0.30
   4   8   3    1.80    0.35
   4  -8  -3    1.41    0.33
   4   8   3    1.02    0.19
   4  -8  -3    1.36    0.39
  -5  -8  -3    1.24    0.32
   5  -8   3    0.99    0.31
   5   8  -3    1.09    0.35
   5   8  -3    0.85    0.31
  -5   8   3    0.76    0.30
   5  -8   3    1.30    0.33
  -5   8  -3    1.69    0.36
   5  -8  -3    1.50    0.35
   5  -8  -3    1.47    0.42
  -5  -8   3    1.41    0.30
   5   8   3    1.75    0.38
   6   8  -3    1.94    0.43
   6   8  -3    2.50    0.44
   6  -8   3    2.75    0.48
   6  -8   3    2.60    0.40
  -6   8   3    3.37    0.49
  -6  -8  -3    2.79    0.44
   6   8   3    2.78    0.46
  -6  -8   3    2.38    0.39
   6  -8  -3    3.20    0.45
   6  -8  -3    3.52    0.58
  -6   8  -3    2.42    0.44
   7   8  -3   21.55    1.20
   7  -8   3   24.44    1.24
  -7  -8  -3   22.93    1.21
   7   8  -3   24.13    1.18
  -7   8   3   23.16    1.25
   7  -8   3   23.22    1.05
   7  -8  -3   24.63    1.20
  -7  -8   3   24.52    1.20
   7   8   3   23.85    1.25
   7  -8  -3   22.94    1.30
  -7   8  -3   23.99    1.28
   8   8  -3    5.45    0.61
   8  -8   3    5.15    0.70
   8  -8   3    5.55    0.52
   8   8  -3    3.14    0.62
  -8   8   3    5.32    0.68
  -8  -8  -3    5.06    0.69
  -8   8  -3    6.04    0.70
   8  -8  -3    5.11    0.69
   8   8   3    5.08    0.72
  -8  -8   3    6.12    0.64
   8  -8  -3    5.51    0.69
   0  -9   3   66.62    2.10
   0   9  -3   64.38    2.27
   0   9   3   62.77    2.09
   0  -9  -3   61.23    2.04
   0   9  -3   60.36    2.03
   0  -9   3   57.40    2.17
   0   9  -3   63.89    1.97
   0   9   3   61.46    2.12
   1  -9   3   78.65    2.47
   1   9  -3   76.09    2.45
  -1   9   3   74.61    2.52
  -1   9   3   73.34    2.35
   1   9  -3   75.22    2.61
  -1  -9  -3   75.32    2.42
   1  -9   3   77.47    2.58
  -1   9   3   76.83    2.42
   1   9   3   73.76    2.48
   1   9   3   77.99    2.53
  -1  -9   3   78.05    2.47
   1  -9  -3   76.18    2.45
  -1   9  -3   79.34    2.42
  -1  -9   3   77.60    2.63
   2   9  -3   21.88    1.02
  -2   9   3   21.60    0.92
   2   9  -3   22.31    1.09
  -2   9   3   21.97    1.07
   2  -9   3   21.74    1.05
   2  -9   3   21.53    1.00
  -2  -9  -3   22.09    0.98
  -2   9   3   21.05    0.94
   2   9   3   21.90    0.93
  -2  -9   3   21.89    0.97
   2   9   3   21.95    1.03
   2  -9  -3   21.46    0.96
  -2   9  -3   22.40    0.96
   3  -9   3   19.18    0.96
   3  -9   3   18.02    0.95
  -3  -9  -3   19.90    0.94
   3   9  -3   20.36    0.99
  -3   9   3   19.16    0.93
   3   9  -3   20.14    1.04
  -3   9   3   20.76    1.04
   3   9   3   20.72    1.04
  -3   9  -3   23.05    1.02
   3  -9  -3   20.15    0.96
  -3  -9   3   21.74    0.99
   3   9   3   21.62    0.89
   4   9  -3    3.74    0.48
  -4   9   3    4.82    0.50
  -4  -9  -3    4.40    0.49
  -4   9   3    3.99    0.54
   4   9  -3    4.38    0.52
   4  -9   3    3.71    0.47
   4  -9   3    4.65    0.49
   4  -9  -3    4.48    0.56
  -4   9  -3    4.41    0.50
  -4  -9   3    3.50    0.44
   4   9   3    3.84    0.49
   4  -9  -3    3.85    0.45
   4   9   3    4.32    0.35
   5   9  -3    1.21    0.37
  -5   9   3    0.80    0.36
   5  -9   3    1.06    0.33
  -5  -9  -3    1.31    0.36
   5  -9   3    1.33    0.39
   5   9  -3    1.50    0.37
  -5  -9   3    1.42    0.39
  -5   9  -3    1.27    0.36
   5  -9  -3    1.25    0.37
   5   9   3    1.52    0.42
   5  -9  -3    1.63    0.46
   6  -9   3    0.54    0.35
   6  -9   3    0.66    0.33
   6   9  -3    1.23    0.43
   6   9  -3    0.26    0.36
  -6   9   3    1.01    0.38
  -6  -9  -3    0.48    0.33
   6  -9  -3    0.46    0.37
   6   9   3    0.43    0.39
   6  -9  -3    0.84    0.43
  -6  -9   3    1.02    0.36
  -6   9  -3    0.79    0.40
   7   9  -3    1.34    0.47
   7   9  -3    2.04    0.45
  -7  -9  -3    2.58    0.50
  -7   9   3    1.57    0.47
   7  -9   3    1.86    0.47
   7  -9   3    2.40    0.44
   7   9   3    1.16    0.45
   7  -9  -3    1.43    0.50
  -7   9  -3    1.40    0.49
  -7  -9   3    1.53    0.46
   7  -9  -3    1.00    0.49
   8  -9   3    1.22    0.54
   8  -9   3    1.18    0.40
   8   9  -3    0.70    0.55
  -8  -9  -3    0.19    0.49
  -8   9   3    1.54    0.55
   8   9  -3    1.68    0.46
  -8  -9   3    1.99    0.52
   8   9   3    1.16    0.50
   8  -9  -3    1.49    0.61
  -8   9  -3    2.03    0.56
   8  -9  -3    2.08    0.54
   0  10   3   11.40    0.71
   0 -10   3   10.07    0.74
   0 -10   3   11.85    0.70
   0  10  -3   11.52    0.81
   0 -10  -3   10.86    0.69
   0  10  -3   11.01    0.67
   0  10   3   10.59    0.70
  -1 -10  -3   11.52    0.72
  -1  10   3   11.73    0.68
   1  10  -3   10.94    0.81
   1 -10   3   10.78    0.70
   1 -10   3   10.94    0.75
  -1  10   3   12.57    0.77
   1  10  -3   10.73    0.69
  -1  10  -3   10.43    0.63
   1 -10  -3    9.82    0.65
  -1 -10   3    9.85    0.68
  -1 -10   3   13.10    0.82
   1  10   3   12.55    0.74
   1  10   3   10.16    0.67
  -2 -10  -3    3.84    0.46
   2 -10   3    2.90    0.40
   2 -10   3    2.37    0.42
  -2  10   3    3.48    0.51
  -2  10   3    2.42    0.37
   2  10  -3    3.54    0.46
   2  10  -3    3.31    0.50
   2  10   3    3.66    0.41
   2  10   3    3.44    0.47
  -2 -10   3    3.02    0.39
   2 -10  -3    2.66    0.41
  -2  10  -3    3.36    0.41
   3 -10   3    7.27    0.66
   3  10  -3    6.08    0.61
   3 -10   3    5.91    0.56
  -3 -10  -3    5.80    0.58
   3  10  -3    6.86    0.64
  -3  10   3    7.75    0.59
  -3  10   3    6.12    0.66
  -3  10  -3    5.93    0.53
   3 -10  -3    6.26    0.57
   3  10   3    5.43    0.49
  -3 -10   3    5.67    0.54
   3  10   3    6.73    0.61
   4 -10   3    8.63    0.72
  -4  10   3    9.98    0.73
  -4 -10  -3   10.76    0.75
  -4  10   3   12.08    0.91
   4  10  -3    9.45    0.76
   4  10  -3   10.80    0.83
   4 -10   3    9.11    0.76
   4 -10  -3    8.75    0.69
   4  10   3   10.22    0.56
  -4 -10   3   10.58    0.72
  -4  10  -3   12.29    0.76
   4  10   3   10.24    0.81
   5 -10   3    7.38    0.73
   5  10  -3    8.38    0.77
   5  10  -3    7.59    0.72
  -5  10   3    8.21    0.70
  -5 -10  -3    8.53    0.70
   5 -10   3    7.65    0.70
   5  10   3    9.23    0.43
  -5  10  -3    8.58    0.75
   5 -10  -3    8.50    0.86
   5  10   3    9.36    0.79
   5 -10  -3   10.34    0.75
  -5 -10   3    9.99    0.75
  -6 -10  -3    2.76    0.53
   6 -10   3    3.22    0.54
   6 -10   3    2.59    0.48
  -6  10   3    3.72    0.59
   6  10  -3    2.88    0.53
   6  10  -3    2.20    0.50
  -6 -10   3    2.84    0.51
   6  10   3    3.00    0.58
   6 -10  -3    2.91    0.54
   6 -10  -3    4.74    0.67
  -6  10  -3    3.01    0.56
   7 -10   3   20.17    1.20
  -7  10   3   21.48    1.26
  -7 -10  -3   19.97    1.17
   7  10  -3   21.01    1.16
   7 -10   3   17.73    1.02
   7  10  -3   21.48    1.26
  -7  10  -3   23.62    1.33
   7 -10  -3   22.89    1.31
   7 -10  -3   20.67    1.21
   7  10   3   21.06    1.27
  -7 -10   3   21.66    1.20
   0 -11  -3   11.34    0.75
   0  11   3   12.31    0.77
   0 -11   3   13.14    0.87
   0 -11   3   12.19    0.76
   0  11   3   11.63    0.77
  -1  11   3   11.15    0.79
   1 -11   3   12.46    0.81
   1  11  -3   13.17    0.91
   1 -11   3   13.45    0.89
   1  11  -3   14.94    0.83
  -1 -11  -3   11.36    0.74
  -1  11   3   14.15    0.80
  -1 -11   3   13.75    0.80
   1 -11  -3   12.54    0.77
   1  11   3   12.71    0.78
   1  11   3   13.09    0.81
   2  11  -3   15.65    0.91
   2 -11   3   17.37    0.97
   2 -11   3   14.51    0.93
   2  11  -3   17.09    1.05
  -2  11   3   15.66    0.95
  -2 -11  -3   15.57    0.86
  -2  11  -3   17.45    0.88
   2 -11  -3   15.97    0.92
   2  11   3   18.58    0.99
  -2 -11   3   16.99    0.92
   2  11   3   15.79    0.86
  -3  11   3   25.44    1.16
   3 -11   3   24.98    1.27
  -3  11   3   25.96    1.32
   3 -11   3   23.93    1.20
   3  11  -3   24.22    1.21
  -3 -11  -3   24.68    1.19
   3  11  -3   24.69    1.29
  -3 -11   3   25.43    1.19
  -3  11  -3   25.39    1.18
   3 -11  -3   24.07    1.15
   3  11   3   24.94    1.26
   3  11   3   24.23    1.06
   4  11  -3    7.67    0.72
  -4 -11  -3    7.67    0.68
   4 -11   3    8.93    0.79
   4 -11   3    8.45    0.73
  -4  11   3    8.40    0.81
   4  11  -3    8.89    0.83
  -4  11   3    9.74    0.74
  -4  11  -3    9.44    0.77
  -4 -11   3    9.57    0.72
   4  11   3    8.20    0.54
   4  11   3    8.69    0.80
   4 -11  -3   10.42    0.78
   5 -11   3    3.72    0.56
  -5  11   3    3.41    0.54
   5  11  -3    3.63    0.58
   5  11  -3    3.33    0.60
   5 -11   3    3.60    0.55
  -5 -11  -3    4.74    0.63
   5  11   3    3.53    0.58
  -5 -11   3    3.38    0.52
  -5  11  -3    5.19    0.60
   5 -11  -3    5.67    0.64
   5  11   3    4.23    0.34
  -6 -11  -3    2.59    0.55
   6  11  -3    1.91    0.53
   6  11  -3    2.97    0.59
   6 -11   3    1.52    0.49
  -6  11   3    2.16    0.54
   6 -11   3    1.98    0.56
   6 -11  -3    3.70    0.68
  -6 -11   3    2.76    0.53
  -6  11  -3    2.14    0.49
   6  11   3    2.43    0.56
   6 -11  -3    2.57    0.56
   0 -12   3    0.06    0.30
   0  12   3    0.52    0.37
   0 -12  -3   -0.32    0.27
   0  12   3    0.20    0.33
   1 -12   3   23.77    1.28
  -1 -12  -3   22.37    1.11
  -1  12   3   20.77    1.16
   1  12  -3   23.18    1.27
   1  12  -3   21.16    1.10
   1  12   3   21.04    1.09
   1  12   3   22.46    1.14
   1 -12  -3   21.25    1.09
  -1 -12   3   22.67    1.13
   2 -12   3   -0.65    0.32
   2  12  -3    0.12    0.33
   2  12  -3    0.17    0.34
  -2  12   3   -0.10    0.34
   2 -12   3    0.06    0.32
  -2 -12  -3    0.02    0.33
   2 -12  -3   -0.22    0.30
  -2 -12   3   -0.38    0.32
   2  12   3    0.13    0.38
   2  12   3   -0.45    0.28
   3  12  -3    1.96    0.45
  -3  12   3    2.16    0.52
   3  12  -3    1.35    0.45
  -3 -12  -3    1.30    0.44
   3 -12   3    1.52    0.49
   3 -12   3    1.91    0.45
  -3  12  -3    3.23    0.48
   3  12   3    2.50    0.51
   3  12   3    1.59    0.38
  -3 -12   3    1.94    0.45
   3 -12  -3    2.90    0.47
   4  12  -3    3.41    0.59
   4 -12   3    4.08    0.63
  -4  12   3    3.55    0.57
   4 -12   3    4.29    0.62
   4  12  -3    3.87    0.64
  -4 -12  -3    4.03    0.57
  -4  12  -3    3.61    0.59
   4  12   3    4.11    0.45
   4  12   3    3.71    0.59
   4 -12  -3    4.23    0.57
  -4 -12   3    3.55    0.52
  -5 -12  -3    3.88    0.59
   5 -12   3    4.30    0.63
  -5  12   3    4.39    0.64
   5  12  -3    2.60    0.58
   5 -12   3    4.57    0.66
   5  12  -3    4.55    0.70
   5  12   3    4.32    0.38
  -5 -12   3    5.27    0.63
   5  12   3    5.12    0.70
  -5  12  -3    4.41    0.59
   5 -12  -3    5.22    0.66
   6  12  -3    1.92    0.54
  -6 -12   3    0.99    0.51
   6 -12  -3    1.45    0.56
   0 -13   3    0.42    0.35
   0  13   3    0.23    0.38
   0 -13  -3    0.39    0.39
   1 -13   3    9.50    0.81
  -1  13   3   10.92    0.89
   1  13  -3    9.14    0.93
  -1 -13  -3   10.02    0.80
   1  13   3   10.61    0.86
  -1 -13   3   10.59    0.85
   1  13   3   10.27    0.80
   1 -13  -3    9.17    0.81
   2 -13   3    2.54    0.51
   2 -13   3    1.91    0.61
  -2  13   3    2.27    0.57
   2  13  -3    3.97    0.69
   2  13  -3    1.76    0.50
  -2 -13  -3    2.68    0.55
  -2 -13   3    3.22    0.51
   2  13   3    3.48    0.58
   2 -13  -3    2.36    0.49
   2  13   3    2.28    0.45
   3 -13   3   21.09    1.30
  -3 -13  -3   21.63    1.19
   3  13  -3   19.95    1.20
   3 -13   3   20.13    1.17
  -3  13   3   20.26    1.28
   3  13  -3   22.05    1.28
  -3 -13   3   20.43    1.18
   3 -13  -3   19.85    1.15
   3  13   3   19.59    1.02
   3  13   3   23.01    1.29
   4 -13   3   -0.45    0.44
   4 -13   3    0.32    0.45
   4  13  -3    0.58    0.46
  -4 -13  -3    0.38    0.43
   4  13   3    0.41    0.51
  -4 -13   3    1.45    0.46
   4  13   3    0.18    0.31
   4 -13  -3   -0.01    0.42
   0  14   3   -0.06    0.44
   0 -14  -3   -0.24    0.43
   0 -14   3   -0.09    0.41
  -1 -14  -3    2.66    0.59
  -1  14   3    1.87    0.56
   1 -14   3    3.25    0.60
   1 -14  -3    2.37    0.51
  -1 -14   3    2.09    0.50
   1  14   3    1.95    0.52
   1  14   3    1.40    0.55
  -2 -14  -3    2.46    0.54
   2  14  -3    1.32    0.55
   2 -14   3    2.04    0.62
   2 -14   3    2.12    0.54
  -2  14   3    0.69    0.55
   2 -14  -3    2.07    0.60
  -2 -14   3    1.45    0.52
   2  14   3    1.98    0.58
   2  14   3    1.53    0.46
   0   0   4    7.15    0.29
   0   0   4    6.96    0.24
   0   0   4    6.26    0.33
   0   0  -4    6.97    0.35
   0   0   4    7.20    0.28
   1   0   4    4.02    0.21
   1   0  -4    4.01    0.26
  -1   0  -4    3.82    0.25
   1   0  -4    3.74    0.25
   1   0   4    4.13    0.26
  -1   0   4    3.91    0.25
  -1   0   4    3.70    0.24
   2   0   4  110.20    3.00
   2   0   4  106.66    3.03
   2   0  -4  106.84    3.14
   2   0  -4  105.93    3.09
  -2   0   4  105.89    3.12
  -2   0   4  108.80    3.07
  -3   0   4  134.16    3.62
   3   0  -4  128.92    3.45
   3   0  -4  125.73    3.71
   3   0   4  128.34    3.55
   3   0   4  127.96    3.56
   3   0   4  121.19    3.58
  -3   0   4  119.09    3.67
   3   0  -4  123.87    3.62
  -4   0   4    0.09    0.15
   4   0   4    0.08    0.12
   4   0  -4   -0.08    0.16
   4   0  -4    0.09    0.13
  -4   0  -4   -0.02    0.12
   4   0   4    0.02    0.13
   4   0  -4    0.18    0.12
  -4   0   4    0.32    0.16
  -5   0   4  163.93    4.76
   5   0  -4  157.95    4.75
  -5   0   4  156.15    4.61
   5   0   4  160.26    4.62
   5   0  -4  158.87    4.49
   5   0  -4  157.69    4.60
   5   0   4  167.29    4.53
  -5   0  -4  163.81    4.58
   6   0   4   34.16    1.29
   6   0  -4   32.84    1.17
   6   0  -4   30.83    1.19
  -6   0  -4   33.12    1.21
  -6   0   4   30.46    1.21
   6   0  -4   32.52    1.33
   7   0   4   44.76    1.72
   7   0  -4   47.30    1.62
  -7   0   4   46.21    1.67
   7   0  -4   44.90    1.62
  -7   0  -4   47.48    1.65
   7   0  -4   45.27    1.76
  -8   0   4    0.48    0.28
  -8   0  -4    0.53    0.32
   8   0  -4    0.87    0.32
   8   0  -4    0.16    0.27
   8   0   4    0.33    0.31
   9   0   4   15.34    0.98
   9   0  -4   13.45    0.91
  10   0  -4    1.86    0.52
  10   0   4    0.89    0.48
   0  -1  -4   46.12    1.26
   0   1  -4   45.34    1.40
   0  -1   4   45.77    1.36
   0  -1   4   46.79    1.28
   0  -1   4   45.20    1.35
   0   1   4   47.30    1.39
   0   1   4   45.92    1.32
   0   1   4   45.07    1.32
   0  -1   4   44.73    1.39
   0  -1  -4   44.19    1.41
   1   1  -4    3.38    0.25
  -1   1   4    3.96    0.25
   1   1  -4    2.92    0.25
  -1   1   4    3.84    0.24
   1  -1   4    3.07    0.24
   1  -1   4    3.85    0.22
  -1  -1   4    3.32    0.15
   1   1   4    3.51    0.24
   1  -1  -4    3.19    0.26
  -1   1  -4    3.21    0.23
   1   1   4    3.71    0.20
   1   1   4    3.22    0.23
  -1  -1   4    3.38    0.24
   1  -1  -4    3.70    0.26
  -1  -1   4    3.40    0.23
  -2   1   4   69.78    2.07
   2  -1   4   67.53    2.04
   2   1  -4   68.39    2.05
  -2   1   4   66.35    2.03
   2   1  -4   68.60    2.10
   2  -1   4   68.50    1.98
   2  -1  -4   70.97    1.98
  -2   1  -4   73.57    2.10
  -2  -1   4   73.48    2.00
   2  -1  -4   70.66    2.21
   2  -1  -4   69.30    2.15
   2   1   4   73.58    2.13
   2   1   4   73.56    2.09
  -2  -1   4   73.27    2.19
  -2  -1   4   72.42    2.13
   2   1   4   74.22    2.12
   3  -1   4   13.59    0.49
   3   1  -4   13.49    0.58
   3   1  -4   12.12    0.62
   3  -1   4   12.69    0.56
  -3   1   4   13.89    0.59
   3  -1   4   11.83    0.57
  -3   1   4   12.72    0.60
  -3  -1   4   11.89    0.59
  -3  -1   4   13.14    0.49
   3   1   4   13.28    0.54
  -3  -1   4   13.27    0.55
   3  -1  -4   12.45    0.46
   3  -1  -4   12.90    0.63
   3   1   4   12.57    0.56
   3   1   4   12.79    0.53
   3  -1  -4   11.64    0.54
  -4   1   4   59.57    2.01
   4  -1   4   65.07    1.81
   4  -1   4   61.59    1.93
   4   1  -4   57.09    1.92
  -4   1   4   61.56    1.95
  -4  -1  -4   63.70    1.87
  -4  -1   4   61.61    2.01
   4  -1  -4   60.45    1.90
   4  -1  -4   61.10    2.03
  -4  -1   4   61.35    1.91
   4  -1  -4   63.27    1.83
   4   1   4   60.81    1.88
   4   1   4   59.22    1.92
  -4   1  -4   63.06    1.92
   5   1  -4    7.25    0.45
   5   1  -4    8.29    0.49
  -5   1   4    6.72    0.55
  -5  -1  -4    8.52    0.47
   5  -1   4    7.52    0.52
   5  -1   4    8.55    0.39
   5   1  -4    8.16    0.56
  -5   1   4    7.91    0.51
   5  -1  -4    8.06    0.46
   5   1   4    7.00    0.49
   5  -1  -4    7.57    0.55
   5   1   4    7.82    0.44
  -5  -1   4    7.25    0.51
   5  -1  -4    7.59    0.45
  -5  -1   4    8.14    0.47
  -5   1  -4    8.13    0.48
  -6  -1  -4    4.53    0.38
   6   1  -4    4.17    0.37
   6   1  -4    4.16    0.47
   6  -1   4    4.49    0.44
   6   1  -4    4.28    0.39
  -6   1   4    3.91    0.40
   6  -1  -4    4.79    0.38
  -6  -1   4    4.41    0.40
   6   1   4    4.68    0.37
  -6   1  -4    4.21    0.40
   6  -1  -4    4.07    0.46
   6  -1  -4    3.78    0.36
   6   1   4    4.04    0.44
   7   1  -4    5.16    0.53
  -7  -1  -4    5.17    0.45
   7   1  -4    4.57    0.45
   7   1  -4    5.20    0.46
   7  -1   4    5.58    0.53
  -7   1   4    4.80    0.49
   7  -1  -4    5.14    0.43
  -7  -1   4    4.71    0.45
  -7   1  -4    4.59    0.47
   7  -1  -4    5.17    0.56
   7  -1  -4    5.85    0.48
   7   1   4    3.41    0.45
   8   1  -4    6.65    0.65
   8   1  -4    6.44    0.56
   8  -1   4    5.86    0.63
   8   1  -4    6.88    0.57
  -8   1   4    6.06    0.60
   8  -1  -4    6.17    0.56
  -8   1  -4    6.36    0.59
  -8  -1   4    7.31    0.59
   8   1   4    6.34    0.63
   8  -1  -4    7.33    0.66
   9   1  -4    0.40    0.38
  -9   1   4    0.39    0.35
   9  -1   4    0.44    0.38
   9  -1  -4    0.19    0.38
  -9   1  -4    0.83    0.37
   9   1   4    0.90    0.40
  10   1  -4    4.48    0.64
  10  -1   4    3.52    0.63
  10   1   4    3.90    0.64
  10  -1  -4    3.95    0.60
   0   2   4    1.42    0.16
   0  -2   4    1.22    0.14
   0   2  -4    1.16    0.15
   0  -2   4    1.26    0.12
   0   2   4    1.25    0.12
   0   2   4    1.36    0.16
   0   2   4    1.31    0.12
   0  -2  -4    1.35    0.11
   0  -2   4    1.29    0.15
  -1  -2  -4   28.76    0.87
   1   2  -4   28.28    0.94
   1  -2   4   26.94    0.85
   1  -2   4   28.67    0.88
   1   2  -4   27.77    0.97
  -1   2   4   28.22    0.93
   1  -2   4   26.33    0.85
  -1   2   4   26.69    0.93
   1  -2   4   27.13    0.94
   1  -2  -4   27.51    0.80
   1   2   4   27.51    0.93
  -1  -2   4   26.82    0.82
  -1   2  -4   25.73    0.88
  -1  -2   4   28.09    0.91
   1   2   4   28.71    0.89
   1  -2  -4   27.19    0.94
   1  -2  -4   27.55    0.95
  -1  -2   4   27.44    0.94
   2  -2   4   28.10    0.94
   2   2  -4   27.42    0.97
  -2   2   4   26.67    0.97
   2  -2   4   28.97    0.99
   2   2  -4   27.56    1.02
  -2   2   4   28.60    0.99
  -2  -2   4   27.92    0.87
  -2   2  -4   29.28    0.90
   2   2   4   27.17    0.97
  -2  -2   4   27.65    0.94
   2  -2  -4   28.52    0.98
   2  -2  -4   29.28    0.86
   2   2   4   28.93    0.93
   2   2   4   27.62    0.93
  -3   2   4  127.30    3.82
   3  -2   4  130.42    3.71
   3   2  -4  132.71    3.87
   3   2  -4  133.91    3.79
  -3   2   4  130.91    3.77
   3  -2  -4  139.97    3.87
   3   2   4  134.89    3.81
  -3   2  -4  134.50    3.87
  -3   2  -4  139.56    3.75
   3  -2  -4  136.98    3.72
  -3  -2   4  133.35    3.82
   3   2   4  137.51    3.87
   3   2   4  137.93    3.80
  -3  -2   4  134.76    3.74
   3  -2  -4  131.65    3.98
  -3  -2   4  128.54    3.94
   4  -2   4   47.13    1.59
  -4   2   4   49.45    1.67
  -4   2   4   48.53    1.62
   4   2  -4   49.80    1.69
   4   2  -4   46.75    1.59
  -4  -2  -4   48.70    1.49
   4   2   4   46.71    1.57
  -4  -2   4   50.22    1.56
  -4  -2   4   51.23    1.54
   4   2   4   46.56    1.58
   4  -2  -4   48.98    1.58
   4  -2  -4   49.66    1.71
   4  -2  -4   49.35    1.51
  -4   2  -4   46.20    1.59
  -4  -2   4   49.40    1.69
  -4   2  -4   51.26    1.45
   5  -2   4  102.98    3.14
   5   2  -4  105.60    3.26
  -5  -2  -4  105.39    3.02
  -5   2   4  107.24    3.17
   5   2  -4  101.36    3.13
  -5   2   4  100.93    3.23
   5  -2  -4  106.27    3.18
  -5   2  -4  106.93    3.25
  -5  -2   4  107.02    3.18
  -5  -2   4  110.47    3.38
   5  -2  -4  108.31    3.38
   5   2   4  105.57    3.23
   5  -2  -4  110.15    3.14
   5   2   4  108.59    3.22
  -5  -2   4  113.24    3.17
   6   2  -4   15.94    0.86
   6   2  -4   16.64    0.80
   6  -2   4   17.41    0.84
  -6   2   4   15.94    0.83
  -6  -2  -4   16.34    0.72
   6   2   4   17.88    0.79
   6  -2  -4   17.03    0.76
   6   2   4   16.76    0.84
  -6  -2   4   16.50    0.77
  -6  -2   4   16.08    0.75
   6  -2  -4   18.15    0.91
  -6   2  -4   16.56    0.81
   6  -2  -4   16.08    0.73
   7  -2   4    9.31    0.65
  -7   2   4    9.41    0.65
   7   2  -4    7.64    0.66
   7   2  -4    8.35    0.59
   7   2   4   11.05    0.62
  -7  -2   4    8.71    0.60
  -7   2  -4    8.37    0.64
   7   2   4    9.01    0.66
   7  -2  -4    7.63    0.69
   7  -2  -4    9.26    0.60
  -7  -2   4    9.24    0.58
   8  -2   4    0.11    0.30
   8   2  -4   -0.22    0.32
  -8   2   4    0.11    0.34
   8   2  -4    0.20    0.30
   8  -2  -4    0.07    0.30
  -8   2  -4    0.76    0.34
   8  -2  -4    0.44    0.33
   8   2   4    0.32    0.32
  -8  -2   4    0.63    0.30
   9  -2   4    6.29    0.73
  -9   2   4    6.56    0.68
   9   2  -4    6.63    0.68
   9  -2  -4    6.95    0.74
  -9  -2   4    5.97    0.59
   9   2   4    6.49    0.71
  -9   2  -4    7.24    0.69
  10   2  -4    1.49    0.51
  10  -2   4    1.98    0.57
 -10   2   4    2.27    0.59
  10   2   4    3.26    0.64
  10  -2  -4    3.22    0.58
   0   3   4   40.55    1.26
   0   3   4   42.23    1.24
   0   3   4   39.42    1.30
   0  -3   4   39.35    1.29
   0  -3  -4   40.35    1.19
   0  -3   4   40.85    1.22
   0   3  -4   41.48    1.33
   0   3   4   41.05    1.23
   0   3  -4   38.25    1.26
   0  -3   4   41.89    1.29
   1  -3   4   73.30    2.11
   1   3  -4   71.07    2.23
   1   3  -4   73.39    2.17
   1  -3   4   74.10    2.14
  -1  -3  -4   74.37    2.09
   1  -3   4   74.35    2.19
  -1   3   4   70.50    2.16
  -1   3   4   73.84    2.16
   1  -3   4   72.42    2.14
  -1  -3   4   71.46    2.06
   1   3   4   68.21    2.17
   1  -3  -4   77.44    2.22
   1   3   4   73.90    2.10
   1  -3  -4   74.05    2.04
  -1  -3   4   71.88    2.21
  -1  -3   4   72.52    2.13
  -1   3  -4   74.23    2.11
   2   3  -4   15.51    0.64
  -2   3   4   15.12    0.64
   2  -3   4   15.41    0.54
   2  -3   4   15.60    0.61
  -2   3   4   14.87    0.63
   2  -3   4   14.50    0.63
  -2  -3  -4   13.25    0.57
   2  -3   4   14.83    0.54
   2  -3  -4   15.13    0.65
   2  -3  -4   16.45    0.57
  -2  -3   4   16.62    0.62
   2   3   4   16.04    0.59
  -2   3  -4   17.04    0.57
  -2  -3   4   16.07    0.59
   2  -3  -4   16.00    0.71
   3   3  -4   20.18    0.86
   3  -3   4   19.71    0.78
  -3   3   4   18.90    0.81
   3  -3   4   20.55    0.64
   3   3  -4   21.23    0.82
  -3  -3  -4   19.57    0.77
   3  -3   4   19.16    0.63
  -3   3   4   18.55    0.82
   3  -3  -4   18.59    0.74
   3  -3  -4   18.11    0.83
  -3  -3   4   18.63    0.70
  -3   3  -4   18.50    0.76
   3   3   4   18.33    0.68
  -3   3  -4   18.93    0.62
  -3  -3   4   19.36    0.82
  -3  -3   4   19.48    0.70
   3  -3  -4   20.37    0.70
   3   3   4   18.90    0.77
   4   3  -4    5.43    0.40
   4   3  -4    3.95    0.40
  -4   3   4    4.63    0.39
   4  -3   4    4.82    0.39
  -4  -3  -4    4.45    0.29
  -4   3   4    5.06    0.42
   4  -3  -4    6.30    0.50
   4  -3  -4    5.11    0.36
   4   3   4    4.99    0.38
  -4  -3   4    4.85    0.42
  -4  -3   4    4.99    0.35
  -4  -3   4    4.77    0.34
   4  -3  -4    4.83    0.35
  -4   3  -4    5.03    0.39
   5   3  -4    6.02    0.53
  -5   3   4    5.20    0.44
  -5   3   4    5.86    0.52
   5  -3   4    5.52    0.45
   5   3  -4    4.81    0.42
  -5  -3  -4    5.72    0.35
   5  -3  -4    6.51    0.40
  -5  -3   4    5.61    0.49
   5  -3  -4    5.52    0.40
  -5  -3   4    5.90    0.40
  -5  -3   4    5.32    0.41
  -5   3  -4    6.57    0.48
   5   3   4    5.14    0.43
   5   3   4    6.26    0.46
   5  -3  -4    6.22    0.52
  -6   3   4    8.40    0.59
   6   3  -4    7.50    0.55
   6  -3   4    8.80    0.62
   6   3  -4    7.83    0.64
   6   3   4    8.84    0.57
   6  -3  -4    9.15    0.51
   6  -3  -4    8.57    0.67
   6  -3  -4    8.40    0.53
   6   3   4    8.42    0.59
  -6   3  -4    8.22    0.60
  -6  -3   4    8.44    0.49
  -6  -3   4    9.06    0.56
  -7   3   4    5.65    0.57
   7   3  -4    5.07    0.56
   7   3  -4    3.65    0.43
   7  -3   4    4.02    0.51
  -7  -3   4    5.00    0.46
   7   3   4    5.61    0.53
   7  -3  -4    5.65    0.50
   7   3   4    5.48    0.49
  -7   3  -4    5.20    0.54
   7  -3  -4    4.92    0.57
  -8   3   4    0.16    0.31
   8   3  -4   -0.02    0.30
   8   3  -4   -0.08    0.32
   8  -3   4    0.23    0.35
  -8  -3   4    0.65    0.32
  -8   3  -4    0.23    0.30
   8   3   4    0.05    0.28
   8  -3  -4   -0.03    0.33
   8  -3  -4    0.18    0.35
  -9   3   4   15.60    0.98
   9   3  -4   14.61    0.94
   9  -3   4   13.19    0.94
   9   3  -4   14.09    0.91
   9  -3  -4   13.58    0.95
  -9  -3   4   13.92    0.89
  -9   3  -4   13.39    0.93
 -10  -3  -4    1.40    0.51
 -10   3   4    0.73    0.49
  10   3  -4    0.57    0.42
  10  -3   4    0.35    0.45
  10  -3  -4    0.30    0.46
 -10   3  -4    0.82    0.51
   0  -4   4    2.34    0.21
   0  -4  -4    2.08    0.19
   0   4   4    2.31    0.20
   0   4   4    2.24    0.21
   0   4   4    2.34    0.21
   0  -4   4    2.15    0.23
   0   4   4    1.89    0.22
   0   4  -4    1.86    0.25
   0   4  -4    2.31    0.22
   0  -4   4    1.99    0.21
   1  -4   4   78.94    2.28
   1  -4   4   76.09    2.32
  -1   4   4   77.41    2.32
   1  -4   4   75.64    2.33
   1   4  -4   78.64    2.33
  -1   4   4   79.65    2.33
   1   4  -4   78.95    2.42
  -1   4   4   79.33    2.34
  -1  -4  -4   79.05    2.26
  -1  -4   4   80.39    2.30
  -1   4  -4   81.03    2.45
  -1  -4   4   81.80    2.46
   1   4   4   78.15    2.42
   1   4   4   82.76    2.27
   1   4   4   83.01    2.31
  -1  -4   4   81.49    2.35
   1   4   4   78.14    2.26
  -1   4  -4   76.26    2.31
   1  -4  -4   79.99    2.28
   1  -4  -4   82.26    2.45
  -2   4   4  128.94    3.72
   2   4  -4  125.50    3.77
  -2   4   4  128.71    3.67
   2  -4   4  122.92    3.62
   2   4  -4  125.83    3.68
  -2  -4  -4  125.61    3.59
   2  -4   4  133.45    3.65
   2  -4   4  127.73    3.61
  -2   4  -4  129.09    3.76
  -2  -4   4  131.96    3.86
   2  -4  -4  134.11    3.87
   2   4   4  131.99    3.64
   2  -4  -4  128.08    3.76
  -2  -4   4  125.85    3.65
  -2  -4   4  133.78    3.68
   2  -4  -4  133.56    3.63
   2   4   4  127.48    3.80
  -2   4  -4  136.24    3.64
  -3   4   4   49.73    1.70
   3  -4   4   53.27    1.56
   3   4  -4   50.79    1.74
   3  -4   4   49.82    1.64
  -3  -4  -4   49.22    1.62
   3  -4   4   48.52    1.54
   3   4  -4   50.98    1.67
  -3   4   4   50.35    1.67
  -3  -4   4   51.63    1.56
  -3   4  -4   51.59    1.67
   3  -4  -4   50.10    1.56
  -3  -4   4   50.63    1.58
   3   4   4   51.26    1.52
   3  -4  -4   49.76    1.75
   3  -4  -4   52.08    1.63
  -3   4  -4   51.42    1.45
   3   4   4   49.84    1.68
  -4  -4  -4   40.38    1.25
   4  -4   4   40.99    1.27
   4  -4   4   39.78    1.43
   4   4  -4   40.13    1.46
   4  -4   4   43.21    1.29
  -4   4   4   42.40    1.48
  -4   4   4   41.35    1.52
   4   4  -4   41.12    1.52
  -4  -4  -4   40.23    1.44
  -4  -4   4   42.19    1.55
  -4   4  -4   40.91    1.48
   4  -4  -4   42.32    1.58
   4   4   4   39.87    1.47
  -4  -4   4   44.07    1.41
  -4  -4   4   44.07    1.36
   4  -4  -4   44.52    1.40
   4  -4  -4   41.17    1.40
   5  -4   4   11.06    0.42
  -5   4   4   10.63    0.64
  -5  -4  -4   10.41    0.63
   5  -4   4   10.03    0.41
   5   4  -4    9.86    0.61
  -5   4   4   11.27    0.70
   5   4  -4    9.62    0.66
   5  -4   4    9.54    0.60
   5   4   4   10.39    0.62
  -5  -4   4   11.23    0.53
  -5   4  -4   11.81    0.66
   5  -4  -4   10.44    0.69
   5  -4  -4   10.68    0.58
  -5  -4   4   11.12    0.59
   5  -4  -4   10.67    0.55
   6  -4   4   92.12    3.00
  -6   4   4   91.01    3.04
   6   4  -4   95.84    3.10
   6   4  -4   96.79    3.03
  -6  -4  -4   99.40    3.04
  -6  -4   4   96.02    2.93
   6  -4  -4   90.48    3.11
  -6   4  -4   93.80    3.04
   6  -4  -4   97.22    2.93
   6   4   4   99.05    3.02
   7  -4   4    6.27    0.62
   7   4  -4    5.70    0.59
  -7  -4  -4    6.22    0.57
   7   4  -4    6.03    0.56
  -7   4   4    5.71    0.58
   7  -4  -4    6.60    0.54
  -7  -4   4    5.11    0.48
   7   4   4    6.53    0.56
   7  -4  -4    5.79    0.63
  -7   4  -4    5.04    0.56
   8   4  -4   18.11    1.04
  -8  -4  -4   17.61    1.05
   8   4  -4   21.18    1.09
   8  -4   4   19.54    1.09
  -8   4   4   22.01    1.13
  -8  -4   4   21.01    1.02
   8   4   4   20.09    1.03
   8  -4  -4   20.45    1.03
  -8   4  -4   18.07    1.04
   8  -4  -4   19.59    1.13
  -9  -4  -4    2.44    0.52
   9  -4   4    2.36    0.50
   9   4  -4    2.19    0.52
  -9   4   4    2.09    0.52
   9   4  -4    2.47    0.51
   9  -4  -4    2.89    0.59
  -9   4  -4    2.61    0.51
  -9  -4   4    2.04    0.44
  10  -4   4    1.26    0.59
 -10   4   4    0.75    0.50
 -10  -4  -4    0.48    0.49
 -10   4  -4    1.93    0.54
  10  -4  -4    1.23    0.51
   0  -5   4   62.48    2.01
   0   5   4   61.98    1.92
   0  -5   4   61.14    1.93
   0   5  -4   62.22    2.04
   0   5  -4   64.96    1.93
   0  -5  -4   63.25    1.88
   0   5   4   67.96    1.99
   0  -5   4   62.53    1.90
   0   5   4   61.90    1.89
   0   5   4   64.60    1.93
   0  -5  -4   62.86    1.99
   1   5  -4   11.01    0.58
  -1  -5  -4    9.48    0.48
   1  -5   4   10.43    0.53
  -1   5   4   11.27    0.53
   1  -5   4    9.93    0.50
   1   5  -4   10.44    0.53
  -1   5   4   10.27    0.51
   1  -5   4   10.82    0.53
  -1   5   4   10.85    0.51
   1  -5  -4   11.66    0.60
   1  -5  -4   11.68    0.51
  -1   5  -4   13.33    0.65
   1   5   4   11.66    0.47
   1   5   4   11.98    0.48
  -1  -5   4   11.93    0.53
  -1  -5   4   12.61    0.61
   1   5   4   12.09    0.48
  -1  -5   4   11.90    0.52
   1   5   4   11.52    0.58
  -1   5  -4   12.39    0.50
   2  -5   4   22.88    0.87
   2   5  -4   21.93    0.96
   2  -5   4   23.09    0.88
   2  -5   4   24.08    0.91
  -2  -5  -4   23.03    0.87
  -2   5   4   22.66    0.89
  -2   5   4   23.28    0.93
   2   5  -4   22.59    0.91
  -2   5  -4   22.42    0.89
  -2  -5   4   22.47    0.85
   2  -5  -4   22.61    0.83
   2  -5  -4   23.95    0.90
  -2  -5   4   24.39    0.98
   2   5   4   22.56    0.92
   2   5   4   23.73    0.77
   2   5   4   23.95    0.69
   2  -5  -4   22.06    0.95
  -2   5  -4   23.64    0.77
  -2  -5   4   23.83    0.83
   3  -5   4   22.51    0.86
   3  -5   4   22.50    0.92
   3   5  -4   23.10    1.01
  -3   5   4   22.97    0.98
  -3   5   4   24.78    0.96
  -3  -5  -4   22.22    0.89
   3   5  -4   22.73    0.94
   3  -5  -4   24.34    1.06
  -3  -5   4   24.63    0.91
   3  -5  -4   23.55    0.92
   3   5   4   26.15    0.80
  -3   5  -4   24.22    0.96
   3   5   4   23.27    0.99
  -3  -5   4   23.91    0.85
   3  -5  -4   24.19    0.90
  -4   5   4    1.91    0.31
  -4   5   4    2.17    0.37
   4  -5   4    2.64    0.34
   4   5  -4    2.90    0.34
   4  -5   4    2.12    0.25
  -4  -5  -4    2.28    0.32
   4   5  -4    2.71    0.38
   4   5   4    2.82    0.33
  -4  -5   4    2.34    0.30
  -4   5  -4    2.44    0.31
   4  -5  -4    2.96    0.31
  -4  -5   4    3.42    0.39
   4  -5  -4    2.73    0.28
   4  -5  -4    2.62    0.38
  -4  -5   4    3.32    0.26
   5   5  -4   24.27    1.09
  -5   5   4   24.42    1.11
   5  -5   4   25.17    1.10
  -5   5   4   27.84    1.20
  -5  -5  -4   27.29    1.12
   5  -5   4   26.85    0.93
   5   5  -4   26.15    1.18
   5  -5  -4   27.31    1.00
   5  -5  -4   28.66    1.08
   5  -5  -4   28.16    1.24
  -5  -5   4   25.88    1.06
   5   5   4   27.18    1.15
  -5   5  -4   25.55    1.13
   6  -5   4    4.92    0.30
  -6  -5  -4    4.08    0.47
   6   5  -4    4.01    0.47
   6   5  -4    4.48    0.53
  -6   5   4    3.75    0.46
   6  -5   4    4.39    0.47
   6  -5  -4    4.79    0.47
  -6   5  -4    4.30    0.47
  -6  -5   4    4.71    0.45
   6  -5  -4    4.30    0.54
   6   5   4    5.04    0.49
  -7   5   4    7.72    0.67
   7   5  -4    7.78    0.68
   7  -5   4    7.27    0.63
   7   5  -4    6.63    0.62
  -7  -5  -4    6.85    0.63
  -7   5  -4    6.53    0.61
   7  -5  -4    8.46    0.65
   7   5   4    7.52    0.62
   7  -5  -4    7.34    0.73
  -7  -5   4    7.99    0.60
  -8  -5  -4    1.38    0.46
   8  -5   4    2.34    0.47
   8   5  -4    1.81    0.46
   8   5  -4    2.18    0.48
  -8   5   4    1.82    0.47
   8   5   4    2.06    0.45
  -8  -5   4    2.12    0.44
   8  -5  -4    1.84    0.49
  -8   5  -4    2.33    0.48
   9   5  -4    0.81    0.48
   9  -5   4    0.98    0.45
  -9   5   4    0.39    0.44
   9   5  -4    0.32    0.40
  -9  -5  -4    0.96    0.48
   9  -5  -4    0.74    0.49
  -9   5  -4    0.45    0.48
  -9  -5   4    0.65    0.40
   0   6  -4   16.76    0.79
   0   6   4   15.37    0.70
   0   6   4   16.12    0.68
   0   6   4   15.67    0.63
   0  -6   4   15.42    0.73
   0  -6   4   15.19    0.67
   0  -6  -4   16.18    0.66
   0  -6   4   16.38    0.69
   0   6  -4   16.98    0.68
  -1   6   4   27.88    1.00
   1  -6   4   27.21    1.05
   1  -6   4   26.55    1.00
  -1   6   4   26.62    1.00
   1   6  -4   27.58    1.02
  -1   6   4   27.49    1.04
   1   6  -4   25.98    1.10
  -1  -6  -4   27.30    0.98
  -1  -6   4   27.84    1.00
  -1   6  -4   27.86    1.02
   1   6   4   28.08    0.96
   1   6   4   27.49    0.96
  -1   6  -4   25.84    1.10
   1  -6  -4   27.44    0.98
   1   6   4   27.63    1.07
   1  -6  -4   27.50    1.10
  -1  -6   4   28.76    0.99
  -1  -6   4   27.37    1.10
  -1   6  -4   28.78    0.96
   1   6   4   27.55    0.92
  -2  -6  -4   36.40    1.27
   2  -6   4   37.77    1.32
   2   6  -4   37.51    1.32
  -2   6   4   39.36    1.37
   2   6  -4   34.94    1.38
   2  -6   4   36.76    1.30
  -2   6   4   36.09    1.26
  -2   6   4   35.36    1.29
  -2   6  -4   37.24    1.32
   2  -6  -4   37.44    1.42
   2  -6  -4   39.08    1.27
  -2  -6   4   37.35    1.22
   2   6   4   38.26    1.15
   2   6   4   37.68    1.16
  -2  -6   4   36.66    1.27
  -2  -6   4   37.29    1.41
   2   6   4   39.26    1.17
  -2   6  -4   38.04    1.18
   2   6   4   36.87    1.37
   3   6  -4    2.42    0.30
  -3  -6  -4    1.49    0.26
   3   6  -4    2.25    0.33
  -3   6   4    2.42    0.36
   3  -6   4    1.83    0.27
   3  -6   4    1.91    0.27
  -3   6   4    1.88    0.26
   3  -6  -4    1.71    0.25
   3   6   4    1.85    0.30
  -3   6  -4    1.87    0.28
  -3  -6   4    2.00    0.23
  -3  -6   4    2.16    0.28
   3  -6  -4    2.60    0.39
  -3  -6   4    2.09    0.33
   3  -6  -4    1.37    0.24
  -4   6   4   35.60    1.41
   4   6  -4   37.36    1.38
   4  -6   4   33.97    1.32
   4  -6   4   35.00    1.25
  -4  -6  -4   34.98    1.31
   4   6  -4   33.82    1.39
  -4   6   4   34.88    1.36
  -4  -6   4   38.25    1.46
   4  -6  -4   35.07    1.28
   4  -6  -4   36.45    1.26
  -4   6  -4   35.00    1.36
  -4  -6   4   36.35    1.30
   4  -6  -4   37.33    1.49
   4   6   4   33.12    1.37
   5   6  -4    7.29    0.58
  -5  -6  -4    7.00    0.56
   5  -6   4    7.89    0.59
  -5   6   4    6.88    0.58
   5  -6   4    7.75    0.47
   5   6  -4    7.92    0.64
  -5   6   4    7.95    0.66
  -5   6  -4    8.34    0.60
   5   6   4    7.48    0.59
   5  -6  -4    7.87    0.56
  -5  -6   4    8.06    0.56
   5  -6  -4    8.15    0.69
   6  -6   4   57.21    2.04
   6   6  -4   54.52    2.06
  -6  -6  -4   55.83    2.01
   6  -6   4   56.19    1.78
  -6   6   4   55.60    2.06
   6   6  -4   57.13    2.06
   6  -6  -4   58.37    2.19
  -6   6  -4   54.10    2.07
  -6  -6   4   56.96    1.97
   6  -6  -4   60.18    1.98
   6   6   4   56.73    2.06
   7   6  -4   11.18    0.83
   7  -6   4   10.77    0.49
  -7   6   4   10.65    0.83
   7  -6   4   10.42    0.81
   7   6  -4    9.17    0.77
  -7  -6  -4    9.86    0.79
  -7   6  -4   10.93    0.83
   7   6   4   11.13    0.80
   7  -6  -4    9.93    0.84
  -7  -6   4   10.43    0.72
   7  -6  -4   10.89    0.74
   8   6  -4   33.51    1.54
  -8  -6  -4   32.43    1.51
   8  -6   4   31.94    1.51
   8   6  -4   31.29    1.47
  -8   6   4   34.87    1.60
   8  -6  -4   33.93    1.63
  -8  -6   4   33.86    1.46
   8   6   4   36.73    1.57
  -8   6  -4   33.27    1.59
   9   6  -4    0.89    0.49
  -9   6   4    1.41    0.57
   9  -6   4    1.17    0.53
   9   6  -4    1.20    0.46
  -9  -6  -4    1.88    0.50
  -9  -6   4    1.47    0.46
   9  -6  -4    0.76    0.48
  -9   6  -4    0.90    0.47
   0  -7  -4    0.23    0.16
   0   7   4    0.21    0.15
   0   7   4   -0.17    0.14
   0   7  -4    0.07    0.16
   0  -7   4   -0.13    0.16
   0  -7   4    0.00    0.16
   0   7  -4    0.24    0.21
   0   7  -4   -0.10    0.14
   0   7   4   -0.13    0.14
  -1  -7  -4   10.66    0.56
   1  -7   4    9.65    0.55
  -1   7   4   11.04    0.55
   1   7  -4   10.36    0.67
  -1   7   4    9.27    0.56
   1  -7   4    9.82    0.59
   1   7  -4   11.89    0.60
  -1   7   4    9.99    0.57
  -1   7  -4   11.86    0.58
  -1  -7   4   10.63    0.53
  -1   7  -4   11.45    0.54
   1  -7  -4   10.42    0.56
   1   7   4   11.65    0.63
  -1  -7   4   11.32    0.65
   1   7   4   10.92    0.54
   1   7   4   12.08    0.50
  -1  -7   4   10.27    0.56
  -2   7   4    2.52    0.30
  -2   7   4    2.27    0.30
   2  -7   4    2.94    0.33
   2   7  -4    3.07    0.39
  -2   7   4    2.58    0.35
   2   7  -4    2.67    0.34
  -2  -7  -4    2.39    0.31
   2  -7   4    2.42    0.33
   2   7   4    2.04    0.31
  -2  -7   4    2.21    0.32
   2  -7  -4    1.90    0.27
   2   7   4    2.81    0.25
  -2  -7   4    2.10    0.28
  -2  -7   4    2.88    0.27
  -2   7  -4    2.15    0.28
   3  -7   4    5.13    0.45
   3  -7   4    4.06    0.40
  -3   7   4    5.32    0.46
   3   7  -4    5.45    0.52
  -3   7   4    5.28    0.52
  -3  -7  -4    5.66    0.45
   3   7  -4    5.62    0.49
  -3   7  -4    5.77    0.48
   3   7   4    4.73    0.47
  -3  -7   4    5.72    0.53
  -3  -7   4    5.57    0.44
   3  -7  -4    5.89    0.43
   3   7   4    6.14    0.27
   3  -7  -4    6.25    0.44
   3  -7  -4    6.35    0.56
   3   7   4    5.84    0.28
   4  -7   4    0.23    0.20
  -4   7   4    0.26    0.23
  -4   7   4    0.10    0.26
  -4  -7  -4    0.63    0.23
   4  -7   4    0.04    0.22
   4   7  -4    0.43    0.29
   4   7  -4    0.25    0.25
   4   7   4   -0.03    0.23
  -4  -7   4    0.25    0.22
  -4   7  -4    0.66    0.25
   4  -7  -4    0.66    0.31
   4  -7  -4    0.59    0.22
  -5  -7  -4   14.08    0.80
   5  -7   4   14.28    0.82
   5  -7   4   13.18    0.69
  -5   7   4   15.53    0.91
  -5   7   4   14.94    0.85
   5   7  -4   14.91    0.87
   5   7  -4   13.70    0.81
   5  -7  -4   15.44    0.80
  -5   7  -4   14.60    0.85
   5   7   4   15.19    0.87
   5  -7  -4   16.33    0.97
  -5  -7   4   15.88    0.80
  -6  -7  -4    0.54    0.30
   6   7  -4    0.58    0.36
   6   7  -4    0.80    0.32
   6  -7   4    0.71    0.35
  -6   7   4    0.82    0.33
   6  -7   4    0.84    0.25
   6  -7  -4    0.05    0.30
   6  -7  -4    0.87    0.35
  -6   7  -4    0.09    0.28
   6   7   4    0.60    0.31
  -6  -7   4    0.70    0.30
  -7  -7  -4    8.05    0.72
   7   7  -4    8.58    0.75
   7  -7   4    8.43    0.77
   7   7  -4    9.08    0.76
  -7   7   4    9.37    0.81
   7  -7   4    8.59    0.52
  -7  -7   4    8.75    0.69
   7  -7  -4    9.19    0.71
   7   7   4    8.09    0.74
   7  -7  -4    8.15    0.83
  -7   7  -4    8.40    0.72
  -8  -7  -4    0.56    0.40
   8   7  -4    0.97    0.46
   8  -7   4    1.45    0.46
   8   7  -4    1.00    0.45
   8  -7   4    1.51    0.23
  -8   7   4    1.20    0.44
   8  -7  -4    1.38    0.52
   8   7   4    0.86    0.45
  -8  -7   4    1.68    0.45
  -8   7  -4    0.34    0.50
   9  -7   4   -0.27    0.44
   9   7  -4    0.72    0.45
   9   7  -4   -0.12    0.48
  -9  -7  -4    1.10    0.55
  -9   7   4    0.43    0.49
  -9   7  -4    0.84    0.51
   9  -7  -4    0.67    0.54
   9   7   4    0.51    0.51
  -9  -7   4    0.25    0.47
   0   8   4    0.56    0.21
   0   8   4    0.46    0.18
   0  -8   4    0.50    0.23
   0   8  -4    0.07    0.26
   0   8  -4    0.66    0.24
   0  -8   4    0.33    0.19
   0  -8  -4    0.30    0.18
   0   8   4    0.63    0.23
   0   8  -4    0.43    0.16
   1   8  -4    7.02    0.60
  -1   8   4    7.80    0.49
  -1   8   4    7.82    0.53
  -1  -8  -4    8.68    0.52
   1   8  -4    8.55    0.45
   1  -8   4    7.82    0.56
   1   8  -4    8.35    0.54
   1  -8   4    7.95    0.53
  -1   8   4    8.48    0.55
  -1   8  -4    8.57    0.51
  -1  -8   4    8.53    0.60
  -1   8  -4    8.73    0.50
  -1  -8   4    7.20    0.51
   1  -8  -4    8.70    0.53
   1   8   4    7.22    0.53
   1   8   4    9.34    0.51
  -2   8   4   14.62    0.80
  -2  -8  -4   15.21    0.76
  -2   8   4   15.71    0.75
   2   8  -4   16.57    0.82
   2  -8   4   13.50    0.77
   2  -8   4   14.86    0.76
  -2   8   4   15.57    0.73
   2   8  -4   14.98    0.86
   2   8   4   13.16    0.76
  -2   8  -4   15.89    0.75
   2   8   4   13.25    0.62
  -2  -8   4   14.28    0.83
   2  -8  -4   13.37    0.69
  -2  -8   4   15.65    0.74
  -3   8   4   26.38    1.11
   3   8  -4   25.18    1.18
   3  -8   4   25.49    1.10
  -3  -8  -4   26.26    1.09
  -3   8   4   24.74    1.15
   3   8  -4   25.75    1.13
   3  -8   4   24.77    1.10
   3   8   4   26.60    1.19
  -3  -8   4   27.89    1.23
   3   8   4   25.72    0.89
  -3  -8   4   27.08    1.09
  -3   8  -4   26.17    1.11
   3  -8  -4   26.75    1.09
   3  -8  -4   27.15    1.06
   4   8  -4   70.93    2.45
  -4   8   4   71.93    2.50
   4  -8   4   69.79    2.33
  -4   8   4   74.48    2.42
   4  -8   4   68.25    2.36
   4   8  -4   70.75    2.49
  -4  -8  -4   68.10    2.33
   4   8   4   70.79    2.48
  -4  -8   4   74.78    2.38
  -4   8  -4   71.81    2.44
   4  -8  -4   72.81    2.35
   5  -8   4    8.40    0.70
  -5  -8  -4   10.41    0.72
  -5   8   4    9.01    0.73
  -5   8   4   10.82    0.78
   5   8  -4   10.15    0.75
   5   8  -4    9.76    0.75
   5  -8   4    9.15    0.62
  -5   8  -4    9.64    0.73
  -5  -8   4    8.55    0.61
   5   8   4    8.58    0.70
   5  -8  -4    9.78    0.67
   5  -8  -4    8.98    0.79
   6  -8   4   11.06    0.66
  -6   8   4   11.14    0.86
   6  -8   4   10.41    0.80
  -6  -8  -4   11.00    0.76
   6   8  -4   11.02    0.81
   6   8  -4   12.55    0.84
  -6  -8   4   10.95    0.73
  -6   8  -4   10.45    0.80
   6  -8  -4   11.12    0.90
   6  -8  -4   11.07    0.75
   6   8   4    9.63    0.76
   7  -8   4    5.02    0.64
   7   8  -4    3.81    0.60
  -7   8   4    4.26    0.62
   7   8  -4    4.65    0.62
   7  -8   4    5.10    0.46
  -7  -8  -4    3.51    0.56
  -7   8  -4    4.62    0.65
   7   8   4    3.99    0.58
   7  -8  -4    4.45    0.66
  -7  -8   4    3.98    0.55
   8  -8   4    3.30    0.63
  -8  -8  -4    4.08    0.64
   8   8  -4    5.82    0.69
  -8   8   4    4.76    0.69
   8  -8   4    4.11    0.40
   8   8  -4    3.47    0.61
  -8   8  -4    4.18    0.67
   8   8   4    5.13    0.67
  -8  -8   4    3.72    0.59
   8  -8  -4    3.03    0.69
   0  -9   4    8.23    0.58
   0   9  -4    8.75    0.56
   0   9   4    7.99    0.55
   0   9  -4    7.86    0.48
   0   9   4    8.52    0.59
   0  -9  -4    8.14    0.56
   0  -9   4    8.14    0.66
   1  -9   4   10.83    0.66
  -1   9   4   11.80    0.72
  -1  -9  -4   11.42    0.66
   1   9  -4   10.60    0.74
  -1   9   4   12.20    0.68
  -1   9   4   11.81    0.63
   1  -9   4   11.14    0.72
   1   9  -4   10.77    0.67
  -1  -9   4   11.05    0.64
   1  -9  -4   10.11    0.62
   1   9   4   10.90    0.61
   1   9   4   10.03    0.67
  -1  -9   4   10.90    0.72
  -1   9  -4   10.72    0.60
  -2   9   4   36.08    1.44
   2  -9   4   34.95    1.43
  -2   9   4   34.81    1.33
  -2  -9  -4   34.83    1.34
   2   9  -4   35.97    1.41
   2   9  -4   32.76    1.46
   2  -9   4   34.04    1.37
  -2   9   4   33.72    1.30
   2  -9  -4   33.20    1.28
  -2   9  -4   33.09    1.29
   2   9   4   32.05    1.36
  -2  -9   4   34.00    1.31
  -2  -9   4   36.51    1.47
   2   9   4   30.95    1.18
   3  -9   4   14.18    0.80
   3  -9   4   14.46    0.81
  -3  -9  -4   15.11    0.81
   3   9  -4   13.94    0.82
   3   9  -4   13.71    0.85
  -3   9   4   14.19    0.86
  -3   9   4   15.45    0.82
   3   9   4   15.09    0.89
  -3  -9   4   16.35    0.82
  -3   9  -4   15.46    0.83
   3   9   4   14.06    0.63
   3  -9  -4   15.96    0.81
   4   9  -4   10.07    0.74
   4   9  -4   10.47    0.80
   4  -9   4    9.59    0.68
  -4  -9  -4    9.09    0.69
  -4   9   4    9.61    0.68
  -4   9   4   10.87    0.84
   4  -9   4    8.66    0.64
   4   9   4    9.87    0.77
   4  -9  -4    8.99    0.65
  -4  -9   4    9.99    0.68
  -4   9  -4   10.93    0.73
  -5   9   4    4.15    0.53
   5   9  -4    3.96    0.54
   5  -9   4    3.76    0.50
  -5  -9  -4    4.45    0.54
   5  -9   4    4.19    0.50
   5   9  -4    4.51    0.60
  -5  -9   4    5.15    0.54
  -5   9  -4    4.58    0.54
   5  -9  -4    6.06    0.59
   5   9   4    4.08    0.55
  -6  -9  -4    1.43    0.43
   6  -9   4    1.41    0.46
   6   9  -4    2.72    0.51
   6  -9   4    2.28    0.40
   6   9  -4    2.68    0.50
  -6   9   4    1.11    0.41
  -6  -9   4    2.68    0.46
   6   9   4    1.69    0.48
  -6   9  -4    3.03    0.53
   6  -9  -4    3.19    0.62
   6  -9  -4    2.55    0.48
   7  -9   4    1.26    0.36
  -7   9   4    1.39    0.51
   7   9  -4    0.93    0.44
   7   9  -4    1.21    0.43
  -7  -9  -4    1.11    0.42
   7  -9   4    0.68    0.49
  -7   9  -4    1.33    0.48
   7   9   4    1.49    0.47
   7  -9  -4    0.63    0.57
  -7  -9   4    1.64    0.47
   8  -9   4    0.60    0.50
   8  -9   4    1.97    0.39
  -8  -9  -4    1.45    0.50
   8   9  -4    0.81    0.48
   8   9  -4    0.82    0.53
  -8   9   4    1.82    0.56
  -8   9  -4    1.37    0.49
   8   9   4    1.83    0.54
   8  -9  -4    2.24    0.63
  -8  -9   4    0.97    0.47
   0 -10   4   -0.09    0.27
   0 -10   4   -0.08    0.22
   0 -10  -4    0.01    0.25
   0  10   4    0.48    0.27
   0  10   4   -0.24    0.24
   0  10  -4   -0.09    0.24
  -1  10   4   21.27    1.04
   1  10  -4   22.04    1.17
  -1 -10  -4   20.77    0.99
  -1  10   4   21.51    1.01
   1 -10   4   24.04    1.14
   1  10  -4   20.63    1.01
   1 -10   4   22.45    1.05
   1 -10  -4   21.91    1.01
  -1 -10   4   22.81    1.15
  -1  10  -4   22.16    0.96
   1  10   4   22.65    1.09
  -1 -10   4   21.52    1.01
   1  10   4   21.73    0.98
   2 -10   4    3.57    0.46
  -2  10   4    4.23    0.52
  -2 -10  -4    4.40    0.50
   2  10  -4    4.57    0.52
  -2  10   4    5.32    0.46
   2 -10   4    4.63    0.56
   2  10  -4    4.18    0.54
  -2  10   4    4.73    0.46
   2  10   4    3.61    0.40
  -2 -10   4    4.95    0.51
   2  10   4    5.04    0.52
  -2  10  -4    5.17    0.49
   2 -10  -4    4.91    0.48
   3 -10   4   12.50    0.79
  -3  10   4   12.80    0.86
   3  10  -4   11.93    0.80
   3  10  -4   11.44    0.84
   3 -10   4   11.57    0.79
  -3 -10  -4   12.01    0.74
  -3  10   4   12.30    0.75
   3 -10  -4   13.30    0.79
  -3  10  -4   13.47    0.81
   3  10   4   13.57    0.64
  -3 -10   4   11.40    0.74
   3  10   4   14.21    0.87
  -4  10   4   29.89    1.33
   4 -10   4   27.90    1.31
   4 -10   4   27.13    1.27
  -4 -10  -4   28.41    1.28
  -4  10   4   30.29    1.43
   4  10  -4   27.61    1.37
   4  10  -4   27.90    1.33
   4  10   4   29.04    0.95
   4  10   4   28.95    1.37
  -4  10  -4   29.43    1.33
  -4 -10   4   26.99    1.26
   4 -10  -4   29.52    1.28
  -5  10   4   15.14    0.96
   5  10  -4   12.98    0.90
  -5 -10  -4   14.03    0.87
   5  10  -4   12.85    0.93
   5 -10   4   14.17    0.93
   5 -10   4   11.86    0.81
   5  10   4   13.03    0.95
  -5 -10   4   14.50    0.87
   5 -10  -4   13.61    0.84
  -5  10  -4   13.95    0.91
   6 -10   4    6.84    0.64
  -6  10   4    8.83    0.79
   6 -10   4    6.79    0.71
  -6 -10  -4    8.50    0.75
   6  10  -4    6.77    0.74
   6  10  -4    7.43    0.76
   6 -10  -4    7.02    0.71
   6  10   4    6.29    0.71
  -6  10  -4    8.17    0.82
  -6 -10   4    7.91    0.71
   7 -10   4   24.74    1.15
  -7  10   4   22.58    1.36
   7 -10   4   21.87    1.33
  -7 -10  -4   25.60    1.35
   7  10  -4   24.61    1.34
   7  10  -4   22.96    1.35
   7  10   4   25.49    1.41
  -7 -10   4   22.25    1.22
  -7  10  -4   25.52    1.40
   7 -10  -4   25.10    1.43
   0  11   4    0.86    0.37
   0  11   4    1.19    0.34
   0 -11   4    0.78    0.40
   0 -11  -4    1.26    0.33
   0 -11   4    1.20    0.37
  -1 -11  -4    8.43    0.66
   1 -11   4    8.24    0.65
   1 -11   4    7.22    0.72
   1  11  -4    8.65    0.65
  -1  11   4    7.43    0.63
  -1  11   4    7.58    0.67
  -1 -11   4    7.53    0.64
   1  11   4    7.49    0.60
   1  11   4    7.19    0.67
  -1 -11   4    8.00    0.75
   1 -11  -4    9.08    0.65
   2 -11   4    2.17    0.45
   2  11  -4    1.87    0.44
   2  11  -4    2.21    0.53
   2 -11   4    1.98    0.45
  -2 -11  -4    2.03    0.40
  -2  11   4    2.67    0.47
  -2  11  -4    2.41    0.40
   2  11   4    1.20    0.30
  -2 -11   4    1.79    0.39
   2 -11  -4    2.05    0.40
   2  11   4    2.01    0.46
   3 -11   4   24.71    1.21
   3  11  -4   24.59    1.30
   3  11  -4   23.85    1.23
  -3 -11  -4   24.24    1.18
  -3  11   4   26.54    1.19
  -3  11   4   24.86    1.30
   3 -11   4   25.88    1.27
   3  11   4   25.87    1.29
  -3  11  -4   25.98    1.22
   3 -11  -4   26.84    1.21
  -3 -11   4   27.50    1.25
   3  11   4   25.38    1.04
   4 -11   4    7.65    0.70
   4  11  -4    7.47    0.80
   4 -11   4    8.01    0.73
  -4  11   4    8.76    0.86
  -4 -11  -4    8.79    0.74
  -4  11   4    7.78    0.71
   4  11  -4    7.73    0.74
   4 -11  -4    8.83    0.73
   4  11   4    9.02    0.81
  -4 -11   4    8.69    0.72
  -4  11  -4    8.37    0.74
   4  11   4    7.75    0.44
   5 -11   4    1.22    0.43
  -5 -11  -4    0.69    0.41
   5 -11   4    0.40    0.45
  -5  11   4    1.18    0.47
   5  11  -4    0.33    0.45
   5  11  -4    0.94    0.50
  -5  11  -4    0.95    0.47
  -5 -11   4    1.10    0.39
   5  11   4    0.88    0.44
   5 -11  -4    0.40    0.39
   6  11  -4    8.96    0.88
   6  11  -4    9.19    0.89
   6 -11   4   10.20    0.80
   6 -11   4   10.49    0.91
  -6 -11  -4   10.18    0.88
  -6  11   4   10.92    0.92
  -6  11  -4   10.77    0.93
  -6 -11   4   10.75    0.87
   6  11   4   10.59    0.95
   0  12   4    4.34    0.57
   0 -12   4    5.35    0.71
   0  12   4    4.69    0.59
   0 -12  -4    4.83    0.54
   0 -12   4    5.40    0.58
   1 -12   4    3.53    0.53
  -1 -12  -4    5.16    0.58
  -1  12   4    4.65    0.60
   1 -12   4    4.20    0.61
  -1 -12   4    4.60    0.56
   1  12   4    4.19    0.51
   1 -12  -4    3.71    0.53
   1  12   4    4.65    0.61
   2  12  -4    0.61    0.39
   2 -12   4    0.73    0.41
   2 -12   4    0.34    0.42
   2  12  -4    1.10    0.47
  -2 -12  -4    0.91    0.40
  -2  12   4    0.96    0.43
  -2 -12   4    0.58    0.36
   2  12   4    0.80    0.41
   2 -12  -4    1.16    0.41
   2  12   4    0.71    0.32
  -3 -12  -4    3.61    0.54
  -3  12   4    4.98    0.65
   3  12  -4    4.05    0.70
   3  12  -4    4.61    0.60
   3 -12   4    4.20    0.65
   3 -12   4    4.26    0.58
   3  12   4    5.53    0.67
  -3  12  -4    5.05    0.59
  -3 -12   4    3.66    0.56
   3 -12  -4    4.60    0.57
   3  12   4    4.55    0.46
  -4  12   4    0.32    0.47
  -4  12   4    0.56    0.42
   4  12  -4    0.42    0.48
   4 -12   4    0.67    0.40
  -4 -12  -4    0.42    0.38
   4 -12   4    0.18    0.39
   4  12  -4    0.31    0.49
   4 -12  -4    1.05    0.43
   4  12   4    0.78    0.46
   4  12   4    0.67    0.25
  -4 -12   4    1.00    0.45
  -4  12  -4    0.09    0.41
   5 -12   4   15.01    1.09
   5  12  -4   13.73    1.10
  -5  12   4   16.87    1.09
   5  12  -4   14.76    1.08
  -5 -12  -4   14.52    0.99
   5 -12   4   14.65    0.99
   5 -12  -4   13.73    0.98
  -5  12  -4   13.02    0.97
  -5 -12   4   14.00    0.97
   5  12   4   15.25    1.05
   0  13   4    5.12    0.65
   0 -13  -4    3.98    0.61
   0  13   4    6.83    0.72
   0 -13   4    6.04    0.64
   1 -13   4    0.29    0.38
   1 -13   4    0.01    0.46
  -1 -13  -4    0.26    0.44
  -1  13   4    0.33    0.42
   1 -13  -4    0.44    0.41
   1  13   4    0.38    0.36
  -1 -13   4    0.56    0.42
   1  13   4    0.59    0.48
  -2  13   4    1.73    0.53
   2 -13   4    1.42    0.48
  -2 -13  -4    0.92    0.43
   2  13  -4    1.64    0.52
   2 -13   4    1.53    0.56
   2  13   4    0.38    0.34
  -2 -13   4    1.73    0.46
   2 -13  -4    0.78    0.45
   2  13   4    1.15    0.45
   3  13  -4   -0.26    0.45
   3 -13   4   -0.22    0.34
  -3  13   4    0.06    0.52
   3  13  -4    0.14    0.47
   3 -13   4   -0.37    0.43
  -3 -13  -4   -0.03    0.39
   3  13   4   -0.13    0.48
   3  13   4    0.06    0.31
  -3 -13   4    0.30    0.42
   3 -13  -4    0.94    0.50
   4  13  -4    3.09    0.63
   4 -13   4    3.97    0.68
   4  13  -4    3.12    0.66
   4 -13   4    4.51    0.69
  -4 -13  -4    4.18    0.67
  -4  13   4    3.32    0.67
   4  13   4    3.92    0.64
   4 -13  -4    6.16    0.73
  -4 -13   4    4.29    0.65
   4  13   4    4.00    0.40
   0 -14  -4    4.19    0.68
   0 -14   4    3.84    0.62
   0  14   4    5.06    0.67
  -1  14   4    0.96    0.51
   1 -14   4    2.29    0.63
  -1 -14  -4    1.32    0.54
   1 -14   4    2.17    0.52
   1  14   4    0.69    0.51
  -1 -14   4    1.63    0.54
   1  14   4    1.37    0.45
   1 -14  -4    1.62    0.52
   2 -14   4    1.27    0.54
  -2  14   4    1.61    0.59
   2 -14   4    0.99    0.60
  -2 -14  -4    1.51    0.50
   2 -14  -4    1.04    0.56
  -2 -14   4    1.35    0.48
   2  14   4    1.68    0.59
   0   0   5   -0.02    0.05
   0   0  -5   -0.14    0.09
   0   0   5   -0.10    0.06
   0   0   5   -0.11    0.06
   0   0   5    0.05    0.10
   1   0  -5   35.63    1.22
  -1   0   5   37.63    1.20
  -1   0  -5   36.83    1.20
   1   0   5   37.75    1.20
   1   0   5   36.75    1.09
  -1   0   5   37.82    1.19
   1   0  -5   35.29    1.21
   2   0   5    3.81    0.30
  -2   0   5    3.62    0.30
  -2   0   5    3.92    0.29
   2   0  -5    2.67    0.26
  -2   0   5    3.89    0.16
   2   0   5    3.53    0.25
   2   0  -5    3.07    0.30
  -3   0   5    5.54    0.39
   3   0  -5    4.96    0.41
   3   0   5    4.81    0.32
   3   0   5    5.91    0.38
   3   0   5    6.47    0.37
   3   0  -5    5.36    0.37
  -3   0   5    6.27    0.39
   4   0  -5   27.52    1.03
   4   0  -5   28.34    1.14
   4   0   5   26.78    0.95
  -4   0   5   25.89    1.08
  -4   0   5   28.48    1.04
   4   0  -5   27.44    0.90
   4   0   5   26.69    1.02
  -4   0  -5   26.11    0.99
   5   0  -5    4.22    0.46
   5   0   5    5.58    0.46
  -5   0   5    4.71    0.41
   5   0  -5    5.31    0.36
  -5   0  -5    5.56    0.41
   5   0  -5    6.44    0.45
   5   0   5    4.90    0.33
  -5   0   5    5.12    0.48
   6   0   5   14.71    0.78
  -6   0  -5   13.78    0.72
  -6   0   5   14.41    0.75
   6   0  -5   15.41    0.87
   6   0  -5   13.84    0.72
   6   0  -5   16.05    0.69
   7   0  -5    6.89    0.67
  -7   0  -5    8.07    0.57
   7   0   5    6.43    0.60
  -7   0   5    6.58    0.56
   7   0  -5    5.92    0.49
   8   0  -5    9.20    0.68
  -8   0   5    9.54    0.73
  -8   0  -5   10.88    0.75
   8   0  -5   11.74    0.89
   8   0   5   10.00    0.78
   9   0   5    0.11    0.38
   9   0  -5   -0.08    0.35
  -9   0   5   -0.06    0.37
  10   0  -5   20.61    1.21
  10   0   5   18.50    1.20
   0  -1   5    3.76    0.22
   0  -1  -5    2.99    0.26
   0  -1  -5    3.23    0.16
   0  -1   5    3.29    0.26
   0  -1   5    3.37    0.20
   0   1   5    3.49    0.18
   0  -1   5    3.75    0.18
   0   1   5    3.02    0.25
   0   1  -5    3.45    0.26
   0   1   5    3.34    0.19
  -1   1   5  218.80    6.04
  -1   1   5  217.87    6.06
  -1   1   5  227.11    6.06
   1   1  -5  205.89    6.08
   1  -1   5  219.74    6.04
   1  -1   5  223.66    5.88
   1   1  -5  216.80    6.11
   1   1   5  213.68    5.99
  -1  -1   5  217.64    6.06
   1  -1  -5  222.52    6.09
  -1  -1   5  217.79    5.79
   1  -1  -5  219.81    6.08
  -1  -1   5  210.35    6.00
   1   1   5  218.26    5.84
  -1   1  -5  223.63    6.03
  -2   1   5   68.29    2.04
   2  -1   5   66.71    2.04
   2  -1   5   65.72    1.95
   2   1  -5   68.38    2.10
  -2   1   5   67.21    2.06
   2   1  -5   64.51    2.05
   2   1   5   66.23    2.04
  -2   1  -5   68.50    2.02
  -2  -1   5   67.72    2.10
  -2  -1   5   69.88    1.87
   2  -1  -5   68.85    1.84
   2  -1  -5   65.30    2.12
  -2  -1   5   64.59    2.04
   2   1   5   71.71    1.99
   2  -1  -5   67.04    2.09
   2   1   5   68.45    2.04
  -3   1   5   27.00    1.06
   3   1  -5   30.32    1.12
  -3   1   5   27.85    1.04
   3  -1   5   27.85    1.00
   3  -1   5   28.11    1.03
   3   1  -5   28.92    1.05
   3  -1  -5   29.22    1.06
   3   1   5   28.73    1.02
  -3  -1   5   29.66    1.10
  -3  -1   5   27.55    1.02
   3   1   5   29.26    1.02
  -3   1  -5   30.12    0.98
  -3  -1   5   30.62    0.91
   3  -1  -5   28.19    0.88
   3   1   5   29.19    1.01
   3  -1  -5   28.51    1.11
   4  -1   5   23.21    0.81
  -4   1   5   24.40    0.99
  -4   1   5   23.85    0.95
   4   1  -5   21.69    0.92
   4   1  -5   24.01    1.03
   4  -1   5   23.25    0.92
   4  -1  -5   24.03    0.81
  -4  -1   5   23.22    0.92
   4   1   5   24.31    0.89
   4   1   5   23.58    0.93
   4  -1  -5   24.44    0.94
  -4  -1   5   24.75    0.84
   4  -1  -5   22.81    1.02
  -4  -1   5   23.93    1.01
  -4   1  -5   23.59    0.93
   5   1  -5   24.06    1.06
   5  -1   5   21.36    0.96
   5  -1   5   23.82    0.82
  -5  -1  -5   23.28    0.89
  -5   1   5   20.64    0.99
  -5   1   5   21.80    0.96
   5   1  -5   23.47    0.95
   5   1   5   23.38    0.98
  -5  -1   5   23.91    1.04
   5  -1  -5   21.71    0.92
  -5   1  -5   23.37    0.94
   5  -1  -5   23.54    0.86
   5  -1  -5   23.62    1.07
  -5  -1   5   23.90    0.87
   5   1   5   23.86    0.90
  -5  -1   5   21.46    0.93
  -6   1   5   10.18    0.64
   6  -1   5   12.15    0.68
   6   1  -5   12.02    0.66
  -6  -1  -5   10.66    0.59
   6   1  -5   11.05    0.75
   6   1   5   12.89    0.63
  -6  -1   5   11.69    0.64
   6  -1  -5   11.07    0.63
   6  -1  -5   10.55    0.73
   6  -1  -5   12.44    0.61
  -6   1  -5   10.78    0.65
   6   1   5   12.09    0.71
   7   1  -5    4.41    0.45
  -7  -1  -5    5.39    0.46
   7   1  -5    4.24    0.55
   7  -1   5    4.03    0.49
  -7   1   5    4.30    0.50
   7  -1  -5    4.97    0.45
  -7  -1   5    4.28    0.46
   7   1   5    4.06    0.51
   7  -1  -5    4.22    0.53
  -7   1  -5    5.02    0.48
   8   1  -5    4.38    0.48
   8   1  -5    3.90    0.57
  -8   1   5    4.19    0.53
   8  -1   5    3.98    0.50
   8  -1  -5    5.29    0.63
   8   1   5    4.70    0.59
  -8   1  -5    4.93    0.55
  -8  -1   5    4.22    0.50
  -9   1   5    7.75    0.71
   9   1  -5    6.26    0.72
   9  -1   5    7.07    0.74
   9  -1  -5    7.28    0.75
   9   1   5    8.23    0.77
  10   1  -5    1.01    0.52
  10  -1   5    0.77    0.52
  10  -1  -5    1.24    0.53
  10   1   5    0.92    0.52
   0   2   5    8.37    0.33
   0  -2   5    7.66    0.37
   0  -2   5    8.58    0.42
   0  -2   5    8.66    0.34
   0   2   5    7.87    0.32
   0  -2   5    8.21    0.39
   0  -2  -5    7.84    0.30
   0   2   5    8.42    0.41
   0  -2  -5    8.81    0.45
   0   2  -5    7.57    0.40
  -1  -2  -5   37.32    1.12
  -1   2   5   36.56    1.20
   1   2  -5   36.33    1.27
   1   2  -5   34.89    1.22
  -1   2   5   37.70    1.20
   1  -2   5   37.39    1.11
   1  -2   5   37.66    1.24
   1  -2   5   38.11    1.11
  -1   2   5   35.60    1.21
   1  -2   5   38.86    1.15
  -1   2  -5   38.19    1.20
  -1  -2   5   38.54    1.08
  -1  -2   5   36.74    1.21
   1  -2  -5   38.28    1.26
   1  -2  -5   35.40    1.25
  -1  -2   5   36.33    1.23
   1   2   5   36.18    1.19
   1   2   5   37.64    1.24
   1  -2  -5   37.34    1.05
  -2   2   5   54.73    1.75
   2   2  -5   53.82    1.76
  -2   2   5   55.93    1.76
   2   2  -5   56.35    1.83
   2  -2   5   56.89    1.69
   2   2   5   57.10    1.74
   2  -2  -5   58.56    1.60
  -2  -2   5   58.35    1.84
  -2  -2   5   59.42    1.63
   2  -2  -5   56.37    1.81
  -2  -2   5   56.73    1.76
   2   2   5   56.50    1.79
  -2   2  -5   55.09    1.71
   2  -2  -5   58.06    1.86
   3  -2   5   11.30    0.54
  -3   2   5   11.79    0.58
   3   2  -5   10.69    0.62
  -3   2   5   10.79    0.58
   3   2  -5   11.04    0.56
   3  -2   5   10.55    0.56
   3  -2  -5   11.58    0.45
  -3  -2   5   11.55    0.47
  -3  -2   5   11.38    0.54
  -3   2  -5   12.27    0.49
   3   2   5   12.56    0.56
   3   2   5   11.63    0.53
   3  -2  -5   10.75    0.55
  -3  -2   5   11.08    0.59
   3  -2  -5   11.45    0.62
   3   2   5   11.29    0.53
   4   2  -5    6.57    0.53
   4   2  -5    6.59    0.44
  -4   2   5    5.90    0.44
   4  -2   5    5.72    0.40
  -4   2   5    6.20    0.46
   4  -2  -5    7.12    0.45
   4   2   5    6.64    0.41
   4  -2  -5    6.86    0.37
   4  -2  -5    6.21    0.51
  -4  -2   5    6.56    0.43
  -4   2  -5    6.35    0.44
  -4  -2   5    7.51    0.39
   4   2   5    6.30    0.43
  -4  -2   5    7.20    0.49
  -4   2  -5    7.09    0.35
   4   2   5    6.75    0.43
  -5   2   5   15.67    0.79
  -5  -2  -5   16.59    0.69
   5  -2   5   17.51    0.82
   5   2  -5   17.74    0.89
   5   2  -5   17.02    0.80
  -5   2   5   16.24    0.85
  -5  -2   5   16.79    0.86
   5   2   5   18.97    0.85
   5  -2  -5   17.91    0.78
   5  -2  -5   18.03    0.90
  -5  -2   5   18.25    0.74
  -5  -2   5   16.41    0.76
   5  -2  -5   17.35    0.71
   5   2   5   18.62    0.79
  -5   2  -5   17.56    0.81
   6   2  -5   39.84    1.67
   6   2  -5   43.67    1.61
  -6  -2  -5   45.55    1.51
  -6   2   5   46.24    1.65
   6  -2   5   44.85    1.64
   6  -2  -5   45.94    1.56
  -6   2  -5   43.46    1.62
   6  -2  -5   42.63    1.72
  -6  -2   5   42.57    1.54
   6   2   5   46.76    1.57
   6   2   5   43.61    1.62
  -6  -2   5   44.54    1.52
   6  -2  -5   46.01    1.52
  -7   2   5    7.36    0.63
   7  -2   5    7.94    0.66
   7   2  -5    7.69    0.67
   7   2  -5    7.19    0.57
   7  -2  -5    8.98    0.75
   7   2   5    7.52    0.63
  -7  -2   5    8.63    0.59
  -7  -2   5    8.87    0.59
  -7   2  -5    7.49    0.61
   8  -2   5   29.49    1.37
  -8   2   5   28.73    1.33
   8   2  -5   28.95    1.40
   8   2  -5   30.04    1.30
  -8   2  -5   29.70    1.35
   8   2   5   32.63    1.41
   8  -2  -5   30.21    1.46
  -9   2   5    3.84    0.57
   9  -2   5    4.51    0.62
   9   2  -5    2.99    0.56
   9   2   5    3.58    0.60
   9  -2  -5    3.61    0.65
  -9   2  -5    4.31    0.59
  10   2  -5    8.45    0.84
  10  -2   5    7.97    0.84
 -10   2   5    7.96    0.80
  10   2   5    8.47    0.87
  10  -2  -5    6.47    0.79
   0  -3   5    0.13    0.10
   0   3   5    0.33    0.12
   0   3   5    0.15    0.08
   0   3   5    0.11    0.08
   0  -3   5    0.32    0.11
   0   3  -5    0.08    0.13
   0  -3  -5    0.12    0.08
   0   3   5    0.06    0.11
   0   3  -5    0.05    0.11
   0  -3   5    0.02    0.12
  -1  -3  -5  100.28    2.74
  -1   3   5   97.66    2.84
   1  -3   5   98.60    2.79
  -1   3   5  104.06    2.86
   1  -3   5   90.73    2.78
   1   3  -5   96.19    2.87
   1   3  -5   99.37    2.94
   1  -3   5   97.30    2.76
   1  -3   5   94.69    2.86
  -1   3   5   95.39    2.84
  -1  -3   5  102.27    3.01
   1  -3  -5  105.83    2.79
   1  -3  -5   99.77    3.00
  -1  -3   5   99.90    2.81
   1   3   5  103.54    2.91
   1   3   5   97.54    2.99
  -1   3  -5  104.42    2.93
   1  -3  -5  101.32    3.00
  -1  -3   5  100.11    2.94
   2   3  -5   72.08    2.23
   2  -3   5   73.29    2.06
  -2  -3  -5   73.02    2.13
   2  -3   5   74.20    2.06
  -2   3   5   69.19    2.21
  -2   3   5   73.34    2.24
   2  -3   5   71.25    2.15
   2  -3   5   72.11    2.23
   2   3  -5   71.46    2.30
   2   3   5   73.55    2.29
   2  -3  -5   73.06    2.29
  -2  -3   5   74.14    2.23
   2   3   5   77.83    2.21
  -2  -3   5   74.63    2.13
   2  -3  -5   74.58    2.35
  -2   3  -5   72.18    2.17
   2  -3  -5   78.11    2.11
  -2  -3   5   75.56    2.34
   3   3  -5  101.17    3.20
  -3  -3  -5   99.22    3.02
   3   3  -5  103.65    3.11
   3  -3   5  107.61    3.06
  -3   3   5  106.44    3.12
  -3   3   5  107.30    3.16
   3  -3  -5  113.25    3.08
  -3  -3   5  109.13    3.18
  -3  -3   5  111.02    3.10
   3   3   5  107.82    3.15
   3  -3  -5  111.88    3.25
  -3   3  -5  116.68    3.11
   3   3   5  105.27    3.25
  -3  -3   5  108.44    3.34
  -3   3  -5  107.23    3.25
   4  -3   5   16.70    0.77
   4   3  -5   16.99    0.84
  -4   3   5   18.50    0.82
   4   3  -5   16.50    0.78
  -4   3   5   15.14    0.78
  -4  -3   5   19.10    0.76
   4  -3  -5   18.79    0.90
   4  -3  -5   18.49    0.71
  -4  -3   5   17.49    0.71
   4   3   5   18.43    0.72
  -4   3  -5   17.67    0.81
   4  -3  -5   18.82    0.79
   4   3   5   17.02    0.77
  -4  -3   5   17.98    0.87
  -5   3   5   10.22    0.65
  -5  -3  -5   10.50    0.50
   5   3  -5   10.06    0.67
   5   3  -5    9.55    0.61
   5  -3   5   10.27    0.61
  -5   3   5    9.29    0.60
   5  -3  -5    9.92    0.55
   5  -3  -5   10.18    0.71
  -5  -3   5   10.18    0.55
   5   3   5    9.43    0.58
   5  -3  -5    9.73    0.51
  -5  -3   5   11.10    0.57
   5   3   5   10.08    0.60
  -5  -3   5   11.55    0.68
  -5   3  -5   10.01    0.60
   6  -3   5    9.15    0.65
  -6   3   5    9.63    0.67
   6   3  -5   10.03    0.75
   6   3  -5    9.32    0.62
   6   3   5    9.86    0.64
  -6  -3   5    9.77    0.60
   6  -3  -5   10.10    0.72
   6  -3  -5   10.78    0.60
  -6  -3   5   11.66    0.61
   6  -3  -5   10.46    0.59
   6   3   5   11.36    0.65
  -6   3  -5   10.54    0.68
   7  -3   5   10.78    0.72
   7   3  -5   10.94    0.80
   7   3  -5   10.99    0.71
  -7   3   5   10.84    0.76
  -7   3  -5    9.97    0.72
   7  -3  -5   11.83    0.84
   7   3   5   12.61    0.70
  -7  -3   5   11.84    0.69
   7   3   5    9.95    0.71
   8  -3   5    3.03    0.51
   8   3  -5    3.44    0.47
   8   3  -5    2.70    0.51
  -8   3   5    3.43    0.53
   8  -3  -5    2.71    0.53
  -8   3  -5    3.25    0.52
   8   3   5    3.95    0.51
   9  -3   5    9.52    0.88
   9   3  -5    9.58    0.77
   9   3  -5   10.57    0.91
  -9   3   5   11.07    0.91
  -9   3  -5    8.46    0.78
   9  -3  -5    9.52    0.91
 -10   3   5    3.14    0.68
  10   3  -5    2.46    0.57
 -10  -3  -5    1.51    0.54
  10  -3   5    1.97    0.58
  10  -3  -5    2.44    0.61
 -10   3  -5    3.20    0.59
   0   4   5   28.61    1.06
   0  -4   5   29.37    1.05
   0   4   5   30.84    1.02
   0   4  -5   29.20    1.02
   0   4   5   29.73    0.97
   0  -4   5   29.66    0.98
   0  -4  -5   29.81    0.95
   0  -4   5   29.74    1.05
   0   4   5   28.85    0.97
   0   4  -5   29.45    1.11
   1   4  -5   60.32    2.02
  -1   4   5   62.41    1.95
  -1  -4  -5   61.08    1.85
  -1   4   5   64.42    1.94
  -1   4   5   61.02    1.95
   1  -4   5   65.25    1.94
   1   4  -5   62.74    1.96
  -1   4   5   62.58    1.94
   1  -4   5   63.40    1.97
   1  -4   5   64.08    1.89
   1  -4   5   63.45    1.92
  -1  -4   5   64.83    1.87
  -1  -4   5   61.54    2.01
  -1  -4   5   63.66    1.95
   1  -4  -5   64.36    2.03
  -1   4  -5   60.59    2.01
   1  -4  -5   64.55    1.83
   1   4   5   64.08    2.01
   1   4   5   66.02    1.91
  -1   4  -5   63.44    1.91
   2  -4   5    1.81    0.20
   2  -4   5    2.16    0.21
   2  -4   5    2.02    0.23
  -2   4   5    2.19    0.26
  -2   4   5    2.10    0.25
  -2  -4  -5    1.89    0.22
   2   4  -5    2.06    0.29
   2  -4   5    2.03    0.26
   2   4  -5    2.31    0.27
  -2  -4   5    2.33    0.24
   2   4   5    1.99    0.21
   2   4   5    2.16    0.26
   2  -4  -5    2.18    0.20
   2  -4  -5    1.51    0.29
  -2  -4   5    2.44    0.22
   2  -4  -5    2.21    0.25
  -2  -4   5    2.06    0.27
  -2   4  -5    2.08    0.20
  -3  -4  -5    2.09    0.26
   3  -4   5    2.11    0.19
   3  -4   5    2.46    0.20
   3  -4   5    2.12    0.28
  -3   4   5    2.30    0.31
   3   4  -5    2.23    0.28
  -3   4   5    1.88    0.27
   3   4  -5    2.54    0.35
   3  -4  -5    2.84    0.35
   3  -4  -5    2.24    0.27
  -3   4  -5    2.54    0.20
   3   4   5    1.64    0.27
  -3  -4   5    1.78    0.20
   3  -4  -5    1.89    0.22
  -3  -4   5    2.47    0.26
   3   4   5    2.15    0.23
  -3  -4   5    2.61    0.32
  -3   4  -5    1.96    0.27
  -4  -4  -5    0.40    0.19
   4  -4   5    0.29    0.08
  -4   4   5    0.54    0.23
  -4   4   5    0.12    0.19
   4  -4   5    0.28    0.17
   4   4  -5    0.20    0.23
   4   4  -5    0.05    0.20
   4  -4  -5    0.18    0.18
   4  -4  -5   -0.06    0.20
  -4  -4   5    0.39    0.17
   4   4   5    0.06    0.17
  -4  -4   5    0.02    0.19
  -4   4  -5    0.17    0.17
   4  -4  -5    0.33    0.17
   4   4   5    0.17    0.15
  -4  -4   5    0.11    0.15
  -5  -4  -5   14.26    0.76
  -5   4   5   13.65    0.82
   5   4  -5   16.34    0.82
   5  -4   5   14.97    0.77
  -5   4   5   15.04    0.80
   5   4  -5   16.50    0.89
  -5  -4   5   16.62    0.71
  -5  -4   5   16.27    0.74
  -5   4  -5   14.84    0.79
   5  -4  -5   15.23    0.72
  -5  -4   5   16.96    0.90
   5  -4  -5   16.46    0.74
   5   4   5   16.69    0.82
   5  -4  -5   17.04    0.93
   6  -4   5   15.57    0.87
   6   4  -5   16.57    0.94
  -6  -4  -5   17.65    0.90
  -6   4   5   18.86    0.97
   6   4  -5   18.04    0.91
  -6  -4   5   18.28    0.83
  -6   4  -5   16.87    0.89
   6   4   5   17.14    0.87
   6  -4  -5   19.19    1.03
   7   4  -5    1.65    0.43
  -7   4   5    0.99    0.35
  -7  -4  -5    2.66    0.42
   7  -4   5    2.04    0.39
   7   4  -5    1.58    0.37
  -7  -4   5    2.74    0.39
   7   4   5    2.20    0.37
   7  -4  -5    1.58    0.43
  -7   4  -5    2.02    0.39
   8   4  -5   25.47    1.25
   8   4  -5   27.39    1.31
   8  -4   5   25.10    1.26
  -8  -4  -5   25.29    1.30
  -8   4   5   24.02    1.27
  -8   4  -5   25.66    1.26
   8  -4  -5   24.77    1.32
   9   4  -5   16.80    1.04
   9   4  -5   17.53    1.09
  -9   4   5   14.52    1.04
   9  -4   5   15.91    1.07
  -9  -4  -5   15.45    1.10
  -9   4  -5   15.72    1.08
   9  -4  -5   16.00    1.11
   0   5   5  110.44    3.34
   0  -5   5  111.78    3.36
   0   5   5  118.65    3.27
   0   5  -5  110.83    3.28
   0   5  -5  116.15    3.43
   0  -5   5  111.06    3.30
   0  -5   5  112.67    3.22
   0   5   5  112.38    3.25
   0   5   5  111.78    3.25
   0  -5  -5  114.58    3.19
   1  -5   5    9.32    0.51
   1  -5   5    9.58    0.48
   1   5  -5    8.28    0.53
   1  -5   5    8.51    0.47
   1   5  -5    8.10    0.48
  -1   5   5    8.59    0.48
  -1   5   5    8.84    0.50
  -1   5   5    8.84    0.48
  -1  -5  -5    8.84    0.45
   1   5   5    9.89    0.45
   1   5   5    9.16    0.38
  -1  -5   5    8.32    0.51
  -1  -5   5    9.34    0.45
  -1   5  -5    8.51    0.44
   1   5   5   10.01    0.38
   1  -5  -5    9.62    0.43
   1   5   5    8.74    0.52
  -1  -5   5    9.19    0.48
  -2  -5  -5   22.22    0.86
   2  -5   5   22.99    0.89
   2   5  -5   22.20    0.92
  -2   5   5   23.44    0.94
   2  -5   5   22.32    0.85
  -2   5   5   22.04    0.89
   2   5  -5   22.71    1.00
  -2  -5   5   23.00    0.85
  -2   5  -5   23.82    0.80
  -2   5  -5   22.37    0.92
   2  -5  -5   23.06    0.83
   2   5   5   23.68    0.96
   2  -5  -5   24.37    0.94
   2  -5  -5   23.36    1.01
   2   5   5   23.28    0.81
  -2  -5   5   22.06    0.97
  -2  -5   5   23.87    0.87
   3  -5   5   10.12    0.56
  -3  -5  -5   10.07    0.54
   3  -5   5   10.25    0.48
   3   5  -5    9.99    0.57
  -3   5   5   10.32    0.60
  -3   5   5    8.86    0.57
   3   5  -5    9.63    0.64
   3  -5  -5    9.29    0.54
   3   5   5    9.90    0.59
  -3  -5   5   10.31    0.50
  -3  -5   5   10.63    0.64
  -3   5  -5   11.51    0.60
   3  -5  -5   10.06    0.66
  -3  -5   5   10.41    0.52
   3  -5  -5   10.29    0.50
   3   5   5   10.60    0.47
   4   5  -5    0.69    0.23
   4  -5   5    0.66    0.16
  -4   5   5    0.39    0.24
   4   5  -5    0.11    0.23
  -4  -5  -5    0.36    0.20
  -4   5   5    0.21    0.20
   4  -5   5    0.48    0.22
   4   5   5    0.57    0.21
  -4  -5   5    0.31    0.18
   4  -5  -5    0.51    0.20
  -4  -5   5    0.78    0.20
   4  -5  -5    0.01    0.23
   4  -5  -5    0.27    0.19
  -4   5  -5    0.57    0.24
  -4  -5   5    0.99    0.28
  -5   5   5    2.65    0.40
  -5  -5  -5    1.72    0.34
   5  -5   5    2.42    0.38
   5  -5   5    2.62    0.21
   5  -5   5    2.47    0.20
   5   5  -5    2.81    0.38
   5   5  -5    2.21    0.37
  -5   5   5    1.93    0.34
  -5  -5   5    2.15    0.31
  -5   5  -5    2.14    0.35
   5  -5  -5    2.26    0.41
   5   5   5    2.56    0.37
   5  -5  -5    2.44    0.32
   5  -5  -5    3.51    0.36
   6   5  -5   -0.03    0.24
  -6   5   5    0.14    0.29
  -6  -5  -5    0.75    0.31
   6  -5   5    0.10    0.28
   6   5  -5    0.04    0.30
   6  -5  -5    0.12    0.31
  -6  -5   5    0.12    0.22
  -6   5  -5    0.79    0.28
   6   5   5   -0.02    0.25
  -7  -5  -5    0.52    0.37
   7  -5   5    0.27    0.35
   7   5  -5    0.85    0.41
   7   5  -5    0.30    0.29
  -7   5   5   -0.18    0.32
   7  -5  -5    0.40    0.41
  -7  -5   5    0.27    0.30
  -7   5  -5    0.45    0.33
   7   5   5    0.39    0.33
   8   5  -5    1.22    0.47
   8  -5   5    1.23    0.41
  -8   5   5    1.15    0.50
   8   5  -5    0.96    0.47
  -8  -5  -5    1.54    0.46
   8   5   5    0.85    0.38
   8  -5  -5    1.94    0.50
  -8   5  -5    1.10    0.44
   9   5  -5    1.65    0.51
  -9  -5  -5    0.99    0.45
  -9   5   5    1.78    0.57
   9   5  -5    1.55    0.52
   9  -5   5    1.63    0.53
  -9   5  -5    0.94    0.52
   9  -5  -5    2.50    0.63
   0  -6  -5  111.50    3.09
   0   6   5  108.01    3.12
   0  -6   5  101.94    3.25
   0  -6   5  107.49    3.17
   0   6  -5  112.59    3.35
   0   6   5  105.81    3.23
   0   6  -5  105.95    3.16
   0   6   5  107.53    3.15
   0  -6   5  106.56    3.12
  -1   6   5    3.87    0.35
  -1  -6  -5    3.77    0.32
   1   6  -5    3.87    0.42
   1   6  -5    4.76    0.39
  -1   6   5    3.17    0.30
  -1   6   5    4.09    0.35
   1  -6   5    4.24    0.38
   1  -6   5    3.58    0.34
   1   6   5    3.50    0.27
   1   6   5    3.61    0.28
  -1  -6   5    3.52    0.33
  -1   6  -5    3.49    0.30
  -1  -6   5    4.08    0.32
   1   6   5    4.04    0.26
   1   6   5    3.91    0.37
   1  -6  -5    4.47    0.32
  -1  -6   5    4.22    0.42
   2   6  -5   31.45    1.19
   2   6  -5   30.50    1.27
   2  -6   5   30.12    1.15
  -2  -6  -5   31.60    1.14
  -2   6   5   30.82    1.17
  -2   6   5   32.32    1.22
   2  -6   5   32.75    1.17
  -2  -6   5   33.35    1.14
   2   6   5   33.39    1.06
   2  -6  -5   32.57    1.21
  -2   6  -5   31.78    1.19
  -2  -6   5   30.72    1.26
  -2  -6   5   32.48    1.13
   2   6   5   31.51    1.24
  -2   6  -5   32.19    1.06
   2  -6  -5   32.53    1.11
  -3   6   5   17.48    0.82
  -3   6   5   17.48    0.85
   3  -6   5   16.53    0.73
  -3  -6  -5   17.61    0.79
   3  -6   5   16.42    0.79
   3   6  -5   16.19    0.81
   3   6  -5   16.98    0.89
   3  -6  -5   17.88    0.75
   3   6   5   17.18    0.86
  -3  -6   5   17.93    0.77
  -3  -6   5   17.49    0.90
   3  -6  -5   20.10    0.83
  -3   6  -5   18.07    0.83
  -3  -6   5   19.04    0.74
   4   6  -5    5.26    0.47
   4   6  -5    5.14    0.52
   4  -6   5    4.70    0.44
   4  -6   5    4.18    0.35
  -4   6   5    5.77    0.52
  -4   6   5    5.58    0.54
  -4  -6  -5    5.17    0.44
  -4  -6   5    4.80    0.50
  -4   6  -5    4.39    0.44
  -4  -6   5    5.06    0.43
   4   6   5    4.41    0.46
   4  -6  -5    4.73    0.39
   4  -6  -5    6.07    0.57
   4  -6  -5    5.04    0.42
   5   6  -5    3.14    0.45
   5   6  -5    3.65    0.48
  -5  -6  -5    3.81    0.44
   5  -6   5    3.86    0.32
   5  -6   5    3.49    0.41
  -5   6   5    3.16    0.43
  -5   6   5    3.92    0.50
   5   6   5    4.39    0.46
  -5  -6   5    3.96    0.40
   5  -6  -5    3.48    0.40
   5  -6  -5    3.47    0.53
  -5   6  -5    3.72    0.47
   6  -6   5    2.61    0.22
   6   6  -5    1.73    0.43
  -6  -6  -5    2.20    0.39
  -6   6   5    2.36    0.41
   6   6  -5    2.40    0.41
   6  -6   5    2.61    0.42
  -6  -6   5    3.08    0.38
   6   6   5    2.62    0.41
  -6   6  -5    2.54    0.42
   6  -6  -5    1.82    0.47
  -7  -6  -5    6.20    0.65
   7   6  -5    5.19    0.62
   7   6  -5    6.64    0.64
  -7   6   5    6.81    0.68
   7  -6   5    6.35    0.65
   7   6   5    7.30    0.67
   7  -6  -5    7.10    0.77
  -7  -6   5    7.32    0.59
  -7   6  -5    6.67    0.69
  -8  -6  -5    1.77    0.46
   8  -6   5    1.52    0.49
  -8   6   5    1.27    0.46
   8   6  -5    2.16    0.50
   8   6  -5    1.38    0.51
   8  -6  -5    2.15    0.55
   8   6   5    2.08    0.48
  -8   6  -5    1.71    0.48
   9   6  -5   10.73    0.93
   9   6  -5   10.62    0.92
  -9   6   5   10.51    0.96
  -9  -6  -5   10.67    0.96
   9  -6   5    9.58    0.92
  -9   6  -5    9.98    0.96
   9  -6  -5    8.24    0.94
   0   7   5   87.91    2.76
   0   7   5   87.48    2.62
   0   7   5   85.74    2.68
   0  -7  -5   92.44    2.65
   0  -7   5   93.09    2.69
   0  -7   5   89.03    2.81
   0   7  -5   83.65    2.66
  -1   7   5    9.40    0.56
  -1   7   5    9.99    0.58
   1  -7   5   11.18    0.62
   1   7  -5    9.65    0.65
  -1  -7  -5   10.40    0.55
  -1   7   5    9.82    0.54
   1  -7   5    9.01    0.56
   1   7  -5    8.43    0.54
  -1   7  -5   10.13    0.51
  -1  -7   5   10.23    0.55
  -1  -7   5    9.99    0.63
  -1  -7   5   10.34    0.54
   1  -7  -5    9.33    0.52
   1   7   5   10.31    0.50
  -1   7  -5   11.34    0.58
   1   7   5    9.70    0.60
   1   7   5   10.38    0.50
   2  -7   5   33.33    1.28
  -2   7   5   34.57    1.26
  -2   7   5   34.21    1.31
  -2  -7  -5   35.76    1.26
  -2   7   5   35.18    1.29
   2  -7   5   33.09    1.27
   2   7  -5   32.93    1.29
   2   7  -5   34.47    1.41
   2  -7  -5   35.08    1.21
  -2  -7   5   34.78    1.38
   2   7   5   33.61    1.05
  -2  -7   5   32.37    1.17
  -2  -7   5   33.23    1.22
   2   7   5   33.38    1.33
  -2   7  -5   34.52    1.28
   2   7   5   35.36    1.06
   3   7  -5    8.23    0.60
  -3   7   5    7.86    0.56
   3  -7   5    7.52    0.50
   3   7  -5    6.87    0.61
   3  -7   5    7.05    0.52
  -3   7   5    7.73    0.59
  -3  -7  -5    8.75    0.55
   3  -7  -5    9.61    0.54
  -3  -7   5    8.07    0.51
   3  -7  -5    7.75    0.51
  -3  -7   5    8.47    0.65
   3   7   5    7.57    0.58
  -3   7  -5    7.49    0.56
   4  -7   5    4.63    0.45
  -4  -7  -5    4.56    0.44
   4  -7   5    5.04    0.42
  -4   7   5    4.41    0.51
  -4   7   5    4.93    0.50
   4   7  -5    4.53    0.47
   4   7  -5    4.24    0.53
   4  -7  -5    4.12    0.40
   4   7   5    4.81    0.49
  -4  -7   5    3.77    0.40
  -4   7  -5    3.83    0.44
   4  -7  -5    4.30    0.40
   5   7  -5    2.34    0.40
   5  -7   5    1.62    0.29
  -5  -7  -5    1.50    0.33
   5  -7   5    1.90    0.37
   5   7  -5    1.09    0.35
  -5   7   5    2.05    0.41
  -5   7   5    1.94    0.42
  -5   7  -5    1.88    0.36
   5   7   5    2.97    0.44
  -5  -7   5    1.52    0.31
   5  -7  -5    1.99    0.36
  -6   7   5    0.90    0.37
   6   7  -5    1.19    0.45
   6  -7   5    1.78    0.39
   6   7  -5    1.57    0.38
  -6  -7  -5    1.52    0.40
   6  -7   5    1.96    0.28
  -6  -7   5    1.59    0.36
   6   7   5    1.81    0.40
  -6   7  -5    1.94    0.42
   6  -7  -5    1.35    0.47
   7   7  -5    4.56    0.59
   7   7  -5    4.76    0.63
   7  -7   5    3.74    0.55
  -7   7   5    3.69    0.58
  -7  -7  -5    3.50    0.57
   7  -7  -5    4.79    0.65
  -7   7  -5    5.38    0.63
  -7  -7   5    4.11    0.53
   7   7   5    3.17    0.51
   8   7  -5    3.46    0.63
   8   7  -5    3.87    0.61
   8  -7   5    2.68    0.57
  -8  -7  -5    3.06    0.55
  -8   7   5    3.47    0.58
   8  -7  -5    3.80    0.67
  -8   7  -5    3.49    0.65
   8   7   5    3.34    0.56
   0   8   5    4.45    0.41
   0   8  -5    4.98    0.41
   0   8   5    5.59    0.40
   0   8  -5    5.03    0.40
   0  -8   5    4.77    0.41
   0   8   5    4.97    0.47
   0  -8  -5    4.69    0.41
   0  -8   5    4.95    0.48
   1   8  -5   14.89    0.76
  -1   8   5   14.21    0.76
   1   8  -5   14.98    0.67
  -1  -8  -5   15.12    0.74
  -1   8   5   15.49    0.77
   1  -8   5   15.47    0.77
   1  -8   5   15.50    0.81
  -1   8   5   15.35    0.73
  -1   8  -5   14.67    0.69
   1   8   5   13.69    0.78
  -1  -8   5   16.04    0.76
  -1   8  -5   15.27    0.72
   1   8   5   14.30    0.65
  -1  -8   5   13.95    0.80
   1  -8  -5   14.42    0.71
   2   8  -5   12.92    0.83
  -2  -8  -5   14.33    0.75
   2   8  -5   15.29    0.79
   2  -8   5   15.25    0.79
  -2   8   5   14.07    0.79
  -2   8   5   14.71    0.75
   2  -8   5   15.76    0.79
  -2   8   5   15.21    0.75
  -2  -8   5   16.13    0.76
  -2   8  -5   15.02    0.77
  -2  -8   5   14.03    0.83
   2   8   5   14.90    0.82
   2  -8  -5   13.80    0.72
   2   8   5   16.57    0.62
   3  -8   5    1.41    0.31
  -3   8   5    1.21    0.33
  -3  -8  -5    1.10    0.29
   3   8  -5    0.72    0.29
  -3   8   5    0.98    0.29
   3   8  -5    1.10    0.37
   3  -8   5    1.11    0.28
   3  -8  -5    0.55    0.24
  -3  -8   5    1.08    0.32
  -3   8  -5    0.87    0.28
   3   8   5    1.06    0.29
   3  -8  -5    1.01    0.28
  -3  -8   5    1.18    0.26
   4   8  -5    8.92    0.68
  -4   8   5    8.58    0.70
   4  -8   5    7.38    0.52
   4   8  -5    7.87    0.69
  -4   8   5    8.32    0.66
   4  -8   5    7.97    0.62
  -4  -8  -5    7.88    0.59
   4   8   5    6.65    0.63
   4  -8  -5    8.59    0.57
  -4   8  -5    7.79    0.61
  -4  -8   5    8.02    0.57
   5  -8   5    5.88    0.49
  -5  -8  -5    5.06    0.54
  -5   8   5    4.77    0.61
   5   8  -5    4.33    0.57
  -5   8   5    4.51    0.57
   5   8  -5    5.64    0.58
   5  -8   5    4.72    0.54
  -5   8  -5    5.00    0.53
   5   8   5    6.62    0.60
  -5  -8   5    4.52    0.49
  -6   8   5    1.09    0.40
   6   8  -5    0.93    0.42
   6  -8   5    0.67    0.36
   6   8  -5    1.44    0.45
  -6  -8  -5    0.92    0.35
   6  -8   5    0.74    0.29
  -6  -8   5    0.47    0.33
  -6   8  -5    1.38    0.42
   6   8   5    1.09    0.45
   7   8  -5   26.19    1.39
   7  -8   5   26.17    1.35
  -7   8   5   23.91    1.35
   7   8  -5   24.55    1.34
   7  -8   5   27.54    0.98
  -7   8  -5   26.23    1.40
  -7  -8   5   28.66    1.29
   7  -8  -5   26.90    1.50
   7   8   5   29.34    1.42
   8   8  -5    2.47    0.56
   8  -8   5    2.19    0.55
  -8   8   5    2.79    0.61
  -8  -8  -5    1.57    0.56
   8   8  -5    2.88    0.62
  -8   8  -5    2.59    0.60
   8   8   5    2.33    0.56
   8  -8  -5    2.13    0.63
   0  -9   5    9.84    0.70
   0   9  -5   10.40    0.57
   0   9   5    8.79    0.57
   0   9  -5   10.41    0.63
   0  -9  -5   10.72    0.62
   0   9   5   10.10    0.68
   0  -9   5   10.22    0.63
  -1  -9  -5   15.79    0.77
   1  -9   5   15.53    0.86
   1  -9   5   15.35    0.80
  -1   9   5   14.30    0.72
  -1   9   5   14.50    0.79
  -1   9   5   14.91    0.80
   1   9  -5   15.42    0.81
   1  -9  -5   14.79    0.76
  -1  -9   5   14.94    0.78
  -1   9  -5   13.86    0.73
   1   9   5   15.90    0.88
   1   9   5   15.27    0.72
  -1  -9   5   16.21    0.89
  -2   9   5   10.82    0.71
  -2  -9  -5   11.65    0.67
  -2   9   5    9.44    0.63
   2  -9   5    9.65    0.69
  -2   9   5   11.29    0.66
   2   9  -5    9.33    0.69
   2  -9   5   10.78    0.70
   2   9  -5   10.84    0.77
   2   9   5   11.59    0.76
   2   9   5   10.78    0.53
  -2  -9   5   11.13    0.76
   2  -9  -5   10.26    0.64
  -2  -9   5   11.92    0.69
  -2   9  -5   11.81    0.68
  -3   9   5    1.99    0.37
  -3   9   5    1.35    0.36
   3   9  -5    1.27    0.33
   3  -9   5    1.28    0.33
   3   9  -5    1.65    0.38
   3  -9   5    1.17    0.33
  -3  -9  -5    1.73    0.35
   3  -9  -5    1.78    0.32
  -3  -9   5    2.43    0.37
  -3   9  -5    1.61    0.36
   3   9   5    1.62    0.36
  -4   9   5    8.07    0.72
   4  -9   5    7.63    0.64
  -4   9   5    8.01    0.67
   4  -9   5    6.77    0.57
  -4  -9  -5    7.82    0.63
   4   9  -5    8.38    0.77
   4   9  -5    8.27    0.69
  -4   9  -5    8.51    0.67
   4  -9  -5    8.14    0.62
  -4  -9   5    8.58    0.64
   4   9   5    7.73    0.67
  -5   9   5    4.73    0.56
   5  -9   5    4.38    0.54
   5  -9   5    4.91    0.50
  -5  -9  -5    3.71    0.51
  -5   9   5    4.19    0.63
   5   9  -5    4.13    0.58
   5   9  -5    3.50    0.59
  -5   9  -5    4.10    0.54
   5   9   5    4.47    0.58
  -5  -9   5    4.58    0.50
   6   9  -5    1.32    0.45
  -6  -9  -5    1.32    0.45
   6  -9   5    0.94    0.38
   6   9  -5    1.30    0.44
   6  -9   5    1.55    0.35
  -6   9   5    1.58    0.50
  -6  -9   5    1.32    0.42
  -6   9  -5    1.28    0.43
   6   9   5    1.89    0.45
   7   9  -5    0.03    0.43
  -7   9   5    0.26    0.48
   7  -9   5    0.44    0.48
   7  -9   5    0.23    0.26
  -7  -9  -5    0.21    0.38
   7   9  -5    0.94    0.48
  -7   9  -5    0.77    0.50
   7   9   5    0.31    0.41
  -7  -9   5    0.80    0.41
   0  10   5    2.15    0.41
   0 -10  -5    2.94    0.40
   0 -10   5    2.72    0.39
   0  10   5    2.10    0.37
   0 -10   5    2.27    0.42
  -1  10   5    1.78    0.39
  -1  10   5    2.78    0.42
   1 -10   5    3.55    0.51
  -1 -10  -5    1.83    0.38
   1  10  -5    2.29    0.42
   1 -10   5    1.99    0.37
   1  10   5    2.56    0.34
  -1 -10   5    2.48    0.48
   1  10   5    2.10    0.43
  -1 -10   5    1.88    0.35
  -1  10  -5    2.71    0.35
   1 -10  -5    2.05    0.37
   2 -10   5    2.37    0.43
   2 -10   5    2.54    0.42
   2  10  -5    2.92    0.47
  -2 -10  -5    2.18    0.39
  -2  10   5    3.11    0.41
  -2  10   5    2.81    0.43
  -2  10   5    2.34    0.38
  -2  10  -5    3.09    0.41
  -2 -10   5    2.42    0.46
   2 -10  -5    2.23    0.40
  -2 -10   5    2.54    0.39
   2  10   5    2.23    0.31
   2  10   5    2.93    0.45
   3  10  -5    0.04    0.32
  -3  10   5   -0.37    0.32
   3 -10   5    0.09    0.31
   3 -10   5    0.03    0.31
   3  10  -5    0.06    0.29
  -3  10   5    0.49    0.35
  -3 -10  -5    0.73    0.32
  -3 -10   5   -0.16    0.28
  -3  10  -5    0.12    0.28
   3 -10  -5    0.14    0.27
   3  10   5    0.01    0.30
   3  10   5   -0.24    0.16
   4 -10   5    2.19    0.44
   4  10  -5    2.33    0.49
  -4 -10  -5    1.93    0.42
  -4  10   5    1.82    0.43
   4  10  -5    2.21    0.50
   4 -10   5    1.28    0.38
  -4  10   5    1.60    0.52
  -4 -10   5    2.34    0.42
   4  10   5    2.72    0.48
  -4  10  -5    2.95    0.46
   4 -10  -5    2.13    0.41
   5  10  -5    3.12    0.59
   5  10  -5    2.38    0.52
  -5 -10  -5    3.64    0.49
   5 -10   5    2.77    0.44
  -5  10   5    2.82    0.54
   5 -10   5    3.43    0.55
  -5  10   5    2.84    0.57
  -5  10  -5    2.35    0.49
  -5 -10   5    3.78    0.51
   5  10   5    3.22    0.58
   6 -10   5    0.71    0.36
  -6  10   5    1.00    0.51
   6 -10   5    0.94    0.47
   6  10  -5    0.35    0.45
  -6 -10  -5    0.47    0.43
   6  10  -5    0.13    0.40
   6  10   5    0.87    0.45
  -6 -10   5    1.15    0.38
  -6  10  -5    0.27    0.47
  -7  10   5    2.05    0.57
   7 -10   5    1.32    0.57
   7  10  -5    1.87    0.60
   7  10  -5    1.64    0.56
  -7 -10  -5    2.83    0.59
   7 -10   5    2.69    0.44
  -7  10  -5    3.03    0.61
  -7 -10   5    2.49    0.55
   7  10   5    1.76    0.56
   0  11   5   -0.19    0.33
   0  11   5    0.32    0.28
   0 -11  -5    0.14    0.31
   0 -11   5   -0.11    0.27
   0 -11   5   -0.10    0.35
   1 -11   5   30.63    1.33
  -1 -11  -5   29.26    1.25
  -1  11   5   27.05    1.25
  -1  11   5   29.40    1.31
   1 -11   5   26.99    1.35
   1  11  -5   27.91    1.26
  -1 -11   5   29.46    1.41
  -1 -11   5   28.32    1.28
   1  11   5   30.19    1.35
   1 -11  -5   28.40    1.25
   1  11   5   27.49    1.18
  -2  11   5    0.59    0.33
  -2 -11  -5    0.78    0.31
   2  11  -5    0.65    0.33
   2 -11   5    0.66    0.34
   2 -11   5    0.61    0.35
   2  11   5    0.04    0.33
   2  11   5    0.22    0.24
  -2 -11   5    0.77    0.35
  -2  11  -5    0.50    0.33
   2 -11  -5    0.88    0.34
   3 -11   5   16.30    0.98
   3  11  -5   15.62    1.07
  -3  11   5   16.32    0.93
  -3 -11  -5   17.58    0.96
   3 -11   5   13.84    0.94
  -3  11   5   15.55    1.01
   3  11  -5   14.37    0.96
   3  11   5   14.45    0.98
   3 -11  -5   16.03    0.93
   3  11   5   15.54    0.66
  -3 -11   5   17.12    0.96
  -3  11  -5   17.88    0.96
   4  11  -5    1.52    0.45
   4  11  -5    1.92    0.52
   4 -11   5    1.59    0.45
  -4  11   5    1.24    0.45
  -4 -11  -5    1.69    0.46
  -4  11   5    1.78    0.50
   4 -11   5    1.38    0.42
   4  11   5    1.78    0.48
  -4 -11   5    1.64    0.45
  -4  11  -5    1.27    0.43
   5  11  -5    1.40    0.50
   5 -11   5    1.01    0.44
   5  11  -5    1.98    0.57
  -5  11   5    2.75    0.60
  -5 -11  -5    2.01    0.49
   5 -11   5    1.94    0.47
  -5  11   5    1.50    0.52
  -5 -11   5    1.57    0.47
   5  11   5    1.79    0.48
  -5  11  -5    1.87    0.53
  -6  11   5    1.77    0.54
  -6 -11  -5    0.50    0.50
   6 -11   5    1.58    0.56
   6 -11   5    1.21    0.43
   6  11  -5    1.79    0.56
   6  11  -5    1.11    0.54
  -6  11  -5    1.20    0.48
   6  11   5    1.15    0.55
  -6 -11   5    1.45    0.50
   0  12   5    1.52    0.43
   0  12   5    2.27    0.50
   0 -12   5    1.01    0.41
   0 -12  -5    1.22    0.41
   0 -12   5    1.69    0.53
  -1  12   5   11.26    0.81
   1 -12   5   10.04    0.88
  -1 -12  -5   12.51    0.82
   1 -12   5    9.69    0.81
   1 -12  -5   11.68    0.81
   1  12   5   10.01    0.69
  -1 -12   5   10.60    0.81
   1  12   5   12.42    0.89
  -1 -12   5   10.95    0.94
  -2  12   5    0.78    0.43
   2  12  -5    0.47    0.37
   2 -12   5    0.44    0.41
  -2 -12  -5    1.47    0.43
   2 -12   5    0.60    0.46
   2 -12  -5    0.36    0.33
  -2 -12   5    1.10    0.38
   2  12   5    1.04    0.47
   2  12   5    0.57    0.30
   3 -12   5    1.37    0.46
   3  12  -5    2.66    0.60
  -3 -12  -5    2.55    0.52
   3  12  -5    2.95    0.55
  -3  12   5    3.31    0.62
   3 -12   5    2.07    0.54
   3 -12  -5    1.80    0.49
  -3  12  -5    2.84    0.51
   3  12   5    2.14    0.52
  -3 -12   5    2.28    0.52
   3  12   5    3.08    0.35
   4  12  -5    9.38    0.91
   4 -12   5    8.78    0.85
   4  12  -5    9.43    0.89
   4 -12   5    8.74    0.84
  -4 -12  -5    9.28    0.83
  -4  12   5   10.06    0.95
  -4  12  -5    9.27    0.81
   4  12   5   10.67    0.94
  -4 -12   5    8.34    0.72
   5 -12   5    1.35    0.47
   5  12  -5    1.47    0.56
   5 -12   5    1.40    0.55
   5  12  -5    1.30    0.55
  -5 -12  -5    2.31    0.59
  -5  12   5    3.18    0.68
  -5  12   5    1.78    0.56
  -5 -12   5    1.27    0.51
   5  12   5    1.70    0.53
  -5  12  -5    2.08    0.57
   0  13   5    4.88    0.64
   0 -13   5    4.37    0.71
   0 -13  -5    5.30    0.66
   0 -13   5    4.41    0.56
   0  13   5    3.76    0.54
   1 -13   5   15.17    1.00
  -1  13   5   16.15    1.01
  -1 -13  -5   16.40    1.04
   1 -13   5   15.42    1.09
   1  13   5   17.30    1.11
   1  13   5   14.17    0.87
  -1 -13   5   15.44    0.98
   1 -13  -5   16.17    1.00
  -2  13   5    0.08    0.45
  -2 -13  -5    1.34    0.50
   2 -13   5   -0.09    0.44
   2 -13   5    0.03    0.40
  -2 -13   5    0.74    0.46
   2  13   5    0.27    0.47
   2 -13  -5    0.34    0.40
   2  13   5    0.27    0.35
   3  13  -5   23.31    1.29
  -3  13   5   23.88    1.38
   3 -13   5   22.92    1.33
   3 -13   5   24.33    1.32
  -3 -13  -5   24.41    1.30
  -3 -13   5   25.35    1.31
   3  13   5   25.47    0.98
   3  13   5   22.74    1.38
   0 -14   5    4.73    0.66
   0 -14  -5    3.67    0.64
   0   0   6    8.40    0.35
   0   0   6    8.12    0.44
   0   0   6    8.17    0.34
   0   0  -6    7.80    0.45
   0   0   6    8.54    0.29
  -1   0   6   -0.21    0.10
  -1   0   6    0.17    0.12
  -1   0  -6    0.14    0.14
   1   0  -6   -0.09    0.12
  -1   0   6   -0.07    0.07
   1   0  -6    0.11    0.12
   1   0   6    0.07    0.13
   1   0   6    0.07    0.08
   2   0   6    9.71    0.43
   2   0   6    9.16    0.49
  -2   0   6    9.23    0.47
  -2   0  -6    8.46    0.46
  -2   0   6    9.68    0.50
   2   0  -6    8.64    0.49
   2   0  -6    8.89    0.52
   3   0   6    4.42    0.32
   3   0   6    4.23    0.35
   3   0   6    4.81    0.34
  -3   0   6    4.71    0.23
  -3   0   6    4.36    0.37
  -3   0   6    4.63    0.36
   3   0  -6    3.46    0.34
   3   0  -6    4.31    0.40
   4   0  -6   35.09    1.27
  -4   0   6   32.87    1.26
   4   0   6   33.12    1.24
   4   0  -6   35.32    1.37
  -4   0   6   36.06    1.09
   4   0   6   36.71    1.28
   4   0   6   35.12    1.19
  -4   0   6   33.08    1.31
  -5   0   6   12.63    0.70
   5   0   6   14.41    0.73
   5   0   6   14.98    0.65
   5   0  -6   13.92    0.71
  -5   0   6   14.38    0.79
  -5   0  -6   14.58    0.70
   5   0  -6   14.26    0.82
   6   0  -6   10.28    0.75
  -6   0  -6   10.46    0.63
   6   0  -6   11.71    0.65
   6   0   6   11.08    0.68
  -6   0   6    9.77    0.70
  -6   0   6   11.17    0.68
  -7   0  -6    0.46    0.25
   7   0  -6    0.70    0.38
  -7   0   6    0.72    0.32
   7   0  -6    0.66    0.30
   7   0   6    0.78    0.32
   8   0  -6    0.03    0.27
  -8   0   6   -0.35    0.29
   8   0  -6   -0.24    0.40
   8   0   6   -0.64    0.28
  -9   0   6   -0.44    0.36
   9   0   6   -0.27    0.38
   9   0  -6    0.03    0.43
  10   0  -6    4.09    0.75
   0  -1   6    6.38    0.37
   0   1   6    6.15    0.26
   0   1   6    5.71    0.37
   0  -1   6    6.56    0.32
   0  -1   6    6.02    0.26
   0  -1  -6    6.35    0.23
   0   1   6    6.26    0.27
   0   1  -6    6.41    0.39
   0  -1   6    6.14    0.30
   0  -1  -6    6.02    0.39
  -1   1   6   22.62    0.81
  -1   1   6   22.92    0.86
  -1  -1  -6   22.69    0.87
  -1   1   6   23.41    0.82
   1   1  -6   22.54    0.88
   1   1  -6   21.68    0.87
   1  -1   6   23.03    0.75
   1  -1   6   21.51    0.86
  -1  -1   6   22.37    0.85
  -1  -1   6   21.72    0.81
   1   1   6   22.01    0.84
  -1   1  -6   22.59    0.84
  -1  -1   6   22.24    0.64
  -1  -1   6   21.95    0.83
   1   1   6   23.20    0.72
   1  -1  -6   21.68    0.87
  -2   1   6   99.59    2.94
   2   1  -6   97.32    2.97
  -2   1   6   98.63    2.95
   2   1  -6   97.53    3.00
   2  -1   6  101.43    2.83
   2  -1   6  100.19    2.96
   2   1   6  101.81    2.83
  -2  -1   6  101.58    3.00
  -2  -1   6  101.52    2.95
  -2   1  -6  101.67    2.93
  -2  -1   6  100.38    2.69
   2   1   6   97.35    2.93
   2  -1  -6  100.92    3.04
   2  -1  -6   98.70    3.00
   2   1   6   97.11    2.94
   3  -1   6    5.76    0.37
   3   1  -6    5.21    0.40
   3   1  -6    5.75    0.47
   3  -1   6    5.05    0.42
  -3   1   6    5.35    0.40
  -3   1   6    5.83    0.41
   3  -1  -6    5.25    0.45
  -3  -1   6    5.91    0.40
  -3  -1   6    4.98    0.41
   3   1   6    4.85    0.36
   3  -1  -6    5.14    0.41
  -3  -1   6    5.62    0.27
   3  -1  -6    5.81    0.25
  -3   1  -6    6.36    0.38
   3   1   6    5.21    0.36
   3   1   6    5.54    0.38
   4  -1   6   29.82    1.13
   4   1  -6   29.61    1.15
  -4   1   6   30.39    1.16
   4   1  -6   29.58    1.24
  -4   1   6   31.08    1.21
  -4   1  -6   29.91    1.04
   4   1   6   30.02    1.11
  -4  -1   6   29.54    1.20
   4   1   6   29.89    1.12
   4  -1  -6   30.84    1.15
  -4  -1   6   30.86    1.14
  -4  -1   6   30.36    0.98
   4  -1  -6   27.63    1.23
   4   1   6   30.47    1.09
  -5   1   6   11.12    0.66
   5   1  -6   11.84    0.74
  -5   1   6   11.27    0.70
   5  -1   6   10.94    0.65
  -5  -1  -6   11.54    0.59
   5   1  -6   11.72    0.66
   5   1   6   11.48    0.59
   5  -1  -6   11.88    0.63
  -5  -1   6   12.75    0.74
  -5   1  -6   11.68    0.63
   5  -1  -6   12.43    0.75
  -5  -1   6   10.11    0.61
   5   1   6   10.40    0.63
   6   1  -6   25.83    1.07
  -6   1   6   24.17    1.08
  -6   1   6   24.76    1.15
  -6  -1  -6   23.88    0.99
   6   1  -6   24.43    1.20
   6  -1   6   22.19    1.05
   6   1   6   24.98    0.97
  -6   1  -6   23.43    1.04
   6  -1  -6   24.90    1.04
  -6  -1   6   24.22    1.04
   6  -1  -6   23.58    1.16
   6   1   6   21.93    1.05
   7   1  -6   26.06    1.27
  -7   1   6   24.69    1.15
   7  -1   6   24.46    1.16
   7   1  -6   25.03    1.12
  -7  -1  -6   24.95    1.06
   7  -1  -6   26.50    1.28
   7  -1  -6   25.03    1.08
   7   1   6   23.61    1.15
  -7  -1   6   24.92    1.10
  -7   1  -6   24.50    1.12
  -8   1   6    3.02    0.50
   8   1  -6    3.33    0.47
   8   1  -6    2.51    0.52
   8  -1   6    2.18    0.49
  -8   1  -6    2.44    0.46
  -8  -1   6    2.88    0.44
   8  -1  -6    2.68    0.58
   8   1   6    2.89    0.48
   9  -1   6    7.01    0.75
   9   1  -6    7.60    0.84
  -9   1   6    6.32    0.68
   9  -1  -6    6.00    0.79
   9   1   6    7.36    0.76
   0  -2   6    1.99    0.23
   0  -2   6    1.51    0.18
   0  -2   6    1.51    0.19
   0   2  -6    1.38    0.20
   0  -2   6    1.80    0.16
   0  -2  -6    1.59    0.22
   0   2   6    1.80    0.15
   0  -2  -6    1.67    0.13
   0   2   6    1.92    0.15
   0   2   6    1.18    0.18
  -1   2   6   45.81    1.42
   1  -2   6   44.88    1.30
   1   2  -6   44.29    1.50
  -1   2   6   41.83    1.45
   1  -2   6   45.23    1.30
   1  -2   6   42.35    1.47
  -1   2   6   44.43    1.41
   1   2  -6   44.66    1.48
   1  -2   6   43.85    1.35
  -1  -2  -6   46.01    1.33
  -1  -2   6   43.66    1.48
  -1   2  -6   48.04    1.49
   1   2   6   44.57    1.51
  -1  -2   6   47.18    1.32
   1  -2  -6   46.00    1.55
   1  -2  -6   46.53    1.26
  -1  -2   6   45.37    1.49
   1   2   6   46.85    1.48
  -2   2   6    1.67    0.24
   2   2  -6    2.08    0.25
   2  -2   6    1.94    0.22
  -2  -2  -6    2.32    0.23
  -2   2   6    1.84    0.25
   2   2  -6    1.69    0.26
   2  -2   6    2.06    0.26
  -2  -2   6    2.21    0.27
   2   2   6    1.95    0.23
   2  -2  -6    1.95    0.25
   2  -2  -6    1.92    0.13
   2   2   6    1.91    0.25
  -2   2  -6    2.40    0.23
  -2  -2   6    2.16    0.16
   2  -2  -6    1.76    0.28
  -2  -2   6    2.13    0.25
   3   2  -6    3.65    0.40
   3   2  -6    3.71    0.35
   3  -2   6    3.57    0.34
  -3   2   6    3.83    0.36
   3  -2   6    4.20    0.32
  -3   2   6    4.02    0.37
   3   2   6    4.48    0.34
  -3  -2   6    4.22    0.26
   3   2   6    4.56    0.35
  -3   2  -6    4.69    0.32
   3  -2  -6    4.49    0.37
   3  -2  -6    3.42    0.37
  -3  -2   6    5.15    0.43
   3   2   6    4.41    0.35
  -3  -2   6    4.30    0.34
   4  -2   6   24.75    0.99
   4   2  -6   24.59    1.01
  -4   2   6   24.61    1.05
   4   2  -6   24.41    1.10
  -4   2   6   24.13    1.01
  -4   2  -6   24.70    0.88
   4   2   6   23.59    0.96
   4  -2  -6   25.22    1.00
  -4  -2   6   25.03    0.98
  -4   2  -6   24.14    0.99
  -4  -2   6   23.80    1.05
  -4  -2   6   25.51    0.87
   4   2   6   26.34    0.98
   4   2   6   25.06    0.96
   4  -2  -6   24.01    1.10
   5   2  -6   11.43    0.73
   5  -2   6   10.87    0.62
  -5  -2  -6   10.22    0.55
   5   2  -6   10.95    0.64
  -5   2   6   10.70    0.67
  -5   2   6   10.86    0.70
  -5   2  -6   10.35    0.62
  -5  -2   6   10.82    0.60
  -5  -2   6   10.52    0.52
   5   2   6   10.14    0.58
  -5  -2   6    9.99    0.67
   5  -2  -6    9.73    0.58
   5   2   6   10.53    0.60
   5  -2  -6   10.94    0.70
  -6   2   6    8.76    0.63
  -6   2   6    8.62    0.72
  -6  -2  -6    8.87    0.53
   6  -2   6    8.41    0.62
   6   2  -6    8.12    0.69
   6   2  -6    8.24    0.58
   6   2   6    7.76    0.54
   6  -2  -6    8.99    0.75
  -6   2  -6    8.38    0.60
   6  -2  -6    7.87    0.55
  -6  -2   6    8.52    0.55
   6   2   6    8.14    0.60
   7   2  -6    7.28    0.73
   7   2  -6    9.01    0.65
   7  -2   6    5.22    0.59
  -7   2   6    8.86    0.69
   7   2   6    6.18    0.62
   7  -2  -6    6.17    0.52
  -7   2  -6    8.73    0.64
   7  -2  -6    6.42    0.71
  -7  -2   6    7.20    0.56
   8   2  -6    0.90    0.42
   8  -2   6    0.83    0.43
   8   2  -6    1.04    0.39
  -8   2   6    1.20    0.37
  -8   2  -6    1.50    0.41
   8   2   6    1.67    0.48
   8  -2  -6    1.74    0.47
   9   2  -6    9.46    0.75
   9   2  -6    8.32    0.88
   9  -2   6    9.57    0.83
  -9   2   6    8.62    0.78
   9  -2  -6    8.74    0.88
   9   2   6    9.56    0.84
  -9   2  -6    7.53    0.74
   0  -3   6   70.12    2.12
   0   3   6   68.98    2.13
   0  -3   6   72.66    2.17
   0   3   6   69.72    2.02
   0   3  -6   69.52    2.20
   0  -3   6   67.66    2.01
   0  -3   6   70.37    2.13
   0  -3  -6   70.92    1.97
   0   3  -6   69.61    2.15
   0   3   6   72.50    2.02
   1   3  -6    6.07    0.41
  -1   3   6    5.88    0.36
  -1   3   6    6.61    0.41
   1  -3   6    6.99    0.34
  -1   3   6    6.66    0.39
   1  -3   6    6.62    0.34
   1   3  -6    6.73    0.46
   1  -3   6    5.95    0.34
   1  -3   6    6.51    0.44
  -1  -3  -6    6.00    0.32
  -1  -3   6    5.80    0.30
   1  -3  -6    5.70    0.41
   1   3   6    5.67    0.40
  -1  -3   6    6.62    0.40
  -1  -3   6    6.17    0.39
   1  -3  -6    6.72    0.28
  -1   3  -6    7.32    0.40
   1  -3  -6    6.36    0.43
   1   3   6    6.26    0.38
  -2  -3  -6    5.80    0.36
   2   3  -6    4.10    0.36
  -2   3   6    4.98    0.38
   2  -3   6    5.06    0.21
   2   3  -6    3.96    0.39
   2  -3   6    4.53    0.37
  -2   3   6    5.06    0.38
   2  -3   6    5.11    0.35
   2   3   6    4.34    0.36
  -2  -3   6    5.17    0.35
   2  -3  -6    5.06    0.40
  -2  -3   6    4.43    0.26
   2  -3  -6    4.76    0.42
   2   3   6    5.25    0.35
  -2  -3   6    4.68    0.39
  -2   3  -6    4.94    0.33
   2  -3  -6    4.39    0.25
   3  -3   6   24.19    0.93
  -3   3   6   23.00    0.96
   3  -3   6   22.24    0.95
  -3  -3  -6   23.25    0.89
   3   3  -6   23.95    0.97
  -3   3   6   22.41    0.95
   3   3  -6   23.04    1.02
  -3   3  -6   24.34    0.86
   3   3   6   23.72    0.97
  -3  -3   6   23.70    0.94
  -3  -3   6   24.43    1.02
   3  -3  -6   25.08    0.81
  -3  -3   6   24.80    0.83
   3   3   6   25.17    0.92
   3  -3  -6   24.14    0.98
  -4  -3  -6   25.45    1.02
  -4   3   6   24.63    1.05
   4   3  -6   25.75    1.05
  -4   3   6   24.89    1.08
   4  -3   6   25.20    1.03
   4   3  -6   26.37    1.14
   4   3   6   26.34    0.98
  -4  -3   6   24.41    1.10
   4  -3  -6   25.68    1.15
  -4  -3   6   27.19    1.01
  -4  -3   6   26.85    0.93
  -4   3  -6   25.61    1.06
   4   3   6   26.15    1.05
   4  -3  -6   25.77    1.03
   5  -3   6   36.93    1.40
   5   3  -6   36.30    1.51
  -5   3   6   36.15    1.43
  -5  -3  -6   37.72    1.26
   5   3  -6   34.99    1.40
  -5   3   6   39.25    1.50
  -5   3  -6   37.94    1.44
  -5  -3   6   38.15    1.53
  -5  -3   6   36.87    1.35
   5  -3  -6   39.20    1.41
  -5  -3   6   38.43    1.31
   5   3   6   38.76    1.42
   5  -3  -6   38.55    1.55
   6  -3   6   11.61    0.71
   6   3  -6   11.00    0.77
  -6   3   6   10.40    0.69
   6   3  -6   10.32    0.71
  -6   3   6   10.27    0.73
   6  -3  -6   11.14    0.65
  -6  -3   6   11.16    0.63
   6   3   6   11.26    0.68
   6   3   6   11.37    0.70
  -6   3  -6   10.99    0.70
   6  -3  -6   11.98    0.81
  -7   3   6    1.83    0.43
   7  -3   6    0.68    0.32
   7   3  -6    1.49    0.38
   7   3  -6    1.41    0.43
   7   3   6    2.59    0.39
  -7   3  -6    1.20    0.37
   7  -3  -6    1.67    0.43
   7   3   6    1.76    0.41
   8  -3   6    2.58    0.51
   8   3  -6    3.09    0.49
   8   3  -6    2.74    0.53
  -8   3   6    2.02    0.48
   8  -3  -6    2.63    0.57
  -8   3  -6    2.50    0.47
  -9   3   6    4.69    0.66
   9   3  -6    4.44    0.58
  -9  -3  -6    5.16    0.70
   9  -3   6    4.77    0.69
   9   3  -6    4.52    0.70
   9  -3  -6    3.71    0.69
  -9   3  -6    4.79    0.63
   0  -4  -6   49.79    1.46
   0   4   6   49.78    1.49
   0  -4   6   49.74    1.51
   0  -4   6   46.73    1.59
   0   4  -6   48.64    1.59
   0   4   6   49.45    1.58
   0  -4   6   48.18    1.62
   0   4   6   50.78    1.49
   0   4   6   49.52    1.64
   1  -4   6    6.82    0.38
  -1   4   6    6.34    0.38
  -1   4   6    6.98    0.43
   1  -4   6    5.60    0.41
   1  -4   6    6.95    0.38
  -1  -4  -6    6.33    0.36
   1  -4   6    6.49    0.39
  -1   4   6    6.38    0.38
   1   4  -6    6.54    0.42
   1   4  -6    5.03    0.45
  -1   4  -6    5.51    0.37
  -1  -4   6    6.03    0.33
  -1  -4   6    6.42    0.42
   1  -4  -6    5.69    0.30
   1  -4  -6    7.17    0.46
  -1  -4   6    5.14    0.37
   1   4   6    5.59    0.37
   1   4   6    5.77    0.41
  -2   4   6   32.72    1.20
  -2  -4  -6   32.22    1.11
   2  -4   6   33.86    1.06
   2   4  -6   31.45    1.27
   2  -4   6   34.29    1.07
   2  -4   6   31.88    1.22
   2  -4   6   32.13    1.14
   2   4  -6   32.38    1.21
  -2   4   6   32.31    1.20
   2   4   6   32.91    1.23
  -2  -4   6   34.53    1.26
  -2   4  -6   33.42    1.11
  -2  -4   6   34.15    1.08
  -2  -4   6   32.27    1.16
   2  -4  -6   34.86    1.05
   2  -4  -6   32.74    1.23
   2   4   6   32.39    1.12
   3  -4   6   41.09    1.14
   3   4  -6   38.75    1.51
   3   4  -6   38.95    1.43
  -3   4   6   38.19    1.42
  -3  -4  -6   39.06    1.35
  -3   4   6   38.54    1.43
   3  -4   6   39.82    1.37
  -3  -4   6   39.23    1.49
   3  -4  -6   39.63    1.44
   3  -4  -6   41.62    1.27
   3   4   6   39.90    1.32
  -3  -4   6   40.75    1.29
  -3  -4   6   40.55    1.36
   3   4   6   41.13    1.45
   4  -4   6    0.11    0.19
  -4  -4  -6    0.15    0.21
   4   4  -6   -0.13    0.20
   4   4  -6   -0.32    0.22
  -4   4   6    0.11    0.19
  -4   4   6    0.14    0.20
   4   4   6   -0.02    0.14
   4  -4  -6    0.09    0.18
   4  -4  -6    0.09    0.22
  -4  -4   6    0.09    0.17
  -4  -4   6    0.15    0.16
  -4   4  -6   -0.07    0.18
  -4  -4   6   -0.04    0.22
   4   4   6   -0.14    0.18
   5  -4   6    7.06    0.56
  -5   4   6    8.03    0.60
  -5  -4  -6    7.59    0.58
   5   4  -6    7.16    0.56
  -5   4   6    8.01    0.63
   5   4  -6    8.58    0.70
  -5  -4   6    9.67    0.56
   5  -4  -6   10.10    0.59
  -5   4  -6    8.38    0.59
   5  -4  -6    9.44    0.76
   5   4   6    8.87    0.61
  -5  -4   6    8.81    0.52
  -5  -4   6    8.16    0.68
  -6  -4  -6   11.97    0.75
  -6   4   6   12.06    0.77
  -6   4   6   10.97    0.77
   6  -4   6   11.48    0.76
   6   4  -6   12.80    0.78
   6   4  -6   13.80    0.89
   6  -4  -6   12.46    0.89
  -6   4  -6   12.27    0.77
   6   4   6   13.28    0.74
   6  -4  -6   12.22    0.68
   7  -4   6    1.51    0.40
   7   4  -6    1.28    0.37
  -7   4   6    0.71    0.38
  -7  -4  -6    0.40    0.30
   7   4  -6    0.42    0.40
  -7   4  -6    0.61    0.34
   7  -4  -6    0.32    0.36
   7   4   6    0.97    0.33
   8   4  -6    8.44    0.84
  -8   4   6    7.96    0.79
   8   4  -6    7.94    0.71
   8  -4   6    9.67    0.81
  -8  -4  -6    8.85    0.81
  -8   4  -6    8.56    0.76
   8  -4  -6    9.16    0.93
   9   4  -6    1.69    0.44
   9  -4   6    1.63    0.52
  -9  -4  -6    2.71    0.59
  -9   4   6    2.61    0.57
   9   4  -6    1.82    0.53
  -9   4  -6    1.20    0.50
   9  -4  -6    2.08    0.57
   0   5  -6    9.46    0.51
   0  -5   6    8.11    0.44
   0   5   6    8.29    0.42
   0  -5  -6    8.37    0.42
   0   5   6    9.33    0.49
   0  -5   6    8.43    0.50
   0   5   6    8.63    0.51
   0  -5   6    8.24    0.49
   0   5   6    8.42    0.41
  -1   5   6   51.82    1.68
   1  -5   6   50.31    1.66
   1  -5   6   52.30    1.63
   1  -5   6   51.90    1.72
   1   5  -6   50.10    1.79
  -1   5   6   50.05    1.65
   1   5  -6   51.21    1.70
  -1  -5  -6   50.96    1.58
   1  -5  -6   52.27    1.58
   1   5   6   53.81    1.66
  -1  -5   6   53.03    1.78
  -1  -5   6   53.44    1.62
   1   5   6   51.80    1.77
  -1   5  -6   50.47    1.65
  -1  -5   6   53.00    1.71
   2  -5   6    3.18    0.32
   2   5  -6    3.49    0.43
   2  -5   6    2.82    0.34
  -2   5   6    2.97    0.34
  -2   5   6    3.09    0.33
   2  -5   6    2.84    0.27
   2   5  -6    2.37    0.30
  -2  -5  -6    3.36    0.30
   2   5   6    2.71    0.26
   2  -5  -6    2.74    0.32
  -2   5  -6    3.23    0.27
  -2  -5   6    2.56    0.34
   2  -5  -6    3.13    0.27
  -2  -5   6    2.52    0.26
  -2  -5   6    2.90    0.29
   2   5   6    2.96    0.33
   3  -5   6   23.43    0.84
  -3  -5  -6   23.72    0.96
  -3   5   6   24.13    1.04
   3   5  -6   26.71    1.05
  -3   5   6   24.36    1.04
   3   5  -6   25.27    1.12
   3  -5   6   24.09    0.99
  -3   5  -6   26.81    1.08
  -3  -5   6   26.18    0.94
   3  -5  -6   24.21    1.02
   3   5   6   23.23    1.06
   3   5   6   25.03    0.91
  -3  -5   6   25.94    1.11
  -3  -5   6   27.28    0.98
  -4   5   6    2.23    0.34
   4  -5   6    2.43    0.17
  -4  -5  -6    1.98    0.33
   4   5  -6    2.38    0.34
   4  -5   6    2.02    0.31
  -4   5   6    1.88    0.38
   4  -5   6    2.10    0.17
   4   5  -6    2.94    0.42
   4  -5  -6    2.06    0.31
   4   5   6    1.81    0.34
  -4  -5   6    2.27    0.29
  -4   5  -6    1.51    0.29
  -4  -5   6    1.52    0.34
  -4  -5   6    1.99    0.28
  -5   5   6    1.65    0.35
   5   5  -6    1.37    0.38
   5   5  -6    1.07    0.29
  -5  -5  -6    1.48    0.31
  -5   5   6    1.65    0.34
   5  -5   6    0.64    0.30
  -5  -5   6    1.82    0.28
   5   5   6    2.14    0.36
  -5  -5   6    1.91    0.40
  -5   5  -6    1.69    0.36
   5  -5  -6    2.16    0.35
   6   5  -6   11.58    0.84
  -6   5   6    9.90    0.75
  -6   5   6   10.42    0.83
   6   5  -6   10.71    0.72
   6  -5   6   10.39    0.74
  -6  -5  -6   10.24    0.70
  -6   5  -6   10.26    0.75
   6  -5  -6   11.96    0.85
   6   5   6   11.34    0.74
   7   5  -6    0.23    0.32
   7  -5   6    0.31    0.33
   7   5  -6   -0.03    0.33
  -7  -5  -6    0.41    0.36
  -7   5   6    0.17    0.37
  -7   5  -6    0.12    0.31
   7  -5  -6   -0.61    0.36
   7   5   6    0.06    0.33
   8   5  -6   14.08    1.03
  -8   5   6   12.80    0.99
   8  -5   6   13.20    0.91
  -8  -5  -6   14.05    0.95
   8   5  -6   13.88    0.91
  -8   5  -6   13.65    0.97
   8   5   6   15.66    0.94
   8  -5  -6   12.72    1.05
  -9   5   6    1.57    0.55
   9  -5   6    0.81    0.48
   9   5  -6    3.19    0.61
   9   5  -6    2.50    0.60
  -9  -5  -6    2.33    0.57
   9  -5  -6    1.75    0.60
  -9   5  -6    1.83    0.55
   0   6   6   12.58    0.57
   0  -6  -6   12.88    0.56
   0  -6   6   11.80    0.63
   0   6  -6   11.32    0.60
   0  -6   6   11.80    0.64
   0  -6   6   12.32    0.59
   0   6   6   13.87    0.70
   0   6   6   13.15    0.61
   1  -6   6   23.80    0.97
   1   6  -6   23.89    0.96
   1  -6   6   21.85    0.90
  -1   6   6   22.32    0.95
   1  -6   6   21.14    0.92
  -1   6   6   22.98    0.91
  -1  -6  -6   23.61    0.88
  -1   6   6   23.07    0.93
  -1   6  -6   23.75    0.87
   1  -6  -6   22.12    0.82
  -1  -6   6   20.26    0.95
  -1  -6   6   21.40    0.90
   1   6   6   22.69    0.73
   1   6   6   22.14    0.73
   1   6   6   21.89    0.84
  -1  -6   6   22.43    0.86
   1   6   6   22.13    0.97
  -2   6   6   32.83    1.26
  -2   6   6   33.73    1.27
   2   6  -6   34.13    1.28
   2  -6   6   32.40    1.22
  -2  -6  -6   32.81    1.18
   2  -6   6   33.72    1.20
   2   6  -6   33.13    1.37
  -2   6  -6   35.67    1.31
  -2  -6   6   34.78    1.36
   2   6   6   34.60    1.16
  -2  -6   6   34.69    1.20
   2   6   6   32.61    1.32
   2  -6  -6   32.61    1.29
   2  -6  -6   37.09    1.19
  -2  -6   6   35.19    1.23
  -3  -6  -6   13.58    0.67
  -3   6   6   12.90    0.72
   3   6  -6   12.24    0.77
   3  -6   6   13.22    0.60
   3   6  -6   13.14    0.74
   3  -6   6   11.59    0.67
  -3   6   6   10.86    0.69
   3   6   6   14.00    0.76
   3  -6  -6   14.29    0.72
  -3  -6   6   12.88    0.64
  -3  -6   6   12.72    0.76
  -3  -6   6   12.76    0.63
  -3   6  -6   13.68    0.74
   4   6  -6   15.13    0.91
   4  -6   6   17.64    0.67
  -4  -6  -6   16.98    0.83
   4  -6   6   16.12    0.83
  -4   6   6   16.43    0.88
  -4   6   6   17.14    0.92
   4   6  -6   16.43    0.87
  -4  -6   6   17.86    0.96
  -4   6  -6   16.91    0.89
   4  -6  -6   18.68    0.84
  -4  -6   6   17.63    0.78
   4   6   6   16.01    0.89
   5   6  -6   20.10    1.08
   5  -6   6   19.08    0.63
  -5  -6  -6   18.32    0.93
   5  -6   6   18.27    0.94
  -5   6   6   19.20    1.02
  -5   6   6   19.66    1.01
   5   6  -6   18.59    0.97
   5   6   6   18.64    0.96
  -5   6  -6   18.60    0.97
  -5  -6   6   19.94    0.88
  -6   6   6   13.87    0.87
   6   6  -6   13.39    0.91
   6   6  -6   11.77    0.81
   6  -6   6   12.94    0.84
  -6   6   6   13.78    0.92
  -6  -6  -6   14.12    0.84
  -6   6  -6   15.30    0.92
   6   6   6   16.09    0.91
  -6  -6   6   15.29    0.80
   7  -6   6    2.47    0.49
   7   6  -6    2.56    0.51
  -7   6   6    2.54    0.53
  -7  -6  -6    3.44    0.56
   7   6  -6    2.92    0.55
   7   6   6    2.30    0.49
   7  -6  -6    3.10    0.56
  -7   6  -6    1.75    0.45
   8   6  -6   11.90    0.91
  -8  -6  -6   10.69    0.87
   8  -6   6   10.27    0.89
  -8   6   6   11.47    0.94
   8   6  -6   10.12    0.94
   8  -6  -6    9.67    0.99
   8   6   6   11.20    0.82
  -8   6  -6    9.68    0.86
   0  -7   6    5.73    0.44
   0  -7  -6    5.76    0.41
   0   7   6    6.35    0.42
   0  -7   6    5.01    0.47
   0  -7   6    5.68    0.42
   0   7   6    5.84    0.47
   0   7  -6    5.96    0.45
   0   7   6    4.89    0.38
  -1   7   6   85.74    2.74
  -1   7   6   88.26    2.68
   1   7  -6   84.73    2.71
   1  -7   6   85.83    2.75
   1  -7   6   87.32    2.67
  -1   7   6   84.05    2.69
  -1  -7  -6   91.86    2.64
  -1   7  -6   88.91    2.68
  -1  -7   6   87.62    2.61
  -1  -7   6   85.04    2.63
   1  -7  -6   85.25    2.56
   1   7   6   85.39    2.75
  -1   7  -6   89.05    2.61
   1   7   6   84.82    2.56
  -1  -7   6   82.80    2.77
   1   7   6   84.99    2.50
   2   7  -6    1.06    0.30
   2  -7   6    1.30    0.29
   2  -7   6    1.55    0.27
  -2   7   6    1.73    0.32
  -2   7   6    2.11    0.32
  -2  -7  -6    1.82    0.29
   2   7   6    1.56    0.33
  -2  -7   6    2.14    0.28
   2  -7  -6    1.81    0.31
  -2  -7   6    1.39    0.25
  -2   7  -6    2.09    0.30
   2  -7  -6    1.80    0.26
  -2  -7   6    1.93    0.35
   3   7  -6   27.58    1.19
  -3   7   6   29.52    1.22
  -3  -7  -6   27.97    1.11
   3  -7   6   27.67    1.07
   3  -7   6   26.73    1.13
  -3   7   6   24.53    1.12
   3   7   6   27.16    1.22
   3  -7  -6   27.97    1.16
  -3  -7   6   28.67    1.27
  -3   7  -6   30.59    1.20
  -3  -7   6   26.94    1.08
  -4   7   6    1.25    0.34
  -4  -7  -6    1.43    0.33
  -4   7   6    0.91    0.33
   4   7  -6    0.76    0.31
   4  -7   6    0.85    0.30
   4   7  -6    0.90    0.35
   4  -7   6    0.70    0.24
  -4  -7   6    0.96    0.28
   4   7   6    1.24    0.33
  -4  -7   6    1.56    0.37
   4  -7  -6    1.65    0.30
  -4   7  -6    0.93    0.31
  -5   7   6    6.44    0.69
   5   7  -6    6.60    0.64
   5   7  -6    5.79    0.65
  -5   7   6    8.04    0.66
  -5  -7  -6    7.10    0.59
   5  -7   6    6.74    0.42
   5  -7   6    7.38    0.63
  -5  -7   6    7.33    0.56
  -5   7  -6    6.92    0.61
   5   7   6    5.89    0.59
   6   7  -6    7.66    0.78
  -6   7   6    8.70    0.80
   6   7  -6    7.68    0.69
   6  -7   6    7.77    0.67
  -6   7   6    7.87    0.71
  -6  -7  -6    8.22    0.70
   6   7   6    8.93    0.71
  -6  -7   6    7.64    0.61
  -6   7  -6    8.12    0.70
  -7  -7  -6    1.07    0.41
   7   7  -6    0.99    0.47
   7  -7   6    0.96    0.40
   7   7  -6    0.71    0.40
  -7   7   6    1.09    0.47
  -7   7  -6    1.65    0.49
   7   7   6    0.42    0.38
   8   7  -6   13.33    1.07
   8   7  -6   12.24    1.01
  -8  -7  -6   12.90    0.98
   8  -7   6   11.07    0.96
   8   7   6   12.17    0.92
  -8   7  -6   12.82    1.02
   8  -7  -6   12.09    1.09
   0   8   6   33.39    1.24
   0  -8   6   32.14    1.27
   0  -8   6   35.14    1.40
   0   8   6   34.62    1.23
   0   8  -6   34.35    1.28
   0  -8  -6   35.67    1.25
   0   8  -6   33.86    1.26
   0   8   6   34.45    1.37
   1   8  -6   12.85    0.72
  -1  -8  -6   12.49    0.68
  -1   8   6   12.73    0.69
  -1   8   6   13.37    0.68
  -1   8   6   14.00    0.76
   1  -8   6   12.04    0.74
   1  -8   6   13.72    0.73
  -1   8  -6   12.24    0.67
   1  -8  -6   12.82    0.67
   1   8   6   12.44    0.56
  -1  -8   6   12.85    0.67
   1   8   6   11.37    0.73
  -1  -8   6   11.36    0.73
  -1  -8   6   12.82    0.67
  -2   8   6    9.34    0.62
   2  -8   6    9.51    0.61
  -2  -8  -6    9.59    0.61
   2  -8   6    9.00    0.61
   2   8  -6    8.79    0.65
  -2   8   6   10.10    0.64
   2   8   6   11.31    0.71
  -2  -8   6   10.40    0.61
  -2   8  -6    9.79    0.62
   2  -8  -6   10.27    0.58
  -2  -8   6    9.21    0.72
  -3   8   6    1.24    0.33
   3   8  -6    1.78    0.35
   3  -8   6    1.68    0.32
  -3   8   6    1.40    0.30
  -3  -8  -6    2.10    0.35
   3  -8   6    1.46    0.34
   3   8  -6    0.79    0.37
  -3   8  -6    1.72    0.34
  -3  -8   6    1.33    0.25
   3   8   6    1.13    0.34
   3  -8  -6    1.69    0.33
  -3  -8   6    1.82    0.39
   4  -8   6   12.00    0.78
   4  -8   6   12.12    0.66
  -4   8   6   11.94    0.80
   4   8  -6   14.25    0.91
  -4  -8  -6   12.13    0.73
  -4   8   6   11.87    0.80
   4   8  -6   12.81    0.84
  -4   8  -6    9.99    0.72
  -4  -8   6   12.96    0.72
   4   8   6   11.32    0.80
   5   8  -6    6.55    0.65
   5   8  -6    5.85    0.71
   5  -8   6    5.62    0.45
  -5   8   6    5.66    0.62
  -5  -8  -6    6.52    0.59
  -5   8   6    5.77    0.68
   5  -8   6    6.72    0.62
   5   8   6    6.02    0.63
  -5  -8   6    6.74    0.56
  -5   8  -6    6.28    0.61
   6   8  -6   11.16    0.87
   6   8  -6   10.05    0.87
   6  -8   6   12.26    0.56
  -6  -8  -6   11.32    0.81
  -6   8   6   10.00    0.83
   6  -8   6   11.18    0.83
   6   8   6   11.42    0.85
  -6  -8   6   12.47    0.78
  -6   8  -6   10.81    0.87
  -7  -8  -6    2.72    0.56
   7   8  -6    3.20    0.62
  -7   8   6    2.48    0.59
   7  -8   6    1.58    0.47
   7   8  -6    2.92    0.60
   7   8   6    2.21    0.56
  -7   8  -6    2.65    0.55
   8  -8   6   16.86    1.11
   8   8  -6   16.54    1.15
   8   8  -6   18.13    1.20
  -8  -8  -6   14.35    1.09
  -8   8   6   14.70    1.11
  -8   8  -6   14.44    1.15
   8   8   6   16.97    1.14
   0   9   6    0.25    0.27
   0   9   6    0.44    0.22
   0  -9   6    0.21    0.22
   0   9  -6    0.07    0.21
   0  -9  -6   -0.09    0.23
   0   9  -6   -0.19    0.22
   0  -9   6    0.06    0.27
   1  -9   6   18.09    0.92
  -1   9   6   19.61    0.93
  -1   9   6   18.53    0.86
  -1  -9  -6   18.16    0.87
   1  -9   6   18.65    0.97
  -1   9   6   17.33    0.89
   1   9  -6   18.78    0.91
   1  -9  -6   18.64    0.88
  -1  -9   6   17.99    0.98
  -1  -9   6   17.91    0.88
   1   9   6   17.68    0.77
  -1   9  -6   18.50    0.86
   1   9   6   19.48    0.99
   2  -9   6    6.25    0.57
  -2   9   6    5.25    0.50
   2   9  -6    5.57    0.55
   2  -9   6    5.22    0.51
  -2  -9  -6    6.83    0.54
  -2   9   6    5.67    0.50
  -2   9   6    5.52    0.55
  -2   9  -6    6.30    0.54
  -2  -9   6    6.87    0.64
   2   9   6    5.91    0.32
   2   9   6    7.32    0.63
  -2  -9   6    5.20    0.49
   2  -9  -6    5.34    0.47
  -3  -9  -6   15.02    0.82
   3  -9   6   14.10    0.81
  -3   9   6   16.91    0.88
  -3   9   6   15.00    0.89
   3  -9   6   14.86    0.85
   3   9  -6   12.70    0.86
  -3  -9   6   15.37    0.82
   3   9   6   14.91    0.92
  -3   9  -6   14.49    0.86
   3  -9  -6   15.71    0.83
  -3  -9   6   15.56    0.97
   4  -9   6    7.85    0.61
   4   9  -6    8.05    0.70
  -4   9   6    8.58    0.69
  -4  -9  -6    7.12    0.62
  -4   9   6    8.01    0.75
   4   9  -6    8.02    0.77
   4  -9   6    7.75    0.66
  -4  -9   6    9.31    0.66
   4   9   6    7.71    0.70
  -4   9  -6    7.85    0.69
   5   9  -6    0.93    0.41
  -5   9   6    0.80    0.46
   5  -9   6    1.47    0.33
  -5  -9  -6    1.80    0.43
   5   9  -6    1.50    0.47
  -5   9   6    1.68    0.46
   5  -9   6    0.93    0.38
  -5  -9   6    1.34    0.38
   5   9   6    1.69    0.46
  -5   9  -6    1.17    0.41
  -6  -9  -6    8.90    0.75
  -6   9   6    8.38    0.82
   6  -9   6    8.88    0.55
   6   9  -6    7.58    0.83
   6   9  -6    8.31    0.82
   6  -9   6    7.85    0.75
  -6   9  -6    8.86    0.84
  -6  -9   6    8.55    0.70
   6   9   6    7.96    0.81
   7  -9   6    2.22    0.52
   7   9  -6    2.23    0.62
  -7  -9  -6    3.08    0.55
   7   9  -6    1.44    0.55
  -7   9   6    1.85    0.52
   7   9   6    1.52    0.57
  -7   9  -6    2.29    0.62
   0  10   6    1.52    0.33
   0 -10   6    2.31    0.38
   0  10   6    1.69    0.39
   0 -10  -6    1.91    0.37
   0 -10   6    1.45    0.36
   1  10  -6   21.95    1.04
   1 -10   6   18.13    1.01
  -1  10   6   22.44    1.05
  -1 -10  -6   20.57    0.99
   1 -10   6   19.69    1.02
  -1  10   6   18.54    0.96
   1 -10  -6   21.61    0.99
  -1  10  -6   21.66    0.99
   1  10   6   20.58    0.89
  -1 -10   6   20.03    1.00
   1  10   6   21.28    1.09
  -1 -10   6   22.02    1.15
   2 -10   6    5.73    0.54
  -2  10   6    6.19    0.61
   2  10  -6    5.19    0.60
   2 -10   6    6.35    0.61
  -2 -10  -6    5.86    0.54
  -2  10   6    5.55    0.53
  -2  10   6    5.21    0.52
  -2  10  -6    5.58    0.55
   2  10   6    5.92    0.37
  -2 -10   6    6.86    0.69
   2  10   6    6.17    0.65
  -2 -10   6    5.45    0.51
   3 -10   6    3.90    0.50
  -3  10   6    4.27    0.52
   3  10  -6    3.87    0.55
  -3 -10  -6    4.81    0.51
  -3  10   6    5.30    0.61
   3 -10   6    3.44    0.49
  -3  10  -6    5.13    0.52
   3  10   6    4.89    0.60
  -3 -10   6    4.77    0.51
  -4 -10  -6    7.88    0.70
   4  10  -6    8.52    0.77
  -4  10   6    9.30    0.83
   4 -10   6    9.75    0.74
   4  10  -6    6.81    0.78
   4 -10   6    8.45    0.68
  -4  10   6    9.15    0.78
  -4 -10   6   10.15    0.74
  -4  10  -6   10.54    0.80
   4  10   6    8.22    0.77
   5  10  -6   -0.42    0.40
   5 -10   6    0.06    0.29
   5 -10   6    0.50    0.38
  -5  10   6   -0.05    0.46
  -5  10   6    0.03    0.42
  -5 -10  -6   -0.07    0.33
   5  10  -6   -0.05    0.40
  -5  10  -6   -0.13    0.41
  -5 -10   6    0.15    0.29
   5  10   6    0.36    0.45
   6 -10   6    2.73    0.42
  -6  10   6    2.07    0.53
  -6 -10  -6    2.48    0.54
   6 -10   6    2.32    0.56
   6  10  -6    2.18    0.65
   6  10  -6    2.38    0.63
   6  10   6    3.41    0.62
  -6  10  -6    3.28    0.59
   0  11   6   24.09    1.19
   0 -11  -6   23.02    1.11
   0  11   6   22.23    1.06
   0 -11   6   23.10    1.24
   0 -11   6   23.69    1.15
  -1  11   6    4.76    0.56
  -1 -11  -6    5.60    0.56
  -1  11   6    5.13    0.59
   1 -11   6    4.45    0.54
   1 -11   6    3.61    0.56
   1  11   6    3.91    0.43
   1  11   6    4.35    0.56
   1 -11  -6    5.37    0.55
  -1 -11   6    4.00    0.51
  -1 -11   6    5.18    0.65
  -2  11   6    7.89    0.72
  -2 -11  -6    9.61    0.70
   2 -11   6    7.39    0.70
   2 -11   6    8.71    0.75
   2  11  -6    8.84    0.75
  -2 -11   6    8.89    0.69
   2  11   6    8.74    0.75
  -2 -11   6   10.04    0.87
  -2  11  -6    8.45    0.67
   2  11   6    8.17    0.48
  -3 -11  -6   12.90    0.83
   3  11  -6   11.91    0.87
  -3  11   6   12.69    0.89
  -3  11   6   13.51    0.85
   3 -11   6   13.19    0.87
   3 -11   6   12.46    0.86
  -3 -11   6   14.20    0.91
  -3  11  -6   14.27    0.91
   3  11   6   14.27    0.98
  -4  11   6    2.53    0.59
  -4 -11  -6    3.70    0.53
   4 -11   6    1.99    0.45
   4  11  -6    4.00    0.63
   4 -11   6    3.41    0.55
   4  11  -6    2.10    0.61
  -4  11   6    2.88    0.55
  -4 -11   6    3.26    0.49
   4  11   6    3.84    0.61
  -4  11  -6    2.94    0.52
  -5 -11  -6    4.03    0.63
   5 -11   6    4.67    0.68
   5  11  -6    4.39    0.70
   5 -11   6    3.72    0.54
  -5  11   6    3.31    0.72
   5  11  -6    4.82    0.69
  -5  11   6    3.00    0.56
   5  11   6    3.86    0.67
  -5 -11   6    5.29    0.58
  -5  11  -6    3.73    0.63
   0 -12  -6    0.16    0.35
   0  12   6    1.09    0.48
   0  12   6    0.67    0.35
   0 -12   6    0.87    0.44
   0 -12   6    1.01    0.40
   1 -12   6    5.04    0.68
  -1  12   6    3.88    0.55
   1 -12   6    4.15    0.60
  -1 -12  -6    5.99    0.63
  -1  12   6    3.78    0.58
   1  12   6    4.66    0.49
   1  12   6    6.14    0.70
  -1 -12   6    4.68    0.56
  -1 -12   6    4.93    0.72
   2 -12   6    3.13    0.60
  -2  12   6    3.40    0.58
   2  12  -6    3.28    0.54
  -2 -12  -6    3.10    0.54
   2 -12   6    3.33    0.53
   2  12   6    3.97    0.62
  -2 -12   6    3.64    0.54
   2  12   6    3.54    0.39
   3 -12   6    8.47    0.81
  -3  12   6    8.92    0.86
  -3 -12  -6    7.35    0.74
   3  12  -6    9.36    0.86
   3 -12   6    7.75    0.78
  -3 -12   6    8.03    0.75
   3  12   6    8.58    0.88
  -3  12  -6    7.23    0.70
   4 -12   6    6.18    0.70
  -4 -12  -6    6.10    0.70
   4  12  -6    5.27    0.76
  -4  12   6    5.73    0.75
   4 -12   6    5.33    0.70
  -4  12  -6    5.13    0.67
  -4 -12   6    6.77    0.67
   4  12   6    6.21    0.80
   0 -13   6    3.50    0.56
   0  13   6    3.19    0.64
   0 -13  -6    2.48    0.53
   0 -13   6    3.28    0.64
   0  13   6    1.61    0.46
  -1  13   6    3.20    0.53
  -1 -13  -6    3.40    0.61
   1 -13   6    2.84    0.58
   1 -13   6    2.49    0.62
   1  13   6    3.24    0.46
   1  13   6    2.89    0.60
  -1 -13   6    2.90    0.65
  -1 -13   6    2.56    0.54
   2 -13   6    5.87    0.71
  -2 -13  -6    7.19    0.74
  -2  13   6    6.96    0.81
   2 -13   6    6.92    0.81
   2  13   6    6.35    0.51
   2  13   6    6.87    0.85
  -2 -13   6    5.80    0.68
   3  13  -6    2.20    0.62
  -3 -13  -6    2.17    0.55
   3 -13   6    1.51    0.49
   3 -13   6    2.48    0.60
  -3  13   6    1.89    0.60
  -3 -13   6    2.32    0.56
   3  13   6    2.76    0.60
   0   0   7   -0.16    0.08
   0   0   7    0.00    0.08
   0   0   7   -0.03    0.07
   0   0   7   -0.02    0.13
   0   0  -7    0.01    0.14
   1   0   7  193.33    5.12
  -1   0   7  184.25    5.32
   1   0  -7  186.75    5.42
  -1   0  -7  188.00    5.40
  -1   0   7  195.65    5.34
   1   0   7  187.00    5.36
  -1   0   7  192.62    5.37
   2   0   7   -0.13    0.12
  -2   0   7   -0.11    0.13
   2   0  -7   -0.03    0.17
  -2   0   7   -0.06    0.14
   2   0   7   -0.10    0.14
  -2   0  -7   -0.03    0.13
   3   0   7   52.00    1.77
   3   0  -7   51.90    1.79
   3   0  -7   52.98    1.86
   3   0   7   56.34    1.69
  -3   0   7   52.10    1.77
  -3   0  -7   52.92    1.73
  -3   0   7   52.42    1.80
   4   0  -7   32.60    1.36
   4   0   7   33.31    1.22
   4   0   7   32.81    1.27
  -4   0   7   34.44    1.29
   4   0  -7   33.61    1.29
  -4   0   7   33.84    1.34
   5   0   7    0.06    0.19
  -5   0   7    0.33    0.25
   5   0  -7    0.06    0.19
   5   0  -7    0.32    0.32
  -5   0  -7    0.12    0.20
   5   0   7   -0.26    0.19
  -5   0   7    0.34    0.22
  -6   0   7    9.61    0.66
   6   0   7    9.22    0.67
  -6   0  -7    9.40    0.61
  -6   0   7    9.61    0.70
   6   0  -7   10.68    0.82
   6   0  -7    9.68    0.65
   7   0   7    0.52    0.35
   7   0  -7    0.47    0.29
   7   0  -7    0.27    0.38
  -7   0   7    0.66    0.34
  -7   0  -7    0.64    0.31
  -8   0   7    0.34    0.37
   8   0   7    0.89    0.37
   8   0  -7    0.78    0.38
   8   0  -7    0.44    0.48
  -9   0   7    0.17    0.38
   9   0   7    0.12    0.38
   9   0  -7   -0.81    0.42
   0  -1   7   -0.10    0.08
   0  -1   7    0.13    0.09
   0  -1   7    0.04    0.11
   0  -1  -7    0.09    0.06
   0   1   7   -0.01    0.07
   0  -1   7   -0.02    0.14
   0   1   7   -0.02    0.07
   0   1  -7    0.02    0.15
   0  -1  -7    0.23    0.15
   0   1   7    0.11    0.16
  -1   1   7    2.46    0.25
  -1   1   7    2.76    0.25
   1  -1   7    2.50    0.29
  -1   1   7    2.62    0.29
   1   1  -7    2.75    0.30
   1  -1   7    3.13    0.22
  -1  -1  -7    2.72    0.30
   1  -1  -7    2.65    0.30
  -1  -1   7    2.45    0.28
  -1  -1   7    2.83    0.28
  -1   1  -7    2.61    0.27
   1   1   7    2.99    0.29
  -1  -1   7    2.95    0.26
   2  -1   7   63.13    2.06
  -2   1   7   62.10    2.03
   2  -1   7   69.10    1.93
   2   1  -7   60.70    2.06
  -2  -1  -7   63.66    2.05
  -2   1   7   66.40    2.07
   2   1   7   66.04    2.08
   2   1   7   66.85    1.95
  -2  -1   7   64.52    2.08
   2  -1  -7   65.71    2.13
  -2   1  -7   68.10    2.07
  -2  -1   7   64.28    2.09
   3  -1   7    6.93    0.42
  -3   1   7    6.20    0.47
   3   1  -7    6.35    0.47
   3   1  -7    6.97    0.56
  -3   1   7    5.81    0.47
   3  -1   7    6.93    0.47
   3   1   7    6.16    0.46
  -3  -1   7    6.06    0.43
   3  -1  -7    6.26    0.48
   3   1   7    6.44    0.41
  -3  -1   7    5.90    0.48
   3   1   7    6.34    0.43
  -3   1  -7    6.19    0.42
  -4   1   7  129.31    3.97
   4   1  -7  134.84    3.94
   4  -1   7  133.22    3.82
  -4   1   7  125.39    3.89
   4  -1   7  131.65    3.91
   4   1   7  129.78    3.88
   4   1   7  133.38    3.95
   4   1   7  133.70    3.93
  -4   1  -7  137.28    3.89
  -4  -1   7  131.01    4.06
   4  -1  -7  140.54    4.16
   4  -1  -7  131.32    4.01
  -4  -1   7  138.29    3.98
  -5   1   7   42.76    1.59
   5   1  -7   44.85    1.73
   5   1  -7   42.12    1.58
  -5   1   7   42.12    1.65
   5  -1   7   41.94    1.54
  -5  -1  -7   43.82    1.51
  -5   1  -7   43.29    1.58
   5  -1  -7   42.96    1.59
  -5  -1   7   42.44    1.68
  -5  -1   7   43.45    1.59
   5   1   7   47.25    1.61
   5  -1  -7   45.24    1.75
   5   1   7   44.62    1.53
  -6  -1  -7   68.60    2.28
   6  -1   7   71.60    2.38
   6   1  -7   68.95    2.36
  -6   1   7   71.62    2.50
  -6   1   7   69.26    2.39
   6   1  -7   74.61    2.59
  -6   1  -7   68.65    2.30
   6  -1  -7   69.06    2.31
  -6  -1   7   68.81    2.31
  -6  -1   7   70.66    2.47
   6   1   7   66.58    2.31
   6  -1  -7   71.91    2.53
   7   1  -7    3.08    0.42
   7  -1   7    3.38    0.49
   7   1  -7    4.41    0.64
  -7   1   7    2.39    0.45
   7   1   7    3.44    0.51
  -7  -1   7    4.05    0.49
   7  -1  -7    3.75    0.55
   7  -1  -7    3.51    0.46
  -7   1  -7    3.84    0.46
  -8   1   7   15.22    0.97
   8   1  -7   17.41    1.13
   8  -1   7   14.93    0.98
   8   1  -7   16.55    0.95
  -8  -1   7   17.93    0.97
   8   1   7   15.12    0.99
   8  -1  -7   17.77    1.12
  -8   1  -7   14.95    0.90
   9   1  -7    1.84    0.63
  -9   1   7    1.72    0.51
   9  -1   7    1.81    0.53
   9  -1  -7    1.91    0.62
   9   1   7    0.92    0.48
   0  -2  -7   11.03    0.60
   0   2   7   11.67    0.58
   0   2  -7   11.60    0.59
   0  -2   7   10.34    0.48
   0  -2   7   11.86    0.44
   0  -2   7   12.17    0.51
   0  -2  -7   11.55    0.39
   0   2   7   11.36    0.40
   0  -2   7   12.65    0.60
   0   2   7   11.20    0.40
  -1  -2  -7   16.63    0.59
   1  -2   7   15.74    0.51
   1  -2   7   14.97    0.72
  -1  -2  -7   17.57    0.78
   1   2  -7   15.68    0.74
  -1   2   7   16.20    0.66
   1  -2   7   16.72    0.62
   1  -2   7   16.76    0.51
  -1   2   7   16.35    0.65
  -1   2   7   15.89    0.72
  -1  -2   7   16.11    0.52
  -1  -2   7   14.70    0.66
  -1   2  -7   15.21    0.69
  -1  -2   7   15.87    0.70
   1   2   7   16.50    0.70
   1  -2  -7   16.44    0.76
   2   2  -7   14.50    0.70
   2  -2   7   14.18    0.61
   2  -2   7   13.48    0.69
  -2   2   7   13.98    0.65
  -2   2   7   14.50    0.70
  -2  -2  -7   14.05    0.58
  -2  -2   7   12.81    0.65
   2   2   7   13.25    0.63
  -2   2  -7   14.58    0.63
   2   2   7   11.73    0.62
  -2  -2   7   14.55    0.68
   2  -2  -7   14.84    0.70
   3   2  -7   25.42    1.09
   3  -2   7   26.93    1.12
  -3   2   7   28.00    1.10
  -3   2   7   27.48    1.10
   3  -2   7   28.15    1.03
   3   2  -7   29.35    1.20
   3  -2  -7   26.43    1.09
   3   2   7   25.80    1.04
   3   2   7   27.92    1.05
  -3   2  -7   26.52    0.98
  -3  -2   7   28.17    1.06
  -3  -2   7   27.77    1.12
   3   2   7   28.08    0.99
   4  -2   7    4.58    0.41
   4  -2   7    4.09    0.43
  -4   2   7    4.82    0.42
   4   2  -7    5.54    0.53
   4   2  -7    4.40    0.42
  -4   2   7    4.68    0.47
  -4  -2   7    4.93    0.47
   4   2   7    4.37    0.38
  -4  -2   7    4.88    0.42
   4  -2  -7    5.03    0.43
   4   2   7    3.89    0.38
   4   2   7    5.26    0.42
  -5   2   7   12.34    0.73
  -5   2   7   12.39    0.77
   5   2  -7   11.46    0.79
   5   2  -7   11.94    0.70
   5  -2   7   14.25    0.74
   5  -2  -7   14.04    0.73
  -5  -2   7   11.07    0.73
   5   2   7   13.20    0.70
  -5  -2   7   11.98    0.68
  -5   2  -7   11.92    0.69
   5   2   7   12.48    0.67
   5  -2  -7   11.98    0.81
   6  -2   7   22.49    1.06
   6   2  -7   22.99    1.20
   6   2  -7   22.35    1.06
  -6   2   7   22.70    1.09
  -6   2   7   23.49    1.15
  -6  -2   7   23.95    1.17
   6   2   7   23.01    1.08
   6  -2  -7   25.31    1.24
   6   2   7   24.01    1.02
  -6   2  -7   22.42    1.06
   6  -2  -7   23.28    1.04
  -6  -2   7   23.90    1.05
   7  -2   7    1.02    0.34
   7   2  -7    0.88    0.43
   7   2  -7    1.10    0.36
  -7   2   7    0.73    0.33
  -7  -2   7    0.97    0.34
   7  -2  -7    0.61    0.44
   7   2   7    0.63    0.31
   7  -2  -7    0.69    0.30
  -7   2  -7    0.67    0.32
   8   2  -7    8.62    0.85
  -8   2   7    7.52    0.74
   8  -2   7    8.41    0.78
   8   2  -7    8.60    0.76
   8   2   7    8.03    0.74
   8  -2  -7   10.27    0.92
  -8   2  -7    9.97    0.78
   9   2  -7    0.09    0.51
   9  -2   7    1.35    0.45
  -9   2   7    1.01    0.48
   9   2  -7    0.92    0.40
   9   2   7    1.26    0.44
  -9   2  -7    1.22    0.45
   9  -2  -7   -0.18    0.50
   0  -3   7    6.88    0.45
   0  -3   7    6.57    0.39
   0  -3   7    6.31    0.37
   0   3   7    6.92    0.30
   0  -3   7    6.82    0.35
   0   3   7    6.36    0.42
   0   3   7    6.71    0.29
   0  -3  -7    5.65    0.46
   0  -3  -7    6.67    0.30
   0   3  -7    6.09    0.43
   1  -3   7   12.93    0.52
   1  -3   7   13.94    0.57
  -1   3   7   13.73    0.58
  -1   3   7   13.31    0.65
  -1   3   7   13.47    0.58
   1  -3   7   13.18    0.52
  -1  -3  -7   13.35    0.53
   1   3  -7   12.48    0.64
  -1   3  -7   13.18    0.62
  -1  -3   7   12.41    0.61
  -1  -3   7   13.81    0.51
   1   3   7   12.51    0.64
  -1  -3   7   13.18    0.64
   1  -3  -7   13.17    0.67
   1   3   7   12.62    0.61
  -2   3   7   19.41    0.86
   2  -3   7   20.18    0.80
   2   3  -7   20.34    0.89
  -2   3   7   20.73    0.85
   2  -3   7   19.77    0.89
  -2  -3  -7   22.22    0.79
   2   3   7   20.94    0.90
  -2  -3   7   21.08    0.86
   2  -3  -7   19.51    0.89
   2   3   7   20.70    0.84
  -2  -3   7   21.10    0.90
  -2   3  -7   22.10    0.84
  -2  -3   7   21.46    0.70
  -3  -3  -7   15.21    0.69
   3  -3   7   17.28    0.81
   3   3  -7   16.55    0.86
   3   3  -7   17.03    0.79
   3  -3   7   16.02    0.73
  -3   3   7   16.39    0.78
  -3   3   7   13.80    0.75
  -3  -3   7   16.85    0.77
   3   3   7   17.79    0.79
   3   3   7   17.14    0.74
  -3  -3   7   16.66    0.82
  -3   3  -7   16.62    0.69
   3  -3  -7   16.58    0.81
   4   3  -7   11.02    0.66
  -4   3   7   10.95    0.67
  -4   3   7   10.43    0.66
   4   3  -7   11.73    0.74
  -4  -3  -7   10.70    0.61
   4  -3   7   11.46    0.62
  -4  -3   7   11.20    0.61
   4  -3  -7   10.47    0.64
   4   3   7   10.50    0.63
  -4  -3   7   10.52    0.67
  -4   3  -7   11.03    0.63
   4   3   7   11.13    0.59
  -5   3   7    8.22    0.64
   5   3  -7    8.34    0.59
  -5   3   7    7.72    0.58
   5   3  -7    9.13    0.74
   5  -3   7    7.74    0.56
   5   3   7    7.93    0.57
   5  -3  -7    7.93    0.57
  -5   3  -7    8.77    0.61
  -5  -3   7    7.23    0.53
  -5  -3   7    8.10    0.67
   6  -3   7   14.47    0.82
  -6   3   7   14.05    0.85
  -6   3   7   13.06    0.85
   6   3  -7   14.74    0.82
   6   3  -7   14.96    0.96
  -6  -3   7   15.54    0.80
   6  -3  -7   16.18    0.83
   6   3   7   15.68    0.83
  -6   3  -7   15.94    0.87
  -7   3   7   14.10    0.90
   7   3  -7   12.96    1.01
   7  -3   7   12.78    0.85
   7   3  -7   13.11    0.87
   7  -3  -7   13.64    0.97
  -7   3  -7   13.42    0.87
   8   3  -7   10.62    0.97
  -8   3   7   12.62    0.94
   8  -3   7   12.55    0.91
   8   3  -7   12.24    0.84
   8  -3  -7   12.62    1.02
  -8   3  -7   10.17    0.83
   9   3  -7    1.69    0.59
   9  -3   7    0.06    0.50
  -9  -3  -7    0.95    0.47
   9   3  -7    0.70    0.47
  -9   3   7    1.36    0.49
  -9   3  -7    2.02    0.52
   9  -3  -7    0.69    0.60
   0   4  -7   49.78    1.65
   0  -4   7   49.44    1.62
   0   4   7   48.91    1.63
   0  -4   7   50.76    1.53
   0   4   7   48.74    1.48
   0  -4   7   47.94    1.67
   0   4   7   52.15    1.49
   0  -4  -7   49.25    1.47
   1   4  -7   17.84    0.80
   1  -4   7   17.95    0.83
   1  -4   7   18.82    0.73
  -1  -4  -7   18.48    0.69
  -1   4   7   18.29    0.81
  -1   4   7   17.89    0.73
   1  -4   7   18.97    0.72
  -1  -4   7   18.07    0.78
  -1  -4   7   17.55    0.78
   1   4   7   17.28    0.74
   1  -4  -7   17.13    0.81
  -1  -4   7   17.22    0.65
  -1   4  -7   17.83    0.75
   1   4   7   17.99    0.82
  -2   4   7   42.05    1.45
   2   4  -7   41.90    1.49
  -2   4   7   42.66    1.48
  -2  -4  -7   42.32    1.35
   2  -4   7   41.67    1.26
   2  -4   7   41.08    1.50
   2  -4   7   40.18    1.38
   2  -4   7   40.04    1.25
  -2  -4   7   43.33    1.29
  -2  -4   7   41.94    1.43
  -2   4  -7   40.76    1.36
   2  -4  -7   40.42    1.49
   2   4   7   40.99    1.39
  -2  -4   7   38.34    1.48
   2   4   7   41.78    1.50
   3  -4   7    2.67    0.36
   3   4  -7    2.78    0.36
  -3  -4  -7    3.49    0.34
  -3   4   7    2.65    0.35
  -3   4   7    2.93    0.37
   3  -4   7    3.27    0.35
   3  -4  -7    3.01    0.38
   3   4   7    3.00    0.34
   3   4   7    2.66    0.31
  -3  -4   7    3.03    0.25
  -3  -4   7    2.89    0.32
  -3  -4   7    3.22    0.38
   4   4  -7    6.46    0.54
   4   4  -7    7.54    0.64
  -4  -4  -7    6.77    0.51
  -4   4   7    7.38    0.56
  -4   4   7    6.66    0.57
   4  -4   7    7.40    0.52
   4   4   7    7.00    0.53
   4  -4  -7    6.63    0.51
  -4  -4   7    6.26    0.60
  -4  -4   7    8.18    0.52
   4   4   7    7.51    0.49
  -4   4  -7    7.40    0.55
  -5   4   7   20.92    1.00
   5   4  -7   19.96    1.08
   5  -4   7   19.01    0.93
  -5   4   7   18.38    0.99
   5   4  -7   19.64    0.96
  -5  -4  -7   18.96    0.93
  -5  -4   7   19.90    0.89
  -5   4  -7   21.32    1.00
  -5  -4   7   20.15    1.05
   5   4   7   19.12    0.94
   5  -4  -7   20.73    0.95
   6   4  -7    7.76    0.65
   6   4  -7    7.32    0.74
  -6   4   7    5.54    0.58
  -6  -4  -7    5.57    0.58
  -6   4   7    4.97    0.62
   6  -4   7    6.08    0.58
   6  -4  -7    5.50    0.51
  -6   4  -7    5.88    0.58
   6   4   7    5.69    0.53
  -7  -4  -7    4.37    0.54
  -7   4   7    3.45    0.55
   7   4  -7    3.50    0.49
   7  -4   7    4.11    0.53
   7   4  -7    3.52    0.64
   7   4   7    3.52    0.46
  -7   4  -7    4.73    0.55
   8  -4   7    3.04    0.51
  -8  -4  -7    3.14    0.59
   8   4  -7    2.64    0.50
   8   4  -7    3.68    0.69
  -8   4   7    3.28    0.60
   8  -4  -7    2.57    0.69
  -8   4  -7    3.71    0.55
   9   4  -7    6.26    0.80
   9   4  -7    4.97    0.70
  -9  -4  -7    5.19    0.78
   9  -4   7    5.39    0.71
  -9   4   7    7.03    0.84
   9  -4  -7    5.62    0.84
  -9   4  -7    4.93    0.75
   0  -5   7    2.85    0.28
   0   5   7    2.56    0.23
   0  -5   7    2.77    0.30
   0   5   7    2.56    0.31
   0   5   7    2.05    0.28
   0  -5   7    2.11    0.30
   0  -5  -7    2.96    0.25
   0   5   7    2.56    0.23
   0   5  -7    2.27    0.29
  -1   5   7   31.94    1.12
   1  -5   7   30.99    1.11
   1  -5   7   31.68    1.13
  -1   5   7   31.91    1.19
   1   5  -7   32.07    1.19
  -1  -5  -7   30.82    1.07
   1  -5   7   29.29    1.21
   1   5   7   32.20    1.14
  -1  -5   7   31.26    1.07
  -1   5  -7   31.97    1.14
  -1  -5   7   30.74    1.21
  -1  -5   7   30.81    1.18
   1  -5  -7   32.35    1.25
   1   5   7   31.40    1.24
  -2   5   7   12.30    0.65
   2  -5   7   13.41    0.65
  -2  -5  -7   12.81    0.61
   2   5  -7   11.56    0.68
  -2   5   7   11.24    0.64
   2  -5   7   12.33    0.55
   2  -5   7   13.54    0.73
   2   5   7   12.98    0.71
  -2  -5   7   14.05    0.67
  -2  -5   7   12.17    0.56
   2   5   7   13.49    0.63
  -2  -5   7   12.84    0.72
   2  -5  -7   11.91    0.68
  -2   5  -7   13.52    0.60
   3   5  -7   53.65    1.93
  -3  -5  -7   56.60    1.83
   3  -5   7   57.22    1.65
  -3   5   7   54.58    1.94
   3  -5   7   55.53    1.87
   3  -5   7   58.07    1.65
  -3   5   7   56.41    1.94
   3   5   7   57.05    1.82
   3   5   7   57.53    1.99
  -3   5  -7   59.98    1.98
  -3  -5   7   55.95    1.77
  -3  -5   7   57.01    1.88
   3  -5  -7   56.70    1.97
  -3  -5   7   58.14    2.03
  -4   5   7    8.30    0.65
  -4   5   7    7.98    0.60
   4   5  -7    7.85    0.60
  -4  -5  -7    8.25    0.56
   4  -5   7    8.32    0.59
   4   5  -7    7.99    0.68
  -4  -5   7    8.19    0.52
  -4  -5   7    8.47    0.68
   4   5   7    8.34    0.60
   4  -5  -7    8.43    0.58
  -4   5  -7    7.50    0.58
  -5   5   7   47.19    1.85
   5   5  -7   49.87    1.93
  -5   5   7   45.66    1.80
   5  -5   7   45.75    1.72
   5   5  -7   47.98    1.81
  -5  -5  -7   47.91    1.72
   5  -5  -7   53.12    1.84
  -5   5  -7   50.20    1.89
  -5  -5   7   52.35    1.99
   5   5   7   50.02    1.87
   6   5  -7   13.18    0.89
  -6  -5  -7   11.89    0.77
  -6   5   7   12.28    0.84
  -6   5   7   11.98    0.83
   6  -5   7   11.02    0.76
   6   5  -7   11.87    0.80
   6   5   7   11.78    0.79
  -6   5  -7   10.98    0.77
  -7  -5  -7   12.87    0.91
   7   5  -7   14.32    1.00
   7   5  -7   12.81    0.90
   7  -5   7   12.55    0.86
  -7   5   7   12.50    0.91
   7   5   7   13.87    0.89
  -7   5  -7   13.23    0.92
   8  -5   7    2.19    0.53
  -8   5   7    2.00    0.49
   8   5  -7    1.77    0.53
   8   5  -7    1.20    0.51
  -8  -5  -7    1.69    0.55
  -8   5  -7    1.87    0.46
   8  -5  -7    2.42    0.67
   0  -6   7   22.08    0.97
   0  -6  -7   22.13    0.83
   0   6   7   21.40    0.98
   0   6   7   22.20    0.91
   0   6  -7   24.07    0.95
   0  -6   7   22.32    0.89
   0   6   7   21.30    0.81
   0  -6   7   23.10    0.96
   1   6  -7   22.39    0.95
   1  -6   7   21.93    0.91
  -1  -6  -7   22.13    0.84
  -1   6   7   18.64    0.88
   1  -6   7   21.35    0.95
   1  -6   7   20.47    0.86
  -1   6   7   20.22    0.86
   1   6   7   22.77    0.88
  -1  -6   7   20.88    0.96
  -1   6  -7   22.61    0.89
   1   6   7   19.15    0.95
  -1  -6   7   21.88    0.94
  -1  -6   7   21.27    0.84
   2   6  -7   22.20    0.98
  -2  -6  -7   21.05    0.87
  -2   6   7   20.88    0.93
   2  -6   7   20.91    0.98
   2  -6   7   21.59    0.86
  -2   6   7   20.96    0.93
   2  -6   7   21.08    0.91
  -2  -6   7   21.19    1.01
   2  -6  -7   22.23    1.00
  -2  -6   7   23.12    0.95
   2   6   7   22.32    0.88
  -2  -6   7   23.23    0.88
   2   6   7   23.34    1.03
   3   6  -7    3.59    0.43
   3  -6   7    3.46    0.39
  -3   6   7    2.97    0.39
  -3  -6  -7    3.40    0.37
  -3   6   7    3.62    0.44
   3  -6   7    3.30    0.30
  -3  -6   7    3.50    0.34
  -3  -6   7    2.89    0.41
  -3  -6   7    3.79    0.37
  -3   6  -7    3.93    0.42
   3   6   7    3.32    0.41
   3  -6  -7    3.01    0.39
   4   6  -7    2.34    0.45
   4  -6   7    2.45    0.20
  -4   6   7    1.55    0.36
   4  -6   7    1.81    0.32
  -4   6   7    2.58    0.43
   4   6  -7    2.60    0.42
  -4  -6  -7    2.10    0.34
  -4  -6   7    2.61    0.43
   4   6   7    2.86    0.39
  -4   6  -7    1.62    0.34
   4  -6  -7    2.85    0.38
   5   6  -7    4.11    0.54
  -5   6   7    3.18    0.50
   5   6  -7    4.09    0.50
  -5   6   7    3.31    0.48
  -5  -6  -7    4.00    0.46
   5  -6   7    3.25    0.44
   5  -6  -7    3.16    0.41
   5   6   7    3.21    0.45
  -5   6  -7    3.18    0.46
   6   6  -7   -0.11    0.39
  -6   6   7   -0.82    0.32
   6  -6   7    0.05    0.32
  -6  -6  -7    0.46    0.31
   6   6  -7   -0.08    0.29
  -6   6   7    0.19    0.30
  -6   6  -7   -0.21    0.33
   6   6   7    0.01    0.34
   7   6  -7    4.05    0.71
  -7  -6  -7    4.47    0.61
   7   6  -7    4.92    0.59
   7  -6   7    4.64    0.58
  -7   6   7    4.90    0.60
  -7   6  -7    4.71    0.61
   7   6   7    5.34    0.66
  -8   6   7    2.23    0.55
   8   6  -7    3.22    0.68
   8   6  -7    2.31    0.54
  -8  -6  -7    3.18    0.63
   8  -6   7    3.07    0.54
  -8   6  -7    3.35    0.66
   8   6   7    2.69    0.54
   0   7   7    0.51    0.21
   0  -7   7    0.45    0.25
   0  -7  -7    0.56    0.20
   0   7  -7    0.59    0.25
   0   7   7    0.76    0.28
   0   7   7    0.27    0.18
   0  -7   7    0.36    0.21
   0  -7   7    0.36    0.22
   1  -7   7    4.95    0.48
  -1  -7  -7    5.67    0.42
  -1   7   7    5.05    0.43
   1  -7   7    5.56    0.49
  -1   7   7    4.92    0.44
   1  -7   7    5.74    0.46
  -1   7   7    5.88    0.49
   1   7  -7    5.45    0.48
   1   7   7    5.20    0.26
  -1  -7   7    5.46    0.52
   1   7   7    5.57    0.42
  -1  -7   7    4.88    0.41
   1   7   7    5.48    0.27
  -1  -7   7    5.42    0.46
  -1   7  -7    5.69    0.44
   1   7   7    5.99    0.51
  -2   7   7    9.80    0.61
   2  -7   7    8.77    0.59
  -2  -7  -7    9.26    0.57
   2   7  -7    9.31    0.63
   2  -7   7   10.70    0.58
  -2   7   7    7.73    0.60
  -2  -7   7   10.55    0.62
   2   7   7   10.97    0.71
  -2  -7   7   10.29    0.57
  -2  -7   7    8.88    0.66
   2  -7  -7    9.57    0.65
  -2   7  -7   10.54    0.65
  -3   7   7   19.12    0.95
  -3   7   7   18.01    0.90
   3   7  -7   20.43    1.00
   3  -7   7   19.07    0.80
  -3  -7  -7   18.27    0.86
   3  -7   7   17.14    0.90
   3   7   7   17.69    0.95
  -3  -7   7   18.01    0.81
  -3  -7   7   17.88    0.97
   3  -7  -7   18.39    0.92
  -3   7  -7   17.61    0.90
  -4  -7  -7    5.44    0.52
   4  -7   7    5.25    0.37
   4   7  -7    4.67    0.53
   4  -7   7    5.69    0.52
  -4   7   7    4.83    0.55
  -4   7   7    4.82    0.54
  -4  -7   7    6.86    0.65
   4  -7  -7    5.57    0.49
   4   7   7    5.66    0.55
  -4   7  -7    5.44    0.54
   5   7  -7   19.27    1.10
  -5  -7  -7   17.73    0.94
  -5   7   7   15.32    0.99
   5  -7   7   14.61    0.88
   5   7  -7   18.05    1.01
  -5   7   7   16.64    0.98
   5   7   7   19.11    1.03
  -5   7  -7   17.51    0.98
   6   7  -7    8.53    0.78
  -6   7   7    7.69    0.79
  -6  -7  -7    8.82    0.69
   6  -7   7    8.55    0.71
  -6   7   7    8.27    0.72
   6   7  -7    7.90    0.82
   6   7   7    9.35    0.81
  -6   7  -7    9.20    0.76
  -7   7   7    4.54    0.64
   7   7  -7    6.07    0.69
   7   7  -7    5.36    0.76
   7  -7   7    5.40    0.64
  -7  -7  -7    6.40    0.70
  -7   7  -7    5.81    0.73
   7   7   7    6.75    0.69
   8   7  -7    2.16    0.60
  -8   7   7    1.82    0.59
   8  -7   7    1.80    0.57
  -8  -7  -7    2.71    0.63
   8   7  -7    2.57    0.63
  -8   7  -7    2.90    0.63
   8   7   7    3.10    0.60
   0   8   7   -0.06    0.19
   0  -8   7   -0.29    0.21
   0   8  -7    0.13    0.24
   0  -8   7   -0.08    0.24
   0  -8   7    0.13    0.22
   0   8   7    0.13    0.26
   0   8   7   -0.07    0.17
   0  -8  -7    0.08    0.20
   1  -8   7   11.49    0.70
  -1   8   7   12.66    0.72
  -1   8   7   13.87    0.71
  -1   8   7   13.64    0.77
   1   8  -7   13.71    0.76
  -1  -8  -7   13.76    0.70
   1  -8   7   13.62    0.76
   1   8   7   12.16    0.50
  -1  -8   7   12.66    0.72
  -1  -8   7   11.86    0.66
   1   8   7   11.67    0.76
  -1  -8   7   13.48    0.80
  -1   8  -7   12.20    0.70
  -2   8   7   18.59    0.93
   2  -8   7   17.95    0.88
  -2  -8  -7   20.10    0.90
  -2   8   7   19.83    0.94
   2  -8   7   19.43    0.93
   2   8  -7   19.06    0.96
   2   8   7   17.17    0.97
   2  -8  -7   19.77    0.96
  -2   8  -7   19.57    0.95
  -2  -8   7   20.92    0.91
  -2  -8   7   19.97    1.02
   3  -8   7    2.33    0.34
  -3   8   7    2.20    0.36
   3  -8   7    1.76    0.36
  -3  -8  -7    1.98    0.37
  -3   8   7    2.44    0.40
   3   8  -7    2.46    0.40
  -3  -8   7    2.73    0.45
  -3   8  -7    1.74    0.37
  -3  -8   7    2.37    0.32
   3  -8  -7    2.25    0.39
   3   8   7    2.17    0.43
  -4   8   7    1.17    0.38
   4  -8   7    0.93    0.29
  -4  -8  -7    1.53    0.36
   4   8  -7    1.36    0.40
  -4   8   7    1.25    0.39
   4  -8   7    0.65    0.23
  -4  -8   7    1.53    0.43
   4   8   7    1.65    0.39
  -4   8  -7    1.25    0.39
   5   8  -7    1.98    0.50
  -5   8   7    2.65    0.51
   5  -8   7    2.47    0.44
  -5   8   7    2.06    0.45
   5  -8   7    2.36    0.28
   5   8  -7    2.11    0.50
  -5  -8  -7    1.32    0.42
   5   8   7    2.88    0.50
  -5   8  -7    2.63    0.48
   6   8  -7    0.21    0.40
  -6  -8  -7    0.07    0.36
  -6   8   7   -0.25    0.39
   6  -8   7   -0.15    0.32
   6   8  -7    0.10    0.40
  -6   8   7   -0.08    0.37
  -6   8  -7    0.19    0.40
   6   8   7    0.19    0.37
   7   8  -7   11.87    1.04
  -7   8   7   11.42    0.97
  -7  -8  -7   13.83    1.00
   7   8  -7   11.78    1.00
   7  -8   7   11.81    0.92
  -7   8  -7   11.69    0.98
   7   8   7   13.37    1.01
   0   9   7    0.59    0.23
   0   9  -7    0.20    0.23
   0  -9   7    0.44    0.30
   0  -9   7    0.35    0.23
   0   9   7   -0.13    0.28
  -1  -9  -7    1.97    0.33
   1  -9   7    2.10    0.40
  -1   9   7    0.90    0.32
   1   9  -7    1.47    0.32
   1  -9   7    1.92    0.35
  -1   9   7    1.66    0.34
  -1   9   7    1.65    0.33
   1   9   7    2.13    0.26
   1   9   7    1.49    0.38
  -1   9  -7    1.13    0.32
  -1  -9   7    1.85    0.41
  -1  -9   7    1.88    0.33
  -2   9   7    0.87    0.30
   2  -9   7    1.71    0.35
  -2   9   7    1.40    0.36
  -2  -9  -7    1.33    0.33
   2  -9   7    1.21    0.29
   2   9  -7    0.62    0.31
   2  -9  -7    1.02    0.32
  -2   9  -7    1.31    0.34
  -2  -9   7    1.22    0.38
  -2  -9   7    0.49    0.30
   2   9   7    1.15    0.41
   3  -9   7    4.12    0.51
  -3   9   7    4.17    0.49
   3   9  -7    4.14    0.54
  -3  -9  -7    4.82    0.49
   3  -9   7    4.67    0.49
  -3   9   7    4.93    0.57
  -3   9  -7    4.81    0.54
   3   9   7    5.66    0.60
  -3  -9   7    4.74    0.61
  -3  -9   7    4.81    0.48
   3  -9  -7    5.25    0.52
  -4   9   7    9.73    0.76
   4   9  -7    9.09    0.76
   4  -9   7    9.30    0.60
   4  -9   7    9.26    0.72
  -4  -9  -7    9.66    0.69
  -4   9   7    9.58    0.78
  -4   9  -7    9.99    0.77
   4   9   7    8.88    0.80
   5  -9   7    9.17    0.75
   5  -9   7    8.79    0.55
   5   9  -7    8.73    0.90
  -5   9   7   10.26    0.84
  -5  -9  -7    9.62    0.72
   5   9  -7    9.53    0.85
  -5   9   7    7.42    0.74
   5   9   7    8.79    0.80
  -5   9  -7    9.90    0.80
  -6   9   7    8.96    0.89
   6   9  -7    8.75    0.89
   6  -9   7    9.28    0.80
   6   9  -7    8.95    0.87
  -6  -9  -7    9.80    0.81
  -6   9   7    9.47    0.84
   6   9   7    9.92    0.88
  -6   9  -7    9.66    0.87
   7  -9   7    2.83    0.59
   7   9  -7    2.48    0.67
   7   9  -7    2.32    0.65
  -7   9   7    3.66    0.64
  -7  -9  -7    2.49    0.61
   7   9   7    3.59    0.65
  -7   9  -7    1.49    0.55
   0 -10   7   -0.01    0.29
   0  10   7    0.61    0.28
   0  10   7    0.86    0.37
   0 -10   7    0.90    0.34
  -1  10   7    9.89    0.74
  -1 -10  -7    9.88    0.69
  -1  10   7    9.06    0.64
   1 -10   7    9.79    0.76
   1 -10   7    9.15    0.68
   1  10  -7    8.96    0.71
   1  10   7    8.32    0.71
  -1 -10   7    9.03    0.76
   1  10   7    9.31    0.50
  -1  10  -7    9.34    0.64
  -1 -10   7    8.38    0.65
   2 -10   7    2.37    0.44
   2 -10   7    2.46    0.42
  -2  10   7    2.65    0.47
  -2  10   7    2.99    0.45
  -2 -10  -7    2.76    0.45
   2  10  -7    2.39    0.50
  -2  10  -7    2.83    0.46
   2  10   7    2.51    0.50
   2 -10  -7    2.90    0.48
  -2 -10   7    2.77    0.49
  -2 -10   7    2.65    0.43
   3 -10   7    9.49    0.73
  -3  10   7   10.75    0.73
   3  10  -7    9.89    0.83
  -3 -10  -7   10.43    0.76
   3 -10   7    9.77    0.76
  -3  10   7   10.44    0.82
   3  10   7    8.53    0.80
  -3  10  -7    9.74    0.77
  -3 -10   7   11.12    0.74
  -3 -10   7    8.99    0.87
   4 -10   7    3.30    0.54
  -4  10   7    3.24    0.48
  -4 -10  -7    3.24    0.53
  -4  10   7    2.97    0.58
   4  10  -7    2.86    0.53
   4 -10   7    2.67    0.44
   4  10   7    3.07    0.55
  -4  10  -7    2.45    0.51
  -5  10   7    4.89    0.68
  -5 -10  -7    5.54    0.65
  -5  10   7    5.04    0.73
   5 -10   7    4.81    0.62
   5  10  -7    3.96    0.68
   5 -10   7    4.60    0.50
  -5  10  -7    4.71    0.63
   5  10   7    5.10    0.71
  -6 -10  -7    0.46    0.44
   6  10  -7    0.74    0.55
  -6  10   7   -0.09    0.51
   6 -10   7    0.80    0.45
   6  10  -7    0.54    0.57
   6 -10   7    0.65    0.30
  -6  10   7    0.86    0.48
   6  10   7    0.90    0.53
  -6  10  -7    0.47    0.50
   0  11   7    0.74    0.37
   0 -11   7    0.37    0.39
   0 -11   7    0.24    0.33
   0  11   7    0.27    0.29
  -1  11   7    0.43    0.36
   1 -11   7   -0.34    0.37
   1 -11   7    0.21    0.29
  -1  11   7    0.35    0.32
   1  11   7    0.61    0.39
   1  11   7    0.17    0.25
  -1 -11   7    0.20    0.34
  -1 -11   7    0.93    0.42
  -2  11   7   11.32    0.81
   2 -11   7   11.54    0.87
  -2 -11  -7   10.35    0.77
   2  11  -7   11.15    0.83
   2 -11   7   10.24    0.79
  -2  11  -7   12.23    0.82
   2 -11  -7   10.47    0.80
  -2 -11   7   10.88    0.91
   2  11   7   10.01    0.88
  -2 -11   7   10.89    0.79
   3  11  -7    4.12    0.60
  -3  11   7    4.42    0.60
  -3 -11  -7    3.65    0.56
   3 -11   7    3.27    0.50
   3 -11   7    3.54    0.52
  -3  11  -7    3.30    0.48
  -3 -11   7    4.03    0.55
   3  11   7    4.32    0.68
   4 -11   7   10.45    0.90
  -4  11   7   12.36    0.91
   4 -11   7   10.58    0.76
   4  11  -7   11.50    0.97
  -4  11   7   12.14    0.98
  -4 -11  -7   10.37    0.85
   4  11   7   11.96    1.00
  -4  11  -7   10.14    0.85
   5 -11   7    2.46    0.52
  -5 -11  -7    2.42    0.55
   5 -11   7    1.94    0.44
   5  11  -7    2.34    0.59
  -5  11   7    2.54    0.64
  -5  11   7    2.72    0.60
   5  11   7    3.24    0.66
  -5  11  -7    1.65    0.51
   0 -12   7    1.57    0.54
   0 -12   7    1.73    0.48
   0  12   7    2.23    0.42
   0  12   7    1.68    0.46
   1 -12   7    6.33    0.62
  -1  12   7    6.09    0.70
   1 -12   7    5.30    0.71
  -1  12   7    6.38    0.64
  -1 -12   7    4.87    0.62
  -1 -12   7    8.18    0.84
   1  12   7    7.12    0.79
   1  12   7    6.75    0.52
   2 -12   7    0.18    0.40
   2 -12   7    0.22    0.41
  -2 -12  -7    0.24    0.39
  -2  12   7    0.38    0.42
   2  12   7    0.28    0.45
  -2 -12   7    0.70    0.44
  -2 -12   7   -0.16    0.38
  -3 -12  -7    2.88    0.52
   3 -12   7    2.26    0.49
  -3  12   7    2.29    0.56
   3  12  -7    2.37    0.59
   3 -12   7    1.73    0.53
  -3 -12   7    2.98    0.54
  -3  12  -7    3.41    0.54
   3  12   7    3.23    0.67
   4  12  -7    4.05    0.71
  -4 -12  -7    4.79    0.68
  -4  12   7    3.66    0.70
   4 -12   7    4.67    0.70
   4  12   7    3.66    0.70
  -4  12  -7    2.95    0.66
   0  13   7    6.23    0.79
   0  13   7    6.78    0.63
   0 -13   7    6.96    0.77
   0 -13   7    6.48    0.85
  -1  13   7    0.46    0.41
   1 -13   7    0.90    0.52
   1 -13   7    1.36    0.49
  -1 -13   7    0.78    0.43
  -1 -13   7    0.45    0.54
   1  13   7    1.16    0.36
   1  13   7    1.17    0.60
   0   0   8   65.44    1.83
   0   0  -8   62.53    2.08
   0   0   8   60.43    2.03
   0   0   8   65.25    1.83
   1   0   8    2.93    0.32
   1   0   8    2.64    0.20
  -1   0   8    2.43    0.30
   1   0  -8    2.16    0.31
  -1   0  -8    2.36    0.31
  -1   0   8    2.52    0.25
   2   0  -8   18.35    0.86
  -2   0   8   18.52    0.84
   2   0   8   18.82    0.70
  -2   0   8   17.99    0.79
  -2   0  -8   18.65    0.84
   2   0   8   18.47    0.85
   3   0   8    5.15    0.45
  -3   0  -8    6.20    0.46
   3   0  -8    6.40    0.50
  -3   0   8    5.69    0.47
  -3   0   8    6.16    0.49
   3   0   8    6.03    0.41
  -4   0   8   14.06    0.75
  -4   0   8   12.84    0.76
   4   0  -8   12.58    0.73
  -4   0  -8   14.14    0.70
   4   0   8   15.23    0.71
   4   0   8   14.78    0.75
   5   0  -8    4.14    0.46
  -5   0   8    3.90    0.46
  -5   0   8    3.53    0.49
   5   0   8    4.00    0.43
  -6   0   8    4.83    0.58
  -6   0  -8    4.82    0.47
  -6   0   8    5.50    0.53
   6   0  -8    5.48    0.52
   6   0   8    6.54    0.58
   7   0   8    0.10    0.33
  -7   0   8    0.10    0.35
   7   0  -8   -0.29    0.28
  -7   0  -8    0.23    0.31
   8   0  -8   10.12    0.77
   8   0   8    9.12    0.82
   8   0  -8    8.97    0.97
  -8   0   8    9.75    0.79
   9   0   8   -0.11    0.42
   9   0  -8   -0.45    0.49
  -9   0   8    0.59    0.48
   0  -1   8    1.41    0.17
   0  -1   8    1.68    0.18
   0  -1   8    0.86    0.24
   0  -1  -8    0.90    0.23
   0   1  -8    1.49    0.25
   0   1   8    1.40    0.11
   0   1   8    1.44    0.23
   1  -1   8    3.63    0.25
   1  -1   8    3.83    0.36
  -1   1   8    3.42    0.28
  -1  -1  -8    3.54    0.37
  -1   1   8    3.38    0.36
   1   1  -8    4.25    0.39
  -1   1  -8    3.64    0.36
   1   1   8    2.88    0.34
  -1  -1   8    3.74    0.36
   1  -1  -8    3.79    0.39
  -1  -1   8    3.89    0.31
   2  -1   8   28.78    1.15
   2  -1   8   30.56    1.01
   2   1  -8   29.09    1.17
  -2   1   8   30.32    1.11
  -2  -1  -8   27.04    1.13
  -2   1   8   30.24    1.15
   2   1   8   30.80    1.15
  -2   1  -8   29.53    1.12
   2  -1  -8   30.01    1.19
   2   1   8   28.81    0.99
  -2  -1   8   29.03    1.12
  -2  -1   8   30.83    1.16
  -3   1   8    3.16    0.35
   3  -1   8    3.43    0.40
  -3  -1  -8    2.52    0.32
  -3   1   8    2.79    0.35
   3   1  -8    2.35    0.33
   3  -1   8    2.36    0.30
   3   1   8    3.59    0.36
   3   1   8    2.64    0.30
  -3  -1   8    2.52    0.35
  -3  -1   8    3.08    0.36
  -3   1  -8    2.27    0.30
   3  -1  -8    2.98    0.37
  -4   1   8    0.04    0.23
   4  -1   8   -0.10    0.20
  -4   1   8   -0.21    0.21
   4  -1   8    0.24    0.20
   4   1  -8   -0.12    0.20
  -4  -1   8   -0.04    0.21
   4   1   8    0.00    0.19
  -4  -1   8   -0.04    0.21
   4  -1  -8    0.31    0.22
  -4   1  -8    0.08    0.20
   4   1   8   -0.10    0.18
   4   1   8    0.14    0.22
   5   1  -8    0.56    0.25
  -5   1   8    0.34    0.27
   5  -1   8    0.19    0.26
  -5   1   8    0.13    0.23
   5   1   8    0.25    0.23
   5  -1  -8    0.27    0.23
  -5  -1   8    0.28    0.28
  -5  -1   8    0.01    0.26
   5   1   8    0.41    0.24
   5   1   8    0.46    0.24
  -5   1  -8   -0.06    0.22
  -6  -1  -8   12.48    0.72
  -6   1   8   12.99    0.81
   6   1  -8   14.63    0.83
  -6   1   8   12.49    0.85
   6  -1   8   12.67    0.77
   6   1   8   10.75    0.71
  -6  -1   8   11.88    0.81
  -6   1  -8   11.69    0.72
  -6  -1   8   11.50    0.75
   6  -1  -8   13.67    0.76
   7   1  -8   11.93    0.82
  -7   1   8   12.66    0.85
   7  -1   8   13.40    0.87
   7   1  -8   13.52    0.97
  -7  -1   8   11.37    0.79
  -7   1  -8   12.49    0.82
   7  -1  -8   14.07    0.84
   7   1   8   13.40    0.84
  -8   1   8    7.74    0.74
   8   1  -8    8.30    0.70
   8   1  -8    7.00    0.82
   8  -1   8    6.72    0.71
  -8  -1   8    6.50    0.67
   8   1   8    8.15    0.75
   8  -1  -8    6.78    0.85
  -8   1  -8    8.07    0.71
   9   1  -8    7.69    0.95
   9  -1   8    5.78    0.74
  -9   1   8    8.78    0.81
   9   1   8    7.70    0.82
   9  -1  -8    5.24    0.85
   0   2   8   61.77    2.03
   0  -2   8   66.67    1.91
   0   2  -8   60.65    2.05
   0  -2  -8   61.28    2.09
   0  -2   8   59.87    2.04
   0  -2   8   65.37    1.90
   1  -2   8   27.73    0.93
  -1   2   8   29.37    0.99
  -1   2   8   26.70    1.08
  -1  -2  -8   27.30    1.11
   1   2  -8   27.13    1.10
   1  -2   8   28.70    1.13
  -1  -2   8   26.06    1.05
  -1   2  -8   26.77    1.05
   1   2   8   27.33    1.05
  -1  -2   8   27.71    1.01
   1  -2  -8   26.21    1.10
  -2  -2  -8   33.83    1.11
   2  -2   8   33.56    1.29
  -2   2   8   34.78    1.23
  -2   2   8   34.32    1.27
   2   2  -8   30.41    1.25
  -2  -2  -8   32.34    1.28
   2  -2   8   33.41    1.13
  -2  -2   8   29.84    1.17
  -2   2  -8   31.94    1.16
   2  -2  -8   32.05    1.24
   2   2   8   32.51    1.18
  -2  -2   8   28.58    1.16
   3  -2   8   22.36    0.88
  -3   2   8   21.08    0.95
  -3   2   8   20.34    0.93
   3  -2   8   21.01    0.98
   3   2  -8   20.93    0.96
   3   2   8   21.62    0.94
  -3  -2   8   21.82    0.95
  -3  -2   8   21.49    0.97
   3  -2  -8   22.37    0.99
  -3   2  -8   22.23    0.90
   3   2   8   22.49    0.95
   4   2  -8   10.35    0.63
   4  -2   8    8.29    0.60
  -4   2   8    7.46    0.56
  -4   2   8    8.26    0.59
   4  -2   8    9.81    0.57
  -4  -2   8    8.81    0.62
   4   2   8    9.19    0.58
   4   2   8    9.39    0.56
   4   2   8    9.34    0.58
  -4  -2   8    8.65    0.58
   4  -2  -8    9.53    0.61
  -5   2   8    1.38    0.32
  -5   2   8    0.63    0.30
   5  -2   8    0.13    0.26
   5   2  -8    0.27    0.25
   5   2   8    0.74    0.28
  -5  -2   8    0.67    0.30
   5   2   8    1.04    0.28
  -5   2  -8    0.67    0.31
   5  -2  -8    1.13    0.30
   5   2   8    0.70    0.27
  -5  -2   8    0.74    0.30
  -6   2   8    0.66    0.33
   6   2  -8    0.50    0.29
  -6   2   8    0.46    0.31
   6  -2   8    0.65    0.31
   6   2   8    0.22    0.26
   6  -2  -8    0.20    0.29
  -6   2  -8    0.30    0.27
   6   2   8    0.50    0.29
  -6  -2   8    0.26    0.36
  -6  -2   8    0.41    0.28
   7   2  -8    0.58    0.32
   7   2  -8    0.06    0.39
  -7   2   8    0.13    0.34
   7  -2   8    0.30    0.33
   7   2   8   -0.23    0.32
   7  -2  -8    0.50    0.31
  -7  -2   8    0.21    0.31
  -7   2  -8    0.31    0.32
  -8   2   8    8.57    0.82
   8  -2   8    8.89    0.82
   8   2  -8    8.12    0.73
   8   2  -8    9.15    0.96
  -8   2  -8    8.64    0.77
   8   2   8    9.12    0.79
  -9   2   8    2.19    0.61
   9   2  -8    1.16    0.66
   9   2  -8    2.02    0.55
   9  -2   8    2.55    0.56
   9  -2  -8    3.42    0.69
  -9   2  -8    1.36    0.54
   9   2   8    2.39    0.57
   0   3   8    4.54    0.39
   0  -3   8    4.34    0.29
   0   3  -8    4.95    0.42
   0   3   8    4.66    0.20
   0  -3   8    4.89    0.42
   0  -3   8    4.41    0.33
   0  -3  -8    4.31    0.41
  -1   3   8    3.49    0.35
   1  -3   8    4.25    0.40
   1  -3   8    4.01    0.25
   1  -3   8    4.09    0.30
  -1   3   8    4.32    0.31
   1   3  -8    3.96    0.37
  -1  -3  -8    4.24    0.42
   1  -3   8    4.24    0.25
  -1  -3   8    4.03    0.36
   1   3   8    4.29    0.38
   1  -3  -8    3.78    0.39
  -1   3  -8    4.05    0.37
  -1  -3   8    3.54    0.37
   2  -3   8   10.41    0.52
   2  -3   8    9.91    0.61
  -2   3   8    9.24    0.60
  -2   3   8    9.83    0.54
  -2  -3  -8    8.94    0.48
   2   3  -8    9.17    0.59
   2   3   8    9.18    0.55
   2   3   8    8.63    0.55
   2  -3  -8    8.96    0.58
  -2  -3   8    8.81    0.55
  -2  -3   8    8.78    0.55
  -2   3  -8    8.35    0.52
   3  -3   8    1.29    0.26
   3  -3   8    1.57    0.30
  -3   3   8    1.23    0.28
  -3   3   8    1.25    0.28
  -3  -3  -8    1.52    0.27
   3   3  -8    1.66    0.31
   3   3   8    0.97    0.24
  -3  -3   8    1.06    0.28
   3   3   8    0.95    0.24
   3  -3  -8    1.58    0.31
  -3   3  -8    1.09    0.24
  -3  -3   8    1.32    0.28
  -4   3   8    2.99    0.39
   4   3  -8    3.35    0.41
   4  -3   8    3.12    0.41
  -4  -3  -8    3.91    0.38
   4  -3   8    3.56    0.40
  -4   3   8    2.85    0.40
   4   3   8    2.98    0.38
  -4  -3   8    3.43    0.39
  -4  -3   8    3.67    0.44
   4  -3  -8    2.73    0.37
   4   3   8    3.08    0.37
  -5   3   8    6.04    0.57
  -5   3   8    5.58    0.54
   5  -3   8    6.52    0.53
   5   3  -8    5.93    0.56
  -5  -3  -8    5.95    0.52
   5  -3  -8    5.68    0.51
   5   3   8    5.95    0.48
  -5  -3   8    6.71    0.64
  -5   3  -8    6.16    0.54
  -5  -3   8    6.29    0.52
   5   3   8    4.92    0.47
  -6   3   8    7.77    0.68
  -6  -3  -8   10.26    0.70
   6   3  -8    8.69    0.70
  -6   3   8    8.90    0.74
   6  -3   8    9.23    0.66
  -6  -3   8   10.36    0.67
  -6   3  -8    9.22    0.70
  -6  -3   8    9.67    0.80
   6   3   8    9.27    0.68
   6  -3  -8    9.55    0.66
   7   3  -8    5.82    0.62
  -7  -3  -8    8.08    0.73
  -7   3   8    6.27    0.65
   7   3  -8    8.72    0.84
   7  -3   8    7.11    0.67
  -7   3  -8    6.37    0.61
   8   3  -8   13.66    0.93
  -8   3   8   13.72    1.00
   8   3  -8   13.61    1.16
  -8  -3  -8   11.93    0.93
   8  -3   8   13.46    0.99
  -8   3  -8   12.49    0.88
   9  -3   8    6.18    0.72
   9   3  -8    6.55    0.73
  -9   3   8    5.93    0.80
   9   3  -8    4.28    0.79
  -9  -3  -8    5.26    0.79
   9  -3  -8    4.37    0.85
  -9   3  -8    4.90    0.74
   0  -4  -8    1.61    0.29
   0   4   8    1.20    0.24
   0   4   8    1.91    0.15
   0  -4   8    1.75    0.31
   0  -4   8    1.46    0.24
   0   4  -8    1.58    0.28
   0  -4   8    1.31    0.19
   0   4   8    1.89    0.15
  -1   4   8   73.94    2.36
   1   4  -8   70.36    2.37
   1  -4   8   75.90    2.23
   1  -4   8   73.98    2.21
  -1   4   8   76.69    2.26
   1  -4   8   72.24    2.40
   1   4   8   72.32    2.36
  -1  -4   8   69.57    2.30
   1   4   8   72.17    2.26
   1  -4  -8   71.65    2.39
  -1   4  -8   72.56    2.27
  -1  -4   8   74.23    2.31
   2  -4   8   12.27    0.71
  -2  -4  -8   12.93    0.58
   2  -4   8   12.41    0.60
   2   4  -8   10.60    0.66
  -2   4   8   11.39    0.62
  -2   4   8   11.27    0.65
  -2  -4   8   12.42    0.69
   2   4   8   12.13    0.63
  -2   4  -8   13.85    0.64
   2  -4  -8   10.91    0.70
   2   4   8   12.04    0.70
  -2  -4   8   13.61    0.70
   3  -4   8   41.00    1.60
  -3   4   8   41.16    1.55
  -3   4   8   43.95    1.59
   3   4  -8   42.37    1.59
   3  -4   8   44.70    1.51
  -3  -4  -8   41.99    1.45
   3   4   8   43.15    1.47
  -3  -4   8   42.73    1.49
  -3  -4   8   40.30    1.57
   3  -4  -8   39.17    1.53
   3   4   8   40.86    1.55
  -4   4   8   10.48    0.70
   4   4  -8    9.87    0.67
  -4   4   8   10.00    0.67
  -4  -4  -8   10.27    0.61
   4  -4   8    9.93    0.63
   4   4   8    9.79    0.61
   4   4   8   11.17    0.68
  -4   4  -8   11.31    0.69
  -4  -4   8   10.30    0.63
   4  -4  -8   11.80    0.72
  -4  -4   8   10.76    0.72
   5  -4   8    0.12    0.27
  -5  -4  -8    0.41    0.30
  -5   4   8    0.01    0.31
  -5   4   8    0.24    0.25
   5   4  -8    0.02    0.24
   5  -4  -8    0.12    0.24
  -5  -4   8    0.07    0.33
  -5   4  -8    0.20    0.27
  -5  -4   8    0.14    0.24
   5   4   8    0.28    0.26
   6  -4   8    0.56    0.34
  -6   4   8    0.52    0.36
  -6  -4  -8    0.45    0.34
  -6   4   8    0.62    0.32
   6   4  -8    0.75    0.32
   6   4   8    0.74    0.32
   6  -4  -8    0.21    0.28
  -6   4  -8    0.57    0.33
  -7   4   8    0.86    0.39
   7  -4   8    0.94    0.37
   7   4  -8    0.74    0.53
  -7  -4  -8    1.63    0.43
   7   4  -8    1.53    0.44
   7   4   8    0.81    0.37
  -7   4  -8    0.90    0.41
   8   4  -8    2.10    0.54
  -8   4   8    1.64    0.54
   8  -4   8    1.84    0.50
   8   4  -8    0.99    0.61
  -8  -4  -8    1.19    0.48
  -8   4  -8    1.81    0.53
   0   5   8   12.99    0.49
   0   5  -8   14.02    0.71
   0   5   8   13.22    0.67
   0  -5   8   13.01    0.65
   0  -5   8   13.19    0.59
   0   5   8   12.89    0.49
   0  -5   8   11.74    0.69
   1  -5   8   16.05    0.70
   1   5  -8   16.04    0.79
   1  -5   8   16.62    0.70
  -1   5   8   14.96    0.68
   1  -5   8   15.13    0.80
  -1   5   8   16.13    0.79
  -1   5  -8   15.64    0.73
   1   5   8   16.23    0.75
  -1  -5   8   15.64    0.78
  -1  -5   8   15.11    0.78
   1  -5  -8   14.80    0.82
   1   5   8   16.01    0.81
   2   5  -8    2.09    0.35
   2  -5   8    1.88    0.21
   2  -5   8    2.18    0.29
  -2  -5  -8    1.92    0.26
   2  -5   8    1.69    0.33
  -2   5   8    1.74    0.29
  -2   5   8    1.71    0.29
   2   5   8    2.56    0.30
   2   5   8    2.16    0.37
  -2   5  -8    1.63    0.27
  -2  -5   8    1.94    0.32
  -2  -5   8    2.55    0.38
   2  -5  -8    1.63    0.31
   3   5  -8    7.53    0.59
  -3  -5  -8    6.68    0.48
   3  -5   8    6.38    0.50
  -3   5   8    8.09    0.60
  -3   5   8    6.66    0.55
   3  -5   8    6.85    0.56
  -3  -5   8    7.67    0.54
   3  -5  -8    6.72    0.56
  -3  -5   8    6.57    0.59
   3   5   8    6.51    0.56
   3   5   8    7.86    0.49
   4   5  -8    1.53    0.35
  -4  -5  -8    1.41    0.31
  -4   5   8    1.43    0.33
   4  -5   8    1.86    0.33
  -4   5   8    1.31    0.35
  -4  -5   8    1.82    0.32
   4  -5  -8    1.46    0.33
  -4  -5   8    1.30    0.36
  -4   5  -8    1.54    0.31
   4   5   8    1.97    0.39
   5   5  -8    2.45    0.43
  -5   5   8    2.41    0.45
   5  -5   8    2.09    0.41
  -5   5   8    1.64    0.39
  -5  -5  -8    2.38    0.41
   5  -5  -8    2.62    0.40
  -5  -5   8    1.58    0.42
   5   5   8    1.95    0.41
  -5   5  -8    1.48    0.35
  -6   5   8    9.67    0.80
  -6  -5  -8    9.01    0.73
   6  -5   8   10.11    0.77
  -6   5   8   10.08    0.85
   6   5  -8    8.88    0.75
  -6   5  -8    9.82    0.76
   6   5   8   10.44    0.78
  -7   5   8    2.38    0.55
   7   5  -8    2.97    0.52
   7  -5   8    3.49    0.52
   7   5  -8    3.18    0.63
  -7  -5  -8    3.34    0.52
   7   5   8    3.22    0.52
  -7   5  -8    3.52    0.58
  -8  -5  -8   17.15    1.08
   8   5  -8   15.42    1.23
   8  -5   8   16.02    1.08
  -8   5   8   19.57    1.22
   8   5  -8   18.40    1.12
  -8   5  -8   17.88    1.12
   0  -6   8    3.33    0.33
   0   6  -8    3.26    0.38
   0   6   8    3.14    0.36
   0  -6   8    3.58    0.39
   0  -6   8    3.87    0.40
   0   6   8    3.34    0.41
   0   6   8    3.71    0.26
  -1   6   8   74.94    2.31
   1  -6   8   74.97    2.35
  -1   6   8   71.61    2.38
   1  -6   8   72.81    2.44
   1  -6   8   74.83    2.31
   1   6  -8   73.99    2.42
   1   6   8   71.73    2.44
  -1   6  -8   72.30    2.30
   1   6   8   77.81    2.31
  -1  -6   8   71.11    2.37
   1  -6  -8   67.51    2.43
  -1  -6   8   74.22    2.42
  -1  -6   8   74.34    2.23
  -2   6   8    7.70    0.52
   2  -6   8    7.15    0.44
   2   6  -8    7.24    0.57
  -2   6   8    7.96    0.58
  -2  -6  -8    7.43    0.48
   2  -6   8    6.96    0.60
   2  -6   8    7.62    0.54
   2  -6  -8    8.73    0.63
   2   6   8    8.26    0.53
  -2  -6   8    7.54    0.57
   2   6   8    8.08    0.63
  -2  -6   8    8.72    0.62
   3   6  -8   35.25    1.43
  -3  -6  -8   34.58    1.29
  -3   6   8   33.00    1.38
   3  -6   8   35.06    1.10
   3  -6   8   33.88    1.33
  -3   6   8   35.05    1.40
  -3  -6   8   36.31    1.52
   3  -6  -8   37.67    1.47
  -3   6  -8   33.97    1.44
   3   6   8   38.13    1.51
  -3  -6   8   37.83    1.39
   4  -6   8    1.23    0.33
  -4  -6  -8    0.67    0.28
   4   6  -8    0.65    0.34
  -4   6   8    1.11    0.34
  -4   6   8    0.82    0.33
  -4  -6   8    1.25    0.36
   4   6   8    1.00    0.33
   4  -6  -8    0.66    0.31
  -4   6  -8    1.07    0.36
  -5   6   8    5.70    0.62
   5   6  -8    4.71    0.58
  -5   6   8    4.75    0.57
   5  -6   8    4.92    0.52
  -5  -6  -8    5.94    0.55
   5  -6  -8    4.43    0.50
  -5  -6   8    4.69    0.64
   5   6   8    4.95    0.56
  -5   6  -8    4.82    0.53
   6   6  -8    2.67    0.52
  -6   6   8    3.63    0.57
  -6   6   8    3.27    0.53
  -6  -6  -8    4.16    0.54
   6  -6   8    4.19    0.53
   6   6   8    3.23    0.50
  -6   6  -8    3.41    0.51
  -7   6   8    4.15    0.66
   7   6  -8    3.79    0.60
  -7  -6  -8    3.39    0.59
   7  -6   8    4.48    0.60
   7   6  -8    4.45    0.75
  -7   6  -8    4.70    0.61
   7   6   8    3.70    0.58
  -8  -6  -8    1.51    0.51
  -8   6   8    0.78    0.55
   8   6  -8    1.16    0.56
   8   6  -8    1.32    0.61
   8  -6   8    1.50    0.46
  -8   6  -8    1.74    0.56
   0  -7   8    0.04    0.21
   0  -7   8    0.24    0.28
   0   7   8    0.26    0.25
   0   7   8    0.56    0.25
   0   7   8    0.52    0.17
   0   7  -8    0.41    0.28
   0  -7   8    0.61    0.26
   1  -7   8    1.66    0.37
  -1   7   8    2.31    0.32
  -1   7   8    1.45    0.30
   1   7  -8    1.90    0.36
   1  -7   8    1.42    0.30
   1  -7   8    1.53    0.31
  -1  -7   8    2.05    0.29
   1  -7  -8    1.54    0.34
  -1  -7   8    2.16    0.38
  -1  -7   8    1.84    0.36
   1   7   8    1.45    0.32
   1   7   8    1.37    0.27
   2  -7   8    1.58    0.27
  -2   7   8    1.37    0.31
   2  -7   8    1.47    0.29
  -2   7   8    1.58    0.34
   2   7  -8    1.76    0.37
   2   7   8    1.40    0.35
  -2  -7   8    2.62    0.43
  -2  -7   8    1.76    0.34
   2  -7  -8    1.35    0.35
  -2   7  -8    1.49    0.30
   3  -7   8    6.05    0.53
  -3  -7  -8    7.46    0.53
  -3   7   8    6.42    0.58
   3  -7   8    5.95    0.41
   3   7  -8    6.33    0.59
  -3   7   8    6.36    0.56
   3  -7  -8    6.70    0.59
   3   7   8    6.03    0.61
  -3  -7   8    6.18    0.60
  -3   7  -8    5.81    0.55
  -4  -7  -8    3.14    0.43
   4  -7   8    2.74    0.41
  -4   7   8    2.70    0.42
  -4   7   8    3.23    0.47
   4   7  -8    2.77    0.45
   4   7   8    2.54    0.46
  -4   7  -8    3.00    0.47
   4  -7  -8    3.28    0.45
  -4  -7   8    3.39    0.52
   5  -7   8    0.43    0.35
   5   7  -8    0.78    0.36
  -5   7   8    0.21    0.35
  -5  -7  -8    0.41    0.34
  -5   7   8    0.03    0.31
  -5   7  -8    0.36    0.31
   5   7   8    0.66    0.36
  -6   7   8    8.72    0.82
   6   7  -8   10.35    0.83
   6  -7   8    7.74    0.73
  -6   7   8    8.64    0.85
  -6  -7  -8    8.44    0.74
   6   7   8    8.98    0.81
  -6   7  -8    9.68    0.82
   7   7  -8    1.28    0.54
  -7   7   8    1.13    0.49
  -7  -7  -8    0.71    0.40
   7  -7   8    1.15    0.50
   7   7  -8    1.50    0.58
  -7   7  -8    1.72    0.49
   7   7   8    1.44    0.42
   0   8  -8   14.59    0.77
   0  -8   8   13.88    0.73
   0  -8   8   12.98    0.77
   0   8   8   12.86    0.82
   0   8   8   12.97    0.71
   0   8   8   13.51    0.61
   0  -8   8   14.23    0.82
  -1   8   8   52.72    1.76
   1  -8   8   48.74    1.77
   1   8  -8   50.39    1.85
  -1   8   8   49.97    1.79
   1  -8   8   51.58    1.83
  -1  -8   8   49.56    1.90
  -1  -8   8   52.80    1.75
   1   8   8   50.17    1.91
  -1  -8   8   49.62    1.81
   2   8  -8    9.55    0.70
  -2   8   8    9.24    0.63
   2  -8   8    9.72    0.63
  -2   8   8   10.19    0.68
   2  -8   8   10.02    0.62
   2   8   8    9.31    0.72
  -2  -8   8   10.47    0.76
  -2   8  -8   10.63    0.71
   2  -8  -8    9.87    0.68
  -3   8   8   17.74    0.95
  -3  -8  -8   15.91    0.85
  -3   8   8   17.44    0.93
   3  -8   8   16.82    0.78
   3   8  -8   15.51    0.95
   3  -8   8   15.66    0.89
  -3  -8   8   18.76    1.05
  -3   8  -8   16.63    0.92
   3   8   8   16.09    0.99
   3  -8  -8   17.03    0.95
   4   8  -8    3.91    0.57
  -4  -8  -8    4.83    0.52
  -4   8   8    4.12    0.52
   4  -8   8    4.44    0.37
  -4   8   8    3.23    0.53
   4  -8   8    4.68    0.55
   4   8   8    3.85    0.53
   4  -8  -8    3.99    0.51
  -4   8  -8    4.18    0.54
  -4  -8   8    3.65    0.57
  -5   8   8    8.57    0.75
  -5  -8  -8    8.01    0.70
   5  -8   8    8.15    0.70
  -5   8   8    8.13    0.78
   5   8  -8    8.25    0.75
   5   8   8    7.18    0.74
  -5   8  -8    8.22    0.72
   6   8  -8    0.55    0.43
  -6   8   8    0.18    0.44
  -6  -8  -8    0.76    0.36
   6  -8   8    0.52    0.43
  -6   8   8    0.46    0.41
  -6   8  -8    0.55    0.39
   6   8   8    0.26    0.42
  -7  -8  -8    2.47    0.53
   7   8  -8    1.51    0.51
   7  -8   8    2.25    0.59
  -7   8   8    2.31    0.61
   7   8  -8    3.72    0.75
   7   8   8    2.16    0.58
  -7   8  -8    2.76    0.58
   0   9   8    0.12    0.30
   0  -9   8   -0.21    0.26
   0   9  -8    0.14    0.26
   0  -9   8    0.09    0.30
   0   9   8   -0.29    0.20
  -1   9   8    0.21    0.23
  -1   9   8    0.41    0.30
   1   9  -8    0.11    0.30
   1  -9   8    0.45    0.29
   1  -9   8    0.31    0.31
  -1   9  -8    0.38    0.29
  -1  -9   8    0.31    0.25
  -1  -9   8    0.25    0.31
   1   9   8    0.35    0.35
   2  -9   8    2.98    0.44
   2   9  -8    3.28    0.50
  -2   9   8    3.14    0.44
   2  -9   8    4.21    0.49
  -2   9   8    3.26    0.44
   2   9   8    4.58    0.56
  -2  -9   8    2.81    0.48
  -2   9  -8    2.62    0.41
   2  -9  -8    2.71    0.45
   3  -9   8    1.18    0.34
  -3   9   8    1.34    0.39
   3  -9   8    1.22    0.32
  -3   9   8    0.54    0.36
   3   9  -8    1.21    0.44
  -3   9  -8    0.77    0.36
   3  -9  -8    1.37    0.37
   3   9   8    0.95    0.42
  -3  -9   8    0.93    0.44
  -4  -9  -8    2.50    0.48
   4  -9   8    2.15    0.34
   4  -9   8    2.11    0.43
  -4   9   8    2.51    0.45
   4   9  -8    1.75    0.49
  -4   9   8    2.02    0.50
  -4  -9   8    2.10    0.51
   4   9   8    1.52    0.45
  -4   9  -8    1.85    0.46
   5  -9   8    1.52    0.49
   5   9  -8    1.39    0.47
  -5   9   8    1.35    0.53
  -5  -9  -8    1.36    0.46
   5  -9   8    1.61    0.25
  -5   9   8    1.88    0.46
  -5   9  -8    1.63    0.45
   5   9   8    2.45    0.53
  -6   9   8   12.02    1.06
   6  -9   8   11.25    0.92
   6   9  -8   12.98    1.05
  -6   9   8   12.90    1.01
  -6  -9  -8   11.59    0.91
   6   9   8   12.85    1.00
  -6   9  -8   11.86    0.98
   0  10   8   24.72    1.01
   0 -10   8   24.52    1.17
   0  10   8   24.81    1.25
   0 -10   8   27.21    1.28
   1 -10   8    8.76    0.73
  -1  10   8    8.26    0.62
   1 -10   8    8.48    0.67
  -1  10   8    8.60    0.73
   1  10  -8    8.25    0.69
  -1  10  -8    8.62    0.66
   1  10   8    8.84    0.76
  -1 -10   8    8.45    0.66
  -1 -10   8    8.61    0.78
   2 -10   8   20.73    1.06
  -2  10   8   20.69    1.05
   2 -10   8   20.64    1.09
   2  10  -8   21.06    1.11
  -2  10  -8   22.16    1.12
   2  10   8   21.60    1.22
  -2 -10   8   22.26    1.22
   2 -10  -8   21.66    1.15
  -3  10   8    6.60    0.69
   3 -10   8    7.11    0.67
   3 -10   8    6.90    0.62
  -3  10   8    5.73    0.62
   3  10  -8    5.87    0.68
  -3 -10   8    5.58    0.71
   3  10   8    5.65    0.70
  -3  10  -8    7.13    0.67
   4 -10   8    4.07    0.46
  -4 -10  -8    4.77    0.60
   4  10  -8    5.98    0.70
  -4  10   8    3.92    0.57
  -4  10   8    3.62    0.62
   4 -10   8    3.96    0.51
   4  10   8    3.80    0.63
  -4  10  -8    4.07    0.60
  -5  10   8   15.78    1.08
   5 -10   8   15.01    0.73
   5 -10   8   13.11    0.94
  -5 -10  -8   15.62    1.00
  -5  10   8   12.34    1.00
   5  10  -8   16.96    1.16
   5  10   8   15.83    1.14
  -5  10  -8   14.79    1.05
   0  11   8    0.25    0.29
   0 -11   8    0.20    0.39
   0  11   8   -0.30    0.40
   0 -11   8    0.77    0.37
  -1  11   8    0.77    0.33
   1 -11   8    1.20    0.44
  -1  11   8    1.00    0.42
   1 -11   8    0.91    0.37
  -1 -11   8    1.34    0.42
  -1 -11   8    1.04    0.48
   1  11   8    0.71    0.41
   1  11   8    0.90    0.21
  -2  11   8   -0.31    0.36
   2  11  -8   -0.22    0.40
   2 -11   8   -0.06    0.38
   2 -11   8   -0.26    0.35
  -2  11  -8    0.29    0.39
   2 -11  -8    0.01    0.37
   2  11   8    0.19    0.46
  -2 -11   8   -0.38    0.37
  -3  11   8    3.04    0.57
   3 -11   8    3.40    0.51
   3  11  -8    4.42    0.68
   3 -11   8    3.14    0.58
  -3 -11   8    4.87    0.72
  -3  11  -8    3.57    0.60
   3  11   8    3.97    0.62
  -4  11   8    1.17    0.47
  -4  11   8    0.20    0.45
   4  11  -8   -0.19    0.52
   4 -11   8   -0.01    0.32
   4 -11   8   -0.02    0.46
  -4  11  -8    0.14    0.45
   4  11   8    0.03    0.43
   0  12   8   20.77    1.21
   0 -12   8   19.20    1.21
   0 -12   8   19.33    1.11
   0  12   8   20.71    0.94
   1 -12   8    0.14    0.44
  -1  12   8    0.44    0.43
  -1  12   8    0.14    0.37
   1 -12   8    0.61    0.42
  -1 -12   8    0.01    0.48
   1  12   8   -0.06    0.21
  -1 -12   8    0.46    0.37
   1  12   8    0.08    0.44
   2 -12   8   16.24    1.04
   2 -12   8   16.39    1.04
  -2  12   8   17.20    1.01
   2  12   8   19.49    1.26
  -2 -12   8   16.17    1.16
   3  12  -8   -0.22    0.45
  -3  12   8    0.10    0.42
   3 -12   8    0.36    0.44
  -3  12  -8   -0.32    0.42
   3  12   8   -0.26    0.51
   0   0  -9    0.06    0.19
   0   0   9    0.07    0.08
   0   0   9    0.11    0.17
   1   0   9    2.92    0.37
  -1   0  -9    2.19    0.31
   1   0  -9    2.38    0.35
  -1   0   9    2.56    0.32
  -1   0   9    2.65    0.27
  -2   0  -9   13.69    0.73
   2   0   9   13.62    0.74
  -2   0   9   13.43    0.73
   2   0  -9   12.52    0.72
  -2   0   9   12.62    0.65
  -3   0   9   19.43    0.95
   3   0   9   21.87    0.87
  -3   0   9   21.46    0.97
   3   0  -9   21.80    1.01
  -3   0  -9   22.47    0.98
   3   0   9   21.81    0.98
   4   0   9    0.08    0.23
  -4   0   9   -0.14    0.23
   4   0   9    0.18    0.24
  -4   0  -9    0.22    0.22
  -4   0   9    0.19    0.23
   4   0  -9    0.31    0.28
  -5   0   9    5.37    0.53
  -5   0   9    5.33    0.59
   5   0  -9    5.63    0.54
   5   0   9    5.95    0.58
   5   0   9    6.36    0.55
  -6   0   9    2.20    0.43
   6   0   9    3.02    0.47
  -6   0   9    1.01    0.39
  -6   0  -9    2.31    0.41
   6   0  -9    1.89    0.38
   7   0  -9    5.14    0.59
  -7   0  -9    5.81    0.56
  -7   0   9    5.32    0.59
   7   0   9    5.74    0.65
   8   0   9    3.95    0.63
  -8   0   9    4.18    0.62
   8   0  -9    3.87    0.59
   0  -1   9   21.00    0.95
   0   1   9   20.08    0.94
   0   1  -9   22.51    0.98
   0  -1   9   22.84    0.74
   0  -1   9   23.33    0.74
   0  -1  -9   20.47    0.97
  -1   1   9    8.75    0.44
   1  -1   9    8.87    0.57
  -1  -1  -9    8.10    0.56
  -1   1   9    8.39    0.57
   1   1  -9    9.11    0.61
  -1   1  -9    9.08    0.56
   1  -1  -9    8.48    0.59
  -1  -1   9    8.02    0.46
   1   1   9   10.09    0.59
  -1  -1   9    9.54    0.58
  -2  -1  -9    0.94    0.26
  -2   1   9    1.25    0.26
   2   1  -9    0.94    0.29
   2  -1   9    1.11    0.28
  -2   1   9    1.04    0.24
  -2  -1   9    1.67    0.27
  -2  -1   9    1.40    0.29
  -2   1  -9    1.62    0.29
   2  -1  -9    1.05    0.27
   2   1   9    0.98    0.24
   3  -1   9    8.95    0.52
  -3   1   9    9.18    0.59
  -3  -1  -9    9.45    0.62
  -3   1   9    9.06    0.61
   3   1  -9   10.16    0.64
   3  -1   9    9.79    0.64
  -3   1  -9    9.37    0.59
  -3  -1   9    9.97    0.63
   3   1   9    9.32    0.52
  -3  -1   9    8.77    0.60
   3   1   9   10.45    0.64
   3  -1  -9   10.41    0.68
  -4   1   9   27.29    1.17
   4   1  -9   25.90    1.17
   4  -1   9   24.28    1.14
   4  -1   9   27.71    1.07
  -4  -1  -9   25.03    1.09
  -4   1   9   23.76    1.13
   4   1   9   24.40    1.00
  -4   1  -9   25.37    1.04
   4   1   9   24.30    1.08
  -4  -1   9   25.32    1.14
   4  -1  -9   23.49    1.11
  -4  -1   9   25.48    1.10
  -5  -1  -9    2.60    0.39
   5   1  -9    2.54    0.40
   5  -1   9    3.23    0.42
  -5   1   9    2.76    0.46
  -5   1   9    3.71    0.46
  -5  -1   9    4.09    0.49
   5   1   9    2.91    0.41
  -5  -1   9    3.03    0.44
   5   1   9    2.38    0.38
   5  -1  -9    2.80    0.43
   6  -1   9   21.84    1.06
  -6  -1  -9   20.96    0.99
  -6   1   9   20.40    1.08
   6   1  -9   19.74    1.05
  -6   1   9   20.12    1.13
  -6  -1   9   22.58    1.16
   6   1   9   19.91    1.02
  -6  -1   9   21.72    1.08
   6  -1  -9   22.22    1.10
  -6   1  -9   20.32    1.03
  -7   1   9    4.97    0.65
   7   1  -9    4.76    0.60
   7  -1   9    4.66    0.58
  -7   1   9    6.21    0.66
  -7  -1   9    5.53    0.62
   7   1   9    4.10    0.58
  -7   1  -9    4.87    0.56
   7  -1  -9    4.91    0.55
   8   1  -9   16.41    1.04
  -8   1   9   16.48    1.04
   8  -1   9   15.82    1.05
   8  -1  -9   14.55    0.92
  -8  -1   9   16.37    1.01
  -8   1  -9   15.69    1.00
   8   1   9   16.14    1.06
   0  -2   9   41.31    1.28
   0   2  -9   39.22    1.48
   0  -2  -9   39.67    1.52
   0   2   9   38.91    1.46
   0  -2   9   41.32    1.50
  -1   2   9   59.98    1.82
   1   2  -9   59.82    2.03
  -1  -2  -9   56.42    2.02
   1  -2   9   58.52    2.02
  -1   2   9   60.73    2.00
  -1   2  -9   58.24    1.98
   1  -2  -9   59.68    2.05
  -1  -2   9   59.14    1.89
   1   2   9   59.51    1.97
  -1  -2   9   58.48    1.98
   2  -2   9   12.13    0.73
  -2   2   9   11.37    0.69
   2   2  -9   12.46    0.72
  -2   2   9   13.17    0.63
  -2  -2  -9   12.40    0.70
   2  -2  -9   12.15    0.73
  -2  -2   9   12.36    0.66
  -2   2  -9   12.59    0.66
   2   2   9   13.34    0.71
  -2  -2   9   12.24    0.69
   3  -2   9   27.06    1.03
  -3   2   9   26.52    1.12
   3  -2   9   28.29    1.19
  -3  -2  -9   27.01    1.14
   3   2  -9   27.44    1.18
  -3   2   9   23.82    1.12
  -3   2  -9   28.20    1.11
  -3  -2   9   27.86    1.18
  -3  -2   9   27.61    1.17
   3  -2  -9   28.48    1.22
   3   2   9   28.98    1.17
  -4   2   9   21.30    1.00
   4   2  -9   19.62    0.98
  -4   2   9   20.58    1.00
   4  -2   9   18.76    0.99
   4  -2   9   20.21    0.91
   4   2   9   20.74    0.96
   4   2   9   22.52    1.00
  -4  -2   9   20.60    1.02
  -4  -2   9   19.69    0.96
   4  -2  -9   20.21    1.01
   5   2  -9    0.70    0.31
  -5   2   9    1.00    0.33
   5  -2   9    1.10    0.30
  -5   2   9    0.03    0.30
  -5  -2   9    0.08    0.28
   5   2   9    0.42    0.25
  -5  -2   9    0.50    0.31
   5   2   9    1.22    0.32
   5  -2  -9    0.90    0.34
  -5   2  -9    1.04    0.32
   5   2   9    0.57    0.29
   6  -2   9    6.72    0.62
  -6   2   9    7.04    0.70
   6   2  -9    6.63    0.61
  -6   2   9    5.57    0.59
  -6   2  -9    7.09    0.62
  -6  -2   9    7.98    0.66
   6  -2  -9    6.83    0.61
  -6  -2   9    6.94    0.70
   6   2   9    7.93    0.63
  -7   2   9   -0.05    0.35
  -7   2   9    0.22    0.40
   7   2  -9    0.28    0.37
   7  -2   9   -0.18    0.38
  -7   2  -9   -0.25    0.32
   7  -2  -9    0.47    0.33
   7   2   9    0.45    0.37
  -7  -2   9    0.06    0.35
   8  -2   9    2.57    0.53
   8   2  -9    1.98    0.50
  -8   2   9    2.07    0.52
   8   2   9    2.47    0.55
  -8   2  -9    3.32    0.56
   0  -3   9   11.68    0.54
   0  -3   9   11.66    0.69
   0  -3  -9   11.95    0.73
   0   3   9   11.81    0.66
   0   3  -9   12.32    0.70
   1  -3   9   56.04    1.55
   1  -3   9   53.22    1.90
  -1  -3  -9   54.30    1.93
  -1   3   9   49.98    1.84
   1   3  -9   56.29    1.91
  -1   3   9   55.63    1.70
  -1  -3   9   51.70    1.87
  -1  -3   9   57.20    1.81
  -1   3  -9   56.80    1.87
   1  -3  -9   52.57    1.94
   1   3   9   55.68    1.86
  -2   3   9   35.03    1.25
   2  -3   9   34.13    1.37
  -2   3   9   33.54    1.34
  -2  -3  -9   32.82    1.37
   2   3  -9   33.33    1.36
   2  -3   9   33.94    1.19
  -2   3  -9   36.60    1.30
  -2  -3   9   32.00    1.29
  -2  -3   9   33.82    1.31
   2  -3  -9   33.69    1.37
   2   3   9   33.14    1.29
   3   3  -9   39.98    1.53
  -3   3   9   38.63    1.46
  -3   3   9   37.50    1.50
   3  -3   9   38.06    1.37
   3  -3   9   39.79    1.54
  -3  -3   9   38.08    1.44
   3   3   9   38.27    1.41
   3  -3  -9   39.40    1.51
   3   3   9   35.73    1.43
  -3  -3   9   36.44    1.45
   4  -3   9   50.14    1.87
   4  -3   9   51.28    1.75
  -4   3   9   49.66    1.85
   4   3  -9   46.41    1.82
  -4  -3  -9   51.01    1.71
  -4   3   9   49.70    1.84
   4  -3  -9   47.94    1.83
  -4  -3   9   51.26    1.81
   4   3   9   50.15    1.77
   4   3   9   48.84    1.81
  -4  -3   9   53.34    1.92
   5   3  -9    6.94    0.61
  -5   3   9    6.07    0.61
  -5   3   9    4.81    0.55
   5  -3   9    6.22    0.51
  -5  -3  -9    5.27    0.50
   5  -3  -9    6.26    0.56
  -5   3  -9    6.53    0.58
  -5  -3   9    5.32    0.63
   5   3   9    5.99    0.54
  -5  -3   9    6.33    0.57
   6   3  -9    9.91    0.77
  -6   3   9   11.18    0.86
  -6   3   9   11.04    0.82
   6  -3   9   10.43    0.76
  -6  -3  -9   12.88    0.80
   6  -3  -9   11.44    0.78
  -6  -3   9   12.05    0.85
  -6   3  -9   10.50    0.76
   6   3   9   11.27    0.75
  -6  -3   9   10.83    0.75
  -7   3   9    4.27    0.59
  -7  -3  -9    4.26    0.59
  -7   3   9    5.24    0.71
   7   3  -9    4.38    0.60
   7  -3   9    3.66    0.53
   7  -3  -9    4.94    0.58
  -7   3  -9    4.59    0.61
   8  -3   9    1.70    0.50
  -8   3   9    1.08    0.48
  -8  -3  -9    1.17    0.54
   8   3  -9    2.07    0.54
  -8   3  -9    1.59    0.49
   0   4  -9   10.46    0.62
   0  -4  -9    9.98    0.68
   0   4   9    9.99    0.62
   0  -4   9   10.78    0.66
   0  -4   9   10.32    0.54
   1   4  -9   26.40    1.12
  -1  -4  -9   26.59    1.17
  -1   4   9   27.83    0.96
  -1   4   9   24.72    1.08
   1  -4   9   25.72    1.15
   1  -4   9   26.48    0.90
   1  -4  -9   27.43    1.20
  -1  -4   9   26.85    1.08
   1   4   9   27.81    1.10
  -1   4  -9   25.54    1.08
  -1  -4   9   28.39    1.16
  -2   4   9    1.14    0.31
   2  -4   9    0.69    0.27
  -2   4   9    1.15    0.25
   2  -4   9    1.16    0.27
   2   4  -9    0.72    0.26
  -2  -4   9    1.07    0.29
   2   4   9    1.55    0.30
  -2   4  -9    1.58    0.29
   2  -4  -9    0.92    0.31
   2   4   9    0.88    0.27
  -2  -4   9    1.67    0.30
   3  -4   9    4.88    0.52
   3  -4   9    6.53    0.48
  -3   4   9    5.51    0.51
   3   4  -9    7.10    0.57
  -3   4   9    4.97    0.48
  -3  -4   9    7.19    0.54
   3  -4  -9    6.50    0.56
  -3  -4   9    5.94    0.55
   3   4   9    6.16    0.53
   3   4   9    7.34    0.54
  -4   4   9   21.01    1.05
  -4   4   9   20.82    1.06
   4   4  -9   23.97    1.10
   4  -4   9   23.21    1.01
  -4  -4   9   24.37    1.08
   4   4   9   23.80    1.11
  -4  -4   9   24.34    1.18
   4  -4  -9   24.76    1.15
   5   4  -9    1.80    0.40
  -5  -4  -9    1.83    0.38
  -5   4   9    2.27    0.43
   5  -4   9    1.65    0.38
  -5   4   9    1.24    0.38
  -5  -4   9    2.34    0.40
  -5   4  -9    1.61    0.39
   5   4   9    1.51    0.36
   5  -4  -9    1.66    0.39
  -5  -4   9    2.17    0.45
  -6   4   9    7.77    0.75
  -6  -4  -9    7.53    0.67
  -6   4   9    7.57    0.69
   6  -4   9    6.31    0.63
   6   4  -9    6.83    0.69
  -6  -4   9    7.17    0.77
  -6   4  -9    8.05    0.71
   6  -4  -9    8.38    0.67
   6   4   9    6.94    0.63
  -7   4   9    1.94    0.55
   7   4  -9    2.11    0.47
  -7   4   9    2.30    0.50
   7  -4   9    1.70    0.48
  -7  -4  -9    2.40    0.54
  -7   4  -9    1.90    0.45
   8   4  -9    1.00    0.46
  -8   4   9    0.57    0.47
   8  -4   9    1.50    0.52
  -8  -4  -9    1.50    0.55
  -8   4  -9    1.74    0.56
   0   5  -9    8.98    0.60
   0   5   9    7.94    0.56
   0  -5   9    8.24    0.51
   0  -5   9    8.93    0.62
   0  -5  -9    8.87    0.65
   1  -5   9    3.04    0.44
   1  -5   9    3.47    0.32
   1   5  -9    3.24    0.40
  -1   5   9    3.15    0.40
  -1   5   9    3.65    0.32
  -1  -5   9    2.45    0.35
  -1   5  -9    3.54    0.39
   1   5   9    3.19    0.34
   1  -5  -9    3.27    0.43
  -1  -5   9    3.40    0.42
  -2   5   9   10.18    0.65
   2  -5   9    9.08    0.38
   2  -5   9   10.52    0.72
  -2   5   9   10.27    0.58
   2  -5   9   10.06    0.59
   2   5  -9   10.16    0.67
   2  -5  -9    8.84    0.66
  -2  -5   9    9.11    0.61
  -2  -5   9    8.33    0.58
   2   5   9    9.70    0.60
   2   5   9    8.51    0.64
  -3   5   9    7.85    0.64
   3  -5   9    8.00    0.66
   3   5  -9    6.36    0.57
   3  -5   9    8.08    0.58
  -3   5   9    7.03    0.58
  -3  -5   9    8.59    0.61
   3   5   9    6.84    0.62
  -3  -5   9    7.35    0.64
   3   5   9    7.42    0.54
   3  -5  -9    7.73    0.61
  -4   5   9    2.78    0.43
   4  -5   9    2.25    0.37
  -4   5   9    3.17    0.44
   4   5  -9    2.95    0.47
  -4  -5   9    2.14    0.41
   4   5   9    2.49    0.42
  -4  -5   9    2.48    0.39
   4  -5  -9    2.12    0.37
  -4   5  -9    2.13    0.40
  -5   5   9    9.24    0.73
   5  -5   9    8.62    0.68
   5   5  -9    9.96    0.77
  -5   5   9    9.28    0.76
  -5  -5  -9   10.15    0.71
   5  -5  -9    8.93    0.72
   5   5   9   10.28    0.76
  -5  -5   9   11.51    0.88
  -5   5  -9    8.71    0.74
   6  -5   9    0.87    0.44
  -6   5   9    0.89    0.41
  -6   5   9    0.89    0.41
   6   5  -9    1.50    0.45
  -6  -5  -9    0.91    0.39
   6   5   9    1.31    0.46
   6  -5  -9    1.28    0.43
  -6   5  -9    0.48    0.37
   7   5  -9   13.29    0.98
  -7   5   9   14.42    1.05
  -7  -5  -9   14.09    0.96
   7  -5   9   13.56    0.93
  -7   5   9   14.36    1.10
  -7   5  -9   13.08    0.99
   7   5   9   11.87    0.90
  -8   5   9    1.53    0.55
  -8  -5  -9    2.16    0.56
   8   5  -9    1.62    0.52
   8  -5   9    1.20    0.54
  -8   5  -9    2.37    0.58
   0  -6  -9    0.84    0.28
   0   6   9    0.59    0.24
   0   6  -9    0.35    0.27
   0  -6   9    0.44    0.29
   0  -6   9    0.29    0.21
   1  -6   9    0.30    0.19
   1   6  -9    0.12    0.28
  -1   6   9    0.17    0.20
  -1   6   9    0.23    0.27
   1  -6   9    0.23    0.28
  -1  -6   9    0.58    0.27
  -1  -6   9    0.22    0.23
   1   6   9    0.32    0.23
   1   6   9    0.17    0.24
  -1   6  -9   -0.03    0.25
   1  -6  -9    0.23    0.27
   2  -6   9    6.57    0.39
   2   6  -9    5.92    0.56
  -2   6   9    7.48    0.59
  -2   6   9    7.11    0.52
   2  -6   9    6.44    0.58
   2  -6   9    6.53    0.51
   2   6   9    6.98    0.53
  -2  -6   9    8.17    0.61
   2   6   9    6.25    0.59
   2  -6  -9    7.31    0.63
  -2  -6   9    7.55    0.63
  -3   6   9    0.60    0.29
   3  -6   9    0.75    0.28
  -3   6   9    1.01    0.31
   3   6  -9    0.49    0.30
   3  -6  -9    0.45    0.31
  -3  -6   9    1.16    0.37
   3   6   9    0.74    0.29
  -3  -6   9    0.60    0.33
  -4   6   9   15.63    0.93
   4  -6   9   17.49    0.92
  -4   6   9   18.87    0.98
   4   6  -9   16.95    0.98
   4  -6  -9   17.50    0.98
  -4  -6   9   19.76    1.07
   4   6   9   18.73    1.03
  -4   6  -9   18.33    1.00
  -5   6   9    0.78    0.37
   5   6  -9    1.94    0.44
  -5   6   9    1.74    0.43
   5  -6   9    1.81    0.37
  -5  -6  -9    1.69    0.41
  -5  -6   9    1.51    0.47
   5   6   9    1.32    0.42
   5  -6  -9    1.35    0.33
  -5   6  -9    1.76    0.41
   6  -6   9    5.28    0.58
  -6   6   9    6.15    0.68
   6   6  -9    6.99    0.70
  -6   6   9    6.87    0.75
  -6  -6  -9    6.36    0.62
   6   6   9    6.58    0.69
  -6   6  -9    6.42    0.69
  -7  -6  -9    0.64    0.42
   7   6  -9    0.41    0.44
  -7   6   9   -0.17    0.44
  -7   6   9    0.20    0.44
   7  -6   9    0.85    0.46
  -7   6  -9    0.24    0.41
   7   6   9   -0.12    0.45
   0   7  -9    0.07    0.26
   0   7   9   -0.02    0.13
   0  -7   9   -0.23    0.27
   0   7   9    0.16    0.24
   0  -7   9   -0.34    0.23
  -1   7   9   -0.02    0.20
   1  -7   9    0.40    0.24
   1   7  -9    0.20    0.27
   1  -7   9    0.19    0.32
  -1   7   9    0.01    0.21
   1  -7  -9    0.13    0.27
   1   7   9    0.02    0.30
  -1  -7   9    0.25    0.29
  -1  -7   9   -0.09    0.26
  -2   7   9    1.60    0.34
   2  -7   9    2.04    0.30
   2  -7   9    2.91    0.45
  -2   7   9    2.19    0.37
   2  -7   9    1.96    0.35
   2   7  -9    2.35    0.40
   2   7   9    2.49    0.44
   2  -7  -9    2.50    0.42
  -2  -7   9    2.52    0.41
  -2  -7   9    1.79    0.39
  -3   7   9   12.30    0.75
   3  -7   9   12.56    0.76
  -3   7   9   11.24    0.75
   3  -7   9   12.17    0.52
   3   7  -9   11.96    0.80
   3  -7  -9   13.92    0.84
  -3   7  -9   12.22    0.79
   3   7   9   12.32    0.82
  -3  -7   9   11.47    0.80
   4  -7   9    2.09    0.43
  -4   7   9    1.67    0.41
  -4   7   9    1.75    0.39
   4   7  -9    1.79    0.43
  -4  -7   9    2.50    0.53
  -4   7  -9    1.92    0.43
   4  -7  -9    1.75    0.41
   4   7   9    2.29    0.44
   5  -7   9   21.90    1.14
  -5   7   9   23.40    1.23
   5   7  -9   24.35    1.26
  -5   7   9   23.29    1.22
   5   7   9   27.26    1.34
  -5   7  -9   24.77    1.30
  -5  -7   9   27.66    1.43
  -6   7   9    1.54    0.50
  -6  -7  -9    0.47    0.41
   6  -7   9    0.06    0.43
  -6   7   9    1.21    0.51
   6   7  -9    1.03    0.43
  -6   7  -9    1.13    0.45
   6   7   9    1.64    0.53
   7   7  -9    8.27    0.83
  -7   7   9    7.88    0.89
   7  -7   9    7.62    0.77
  -7   7   9    7.37    0.91
  -7  -7  -9    9.32    0.82
   7   7   9    7.67    0.81
  -7   7  -9    5.46    0.72
   0   8  -9   26.07    1.15
   0  -8   9   23.53    1.16
   0  -8   9   25.04    1.14
   0   8   9   26.69    1.24
   0   8   9   23.79    0.84
   1  -8   9    0.33    0.29
   1   8  -9    0.46    0.34
   1  -8   9    0.49    0.31
  -1   8   9    0.72    0.30
  -1   8   9    0.82    0.26
   1  -8   9    0.75    0.30
  -1  -8   9    0.79    0.31
   1  -8  -9    0.83    0.33
   1   8   9    0.37    0.33
  -1  -8   9    0.31    0.31
   2  -8   9   25.38    1.04
  -2   8   9   24.06    1.08
  -2   8   9   23.05    1.14
   2   8  -9   25.16    1.21
   2  -8   9   26.35    1.13
   2   8   9   25.09    1.26
   2  -8  -9   25.88    1.24
  -2  -8   9   26.03    1.24
  -2   8  -9   24.26    1.20
   3  -8   9    6.46    0.45
   3   8  -9    5.86    0.65
  -3   8   9    6.69    0.64
  -3   8   9    6.68    0.64
   3  -8   9    8.05    0.63
  -3  -8   9    7.03    0.72
   3   8   9    6.96    0.68
   3  -8  -9    8.38    0.69
  -3   8  -9    7.98    0.67
  -4   8   9    2.96    0.49
  -4   8   9    3.40    0.54
   4   8  -9    2.51    0.52
   4  -8   9    3.07    0.49
  -4  -8   9    2.96    0.57
  -4   8  -9    2.61    0.49
   4   8   9    2.15    0.47
   4  -8  -9    3.71    0.48
  -5   8   9    6.60    0.77
   5  -8   9    5.56    0.66
   5   8  -9    8.17    0.76
  -5   8   9    6.02    0.71
   5   8   9    6.63    0.73
  -5   8  -9    6.66    0.73
  -6   8   9    2.56    0.62
   6  -8   9    2.21    0.48
   6   8  -9    2.73    0.65
  -6   8   9    2.11    0.58
   6   8   9    2.84    0.58
  -6   8  -9    1.63    0.53
   0  -9   9    0.73    0.33
   0   9   9    1.38    0.40
   0  -9   9    1.15    0.42
   0   9   9    1.09    0.22
   1  -9   9    0.20    0.30
   1   9  -9    0.52    0.38
  -1   9   9    0.46    0.25
   1  -9   9   -0.16    0.31
  -1  -9   9   -0.13    0.32
   1  -9  -9    0.59    0.37
  -1   9  -9   -0.16    0.31
   1   9   9    0.90    0.39
  -2   9   9    1.94    0.42
   2  -9   9    2.90    0.40
   2  -9   9    1.90    0.40
  -2   9   9    2.07    0.40
   2   9  -9    2.11    0.48
   2   9   9    2.83    0.54
  -2  -9   9    2.33    0.48
   2  -9  -9    2.37    0.47
  -2   9  -9    2.36    0.44
   3  -9   9   15.39    0.76
  -3   9   9   16.91    0.99
  -3   9   9   15.61    0.92
   3   9  -9   14.07    0.98
   3  -9   9   15.24    0.91
  -3  -9   9   18.98    1.12
   3   9   9   17.75    1.10
   3  -9  -9   17.65    1.03
  -3   9  -9   15.36    0.96
   4  -9   9    6.74    0.44
   4  -9   9    6.91    0.63
   4   9  -9    6.77    0.76
  -4   9   9    6.97    0.73
  -4   9   9    6.83    0.71
  -4  -9   9    8.23    0.85
  -4   9  -9    6.02    0.69
   4   9   9    6.07    0.72
   5  -9   9   13.45    0.92
  -5   9   9    9.92    0.93
  -5   9   9   10.20    0.92
   5   9  -9   10.17    0.91
   5   9   9   13.41    1.01
  -5   9  -9   11.99    0.96
   0  10   9    3.96    0.60
   0  10   9    4.25    0.35
   0 -10   9    4.47    0.61
  -1  10   9    3.05    0.42
   1 -10   9    2.39    0.47
  -1 -10   9    2.60    0.52
   1  10   9    2.63    0.52
   1 -10  -9    1.86    0.47
  -1  10  -9    2.10    0.44
   2 -10   9    3.71    0.49
   2  10  -9    4.48    0.63
   2 -10   9    2.57    0.48
  -2  10   9    3.57    0.49
   2  10   9    3.25    0.62
  -2  10  -9    4.35    0.56
  -2 -10   9    3.24    0.56
   2 -10  -9    4.60    0.58
   3 -10   9    3.13    0.44
  -3  10   9    2.99    0.53
   3 -10   9    3.55    0.51
  -3  10   9    2.90    0.53
   3  10  -9    3.47    0.59
  -3  10  -9    3.05    0.51
   3  10   9    3.54    0.59
  -3 -10   9    3.30    0.63
   3 -10  -9    3.05    0.53
  -4  10   9   -0.34    0.42
   4 -10   9    0.47    0.30
  -4  10   9    0.69    0.45
   4  10  -9    0.38    0.45
   4 -10   9   -0.71    0.32
  -4  10  -9    0.14    0.36
   4  10   9   -0.14    0.43
  -4 -10   9    0.82    0.50
   5  10  -9    3.87    0.67
   5 -10   9    5.32    0.69
  -5  10  -9    3.87    0.64
   0  11   9    0.35    0.25
   0  11   9   -0.16    0.43
   0 -11   9   -0.21    0.38
  -1  11   9   -0.18    0.29
   1 -11   9   -0.52    0.35
   1  11   9   -0.84    0.43
   1 -11  -9   -0.85    0.38
  -1 -11   9    0.04    0.43
   2 -11   9    2.42    0.50
   2 -11   9    1.44    0.46
  -2  11   9    2.64    0.47
   2 -11  -9    1.58    0.42
  -2 -11   9    1.70    0.55
   2  11   9    2.17    0.62
  -2  11  -9    2.48    0.50
   3 -11   9    0.85    0.40
   3  11  -9    1.06    0.57
   3 -11   9    0.82    0.45
  -3  11   9    0.65    0.45
  -3 -11   9    0.39    0.48
  -3  11  -9    1.23    0.45
   3  11   9    0.63    0.51
   0  12   9    2.72    0.35
   0  12   9    2.18    0.58
   0 -12   9    3.40    0.65
  -1  12   9    1.30    0.39
   1 -12   9    1.42    0.52
  -1 -12   9    2.61    0.62
   1  12   9    2.46    0.62
   1 -12  -9    1.77    0.56
   0   0  10   29.66    1.21
   0   0 -10   27.89    1.22
   1   0 -10    0.28    0.26
  -1   0 -10    0.30    0.25
  -1   0  10    0.36    0.17
  -1   0  10    0.21    0.21
   1   0  10    0.25    0.25
  -2   0  10    3.56    0.42
   2   0 -10    4.20    0.48
   2   0  10    2.82    0.41
  -2   0 -10    4.30    0.46
  -2   0  10    3.34    0.36
   3   0  10   12.68    0.76
  -3   0 -10   12.29    0.73
   3   0 -10   13.74    0.81
  -3   0  10   11.67    0.74
  -3   0  10   11.96    0.70
   4   0  10   10.73    0.71
   4   0 -10    7.56    0.64
  -4   0 -10    9.76    0.66
  -4   0  10    8.39    0.67
  -4   0  10    8.68    0.65
  -5   0  10   10.65    0.74
   5   0  10    9.79    0.71
  -5   0  10   11.06    0.75
   5   0 -10   10.48    0.77
  -6   0 -10   12.46    0.81
  -6   0  10   13.09    0.87
  -6   0  10   11.65    0.85
   6   0  10   14.23    0.84
   6   0 -10   13.43    0.86
   7   0 -10    5.11    0.58
  -7   0  10    4.13    0.62
  -7   0  10    5.29    0.65
   7   0  10    3.85    0.58
  -7   0 -10    3.95    0.53
  -8   0  10    4.24    0.66
   8   0  10    3.93    0.65
   8   0 -10    5.61    0.69
   0  -1 -10   41.78    1.60
   0  -1  10   44.04    1.22
   0   1  10   38.96    1.53
   0   1 -10   41.00    1.58
   0  -1  10   43.02    1.59
   1  -1  10   13.71    0.78
   1   1 -10   14.81    0.83
  -1  -1 -10   14.19    0.81
  -1   1  10   15.59    0.61
  -1   1  10   14.61    0.79
   1   1  10   13.98    0.79
  -1  -1  10   15.06    0.79
  -1   1 -10   13.77    0.76
   1  -1 -10   13.20    0.80
  -1  -1  10   15.16    0.65
   2  -1  10    8.60    0.63
  -2   1  10    8.45    0.65
  -2   1  10    9.74    0.55
   2   1 -10    8.63    0.63
  -2  -1 -10    9.29    0.63
  -2  -1  10    8.03    0.58
  -2   1 -10    8.21    0.58
   2   1  10    8.02    0.61
   2  -1 -10    7.62    0.61
  -2  -1  10    8.82    0.54
  -3  -1 -10   10.71    0.70
  -3   1  10   10.13    0.69
   3  -1  10   10.21    0.71
   3   1 -10    9.51    0.67
  -3   1  10    9.50    0.62
  -3  -1  10    8.99    0.61
   3   1  10    9.82    0.66
   3  -1 -10   10.17    0.69
  -3   1 -10    9.30    0.63
  -3  -1  10    9.35    0.64
  -4   1  10    0.58    0.30
   4  -1  10    0.69    0.31
  -4   1  10    0.56    0.27
  -4  -1 -10    0.81    0.33
   4   1 -10    0.48    0.30
   4  -1 -10    0.69    0.28
  -4  -1  10    0.20    0.28
  -4  -1  10    0.87    0.30
   4   1  10    0.46    0.31
  -5   1  10    7.92    0.72
   5  -1  10    9.59    0.72
   5   1 -10    8.84    0.71
  -5   1  10    9.00    0.74
   5  -1  10    9.38    0.65
   5   1  10    9.20    0.70
  -5  -1  10    8.26    0.68
   5  -1 -10    8.60    0.71
  -5  -1  10    9.90    0.77
  -6   1  10    0.61    0.36
  -6  -1 -10    0.65    0.33
   6   1 -10    0.45    0.33
  -6   1  10    0.73    0.35
   6  -1  10    1.03    0.40
  -6   1 -10    0.88    0.33
   6   1  10    0.40    0.37
  -6  -1  10    0.82    0.36
   6  -1 -10    0.46    0.36
  -6  -1  10    0.72    0.44
  -7   1  10   22.45    1.31
  -7   1  10   22.84    1.26
   7   1 -10   22.06    1.21
   7  -1  10   25.09    1.24
  -7  -1  10   21.69    1.30
   7   1  10   23.49    1.20
  -7   1 -10   23.29    1.19
  -7  -1  10   22.99    1.19
   7  -1 -10   22.31    1.20
   8  -1  10    4.60    0.69
   8   1 -10    5.22    0.64
  -8   1  10    4.53    0.65
  -8   1 -10    4.06    0.59
  -8  -1  10    5.20    0.67
   8   1  10    5.69    0.72
   8  -1 -10    4.67    0.65
   0  -2  10   16.85    0.88
   0  -2  10   19.94    0.67
   0   2  10   18.65    0.89
   0  -2 -10   17.32    0.94
   0   2 -10   18.53    0.91
  -1   2  10    0.11    0.22
  -1  -2 -10    0.23    0.24
  -1   2  10    0.12    0.15
   1   2 -10    0.18    0.26
   1  -2  10    0.20    0.26
  -1   2 -10   -0.02    0.24
   1  -2 -10    0.05    0.26
  -1  -2  10    0.22    0.25
  -1  -2  10    0.03    0.16
   1   2  10    0.12    0.23
  -2   2  10    9.11    0.62
  -2   2  10    8.67    0.53
   2  -2  10    9.61    0.66
   2   2 -10    8.42    0.64
  -2  -2 -10    9.03    0.66
  -2  -2  10    9.93    0.66
   2  -2 -10    9.29    0.67
  -2  -2  10    8.69    0.57
  -2   2 -10    8.42    0.59
   2   2  10    9.31    0.61
   3  -2  10    4.12    0.50
  -3   2  10    3.45    0.42
  -3  -2 -10    3.35    0.43
   3   2 -10    4.21    0.49
  -3   2  10    4.06    0.42
   3   2  10    3.64    0.46
   3  -2 -10    3.84    0.48
  -3   2 -10    3.86    0.41
  -3  -2  10    3.11    0.41
  -3  -2  10    3.49    0.45
  -4   2  10    9.66    0.72
   4  -2  10   10.46    0.74
  -4  -2 -10   10.16    0.69
  -4   2  10   10.78    0.72
   4   2 -10   10.76    0.73
   4   2  10   11.76    0.74
   4  -2 -10   10.55    0.74
  -4  -2  10   10.32    0.70
  -4  -2  10   10.55    0.72
   5  -2  10    1.41    0.36
  -5   2  10    1.76    0.40
  -5  -2 -10    1.27    0.37
   5   2 -10    1.77    0.39
  -5   2  10    1.60    0.39
   5   2  10    1.74    0.38
  -5  -2  10    1.82    0.38
  -5  -2  10    1.26    0.38
   5  -2 -10    1.55    0.39
   6   2 -10    4.69    0.58
  -6   2  10    5.58    0.62
  -6   2  10    4.98    0.65
   6  -2  10    4.32    0.56
   6  -2 -10    4.50    0.55
  -6  -2  10    4.35    0.56
  -6  -2  10    4.46    0.61
  -6   2 -10    4.69    0.57
   7  -2  10   13.25    0.88
   7   2 -10   12.98    0.95
  -7   2  10   13.20    0.99
  -7   2  10   12.91    1.06
  -7  -2  10   13.17    0.91
  -7   2 -10   12.60    0.88
   7  -2 -10   13.63    0.90
   8  -2  10    7.09    0.78
   8   2 -10    6.02    0.73
  -8   2  10    4.23    0.67
  -8   2 -10    4.96    0.68
   0   3  10   23.34    1.06
   0  -3 -10   23.13    1.13
   0  -3  10   24.18    1.09
   0   3 -10   22.83    1.07
   0  -3  10   25.14    0.87
  -1  -3 -10    0.93    0.28
   1   3 -10    0.35    0.24
  -1   3  10    1.04    0.30
   1  -3  10    0.90    0.31
  -1   3  10    0.43    0.16
  -1  -3  10    0.87    0.24
   1  -3 -10    0.39    0.30
   1   3  10    0.68    0.29
  -1   3 -10    0.77    0.30
  -1  -3  10    0.42    0.26
   2   3 -10    0.33    0.26
  -2   3  10    0.29    0.24
  -2  -3 -10    0.17    0.25
  -2   3  10   -0.22    0.17
   2  -3  10    0.10    0.24
   2   3  10   -0.29    0.22
  -2   3 -10    0.02    0.23
  -2  -3  10   -0.03    0.20
   2  -3 -10    0.13    0.26
  -2  -3  10    0.17    0.27
   3  -3  10    4.29    0.50
   3   3 -10    3.17    0.46
  -3   3  10    3.31    0.45
  -3  -3 -10    3.84    0.47
  -3   3  10    3.56    0.40
  -3  -3  10    4.69    0.50
  -3  -3  10    3.78    0.45
   3   3  10    4.17    0.46
   3  -3 -10    4.40    0.53
  -4   3  10    8.36    0.67
   4  -3  10    6.62    0.63
  -4   3  10    6.65    0.61
   4   3 -10    6.71    0.62
  -4  -3  10    6.78    0.63
  -4  -3  10    7.20    0.61
   4   3  10    7.37    0.60
   4  -3 -10    6.66    0.62
  -5   3  10   16.21    0.96
  -5   3  10   15.59    0.94
   5   3 -10   16.41    0.96
   5  -3  10   16.63    0.89
  -5   3 -10   17.42    0.99
  -5  -3  10   19.04    0.98
   5   3  10   20.13    1.00
  -5  -3  10   15.19    0.97
   5  -3 -10   18.59    1.03
  -6   3  10    1.17    0.46
   6  -3  10    1.91    0.42
   6   3 -10    1.72    0.43
  -6   3  10    2.00    0.48
   6  -3 -10    1.98    0.49
   6   3  10    1.82    0.43
  -6   3 -10    2.66    0.49
  -6  -3  10    1.44    0.43
  -6  -3  10    2.24    0.53
   7  -3  10   12.06    0.88
  -7   3  10   10.33    0.92
   7   3 -10   11.86    0.93
  -7   3  10   11.11    0.93
   7  -3 -10   11.41    0.86
  -7   3 -10   12.37    0.91
   8  -3  10    3.54    0.61
   8   3 -10    2.95    0.60
  -8  -3 -10    3.23    0.65
  -8   3  10    3.85    0.69
  -8   3 -10    3.19    0.60
   0   4  10    5.70    0.53
   0   4 -10    6.04    0.54
   0  -4  10    5.90    0.40
   0  -4 -10    5.87    0.56
   0  -4  10    6.07    0.53
  -1  -4 -10    7.33    0.62
   1  -4  10    7.11    0.59
  -1   4  10    7.24    0.39
   1  -4  10    6.33    0.31
  -1   4  10    4.61    0.48
   1   4 -10    6.85    0.58
   1   4  10    6.94    0.53
  -1  -4  10    7.43    0.62
  -1  -4  10    6.62    0.50
   1  -4 -10    6.81    0.60
  -1   4 -10    6.65    0.54
   2  -4  10    5.87    0.56
  -2   4  10    4.89    0.43
   2   4 -10    4.35    0.48
  -2  -4 -10    4.37    0.54
  -2   4  10    4.60    0.47
   2   4  10    5.45    0.51
  -2   4 -10    5.32    0.48
  -2  -4  10    4.60    0.47
  -2  -4  10    5.44    0.54
   2  -4 -10    5.09    0.54
   3  -4  10    8.80    0.71
   3   4 -10    8.31    0.65
  -3   4  10    6.61    0.59
  -3   4  10    6.16    0.55
  -3  -4  10    7.76    0.64
  -3  -4  10    8.33    0.64
   3  -4 -10    8.40    0.67
   3   4  10    7.56    0.60
  -4   4  10   22.98    1.11
   4  -4  10   24.24    1.21
   4   4 -10   24.02    1.17
  -4   4  10   22.54    1.14
  -4  -4  10   20.62    1.14
   4   4  10   27.43    1.19
  -4  -4  10   23.88    1.11
   4  -4 -10   23.13    1.17
  -5   4  10    0.26    0.34
   5   4 -10    0.21    0.33
  -5   4  10    0.03    0.35
   5  -4  10   -0.15    0.30
   5   4  10   -0.08    0.29
  -5  -4  10   -0.03    0.31
  -5   4 -10    0.01    0.32
   5  -4 -10    0.21    0.29
  -5  -4  10    0.34    0.34
   6  -4  10   11.98    0.81
  -6   4  10   11.92    0.92
  -6   4  10   11.01    0.87
   6   4 -10    9.84    0.82
   6   4  10   12.67    0.86
  -6   4 -10   11.45    0.89
  -6  -4  10   10.48    0.89
   6  -4 -10   10.85    0.80
  -7   4  10    1.56    0.55
  -7   4  10    1.66    0.52
   7   4 -10    1.41    0.52
   7  -4  10    0.94    0.43
  -7   4 -10    1.14    0.46
   0  -5 -10    3.07    0.45
   0  -5  10    3.19    0.35
   0   5 -10    2.58    0.40
   0  -5  10    3.40    0.43
   0   5  10    2.02    0.35
  -1   5  10   40.68    1.56
  -1  -5 -10   40.51    1.67
   1  -5  10   39.50    1.61
   1  -5  10   41.94    1.33
   1   5 -10   41.01    1.59
  -1   5  10   40.40    1.32
   1   5  10   42.05    1.55
  -1  -5  10   42.38    1.63
  -1   5 -10   41.36    1.55
   1  -5 -10   41.14    1.69
  -1  -5  10   40.57    1.52
   2  -5  10    0.08    0.27
  -2   5  10    0.05    0.29
  -2   5  10    0.05    0.21
   2   5 -10   -0.10    0.28
   2  -5 -10   -0.09    0.22
  -2  -5  10    0.12    0.25
   2   5  10    0.10    0.23
  -2  -5  10   -0.23    0.23
   3   5 -10    6.99    0.62
  -3   5  10    6.20    0.55
  -3   5  10    6.78    0.61
   3  -5  10    6.08    0.64
  -3  -5  10    6.83    0.62
   3   5  10    7.09    0.62
  -3  -5  10    6.24    0.60
   3  -5 -10    4.83    0.55
  -4   5  10   17.57    0.99
  -4   5  10   16.54    0.93
   4   5 -10   17.54    0.99
   4   5  10   18.27    1.00
  -4   5 -10   17.00    0.98
  -4  -5  10   17.53    0.94
   4  -5 -10   17.16    0.99
  -4  -5  10   17.27    1.02
  -5   5  10    5.34    0.64
  -5   5  10    5.27    0.60
   5   5 -10    3.99    0.57
   5  -5  10    5.46    0.57
   5  -5 -10    4.88    0.61
   5   5  10    4.41    0.59
  -5   5 -10    5.61    0.64
  -5  -5  10    5.22    0.63
   6   5 -10    9.21    0.81
  -6   5  10    7.94    0.78
   6  -5  10    8.92    0.75
  -6   5  10    7.07    0.76
  -6   5 -10    7.52    0.76
   6   5  10    7.21    0.71
  -6  -5  10    8.33    0.83
   6  -5 -10    7.54    0.72
   7   5 -10    0.88    0.53
   7  -5  10    0.98    0.45
  -7   5  10    1.73    0.57
  -7   5  10    0.66    0.46
  -7   5 -10    1.18    0.47
   0  -6  10   -0.11    0.21
   0  -6 -10    0.46    0.30
   0   6  10    0.40    0.25
   0   6 -10    0.61    0.32
   0  -6  10    0.46    0.31
  -1  -6 -10    5.52    0.59
  -1   6  10    5.84    0.39
   1   6 -10    6.10    0.55
  -1   6  10    6.34    0.53
   1  -6  10    6.04    0.43
   1  -6  10    5.64    0.57
  -1  -6  10    4.38    0.52
   1   6  10    5.74    0.51
  -1  -6  10    5.55    0.53
   1  -6 -10    6.43    0.63
  -2   6  10    5.69    0.47
   2  -6  10    5.73    0.31
  -2   6  10    5.09    0.54
   2  -6  10    4.13    0.56
   2   6 -10    5.66    0.58
   2   6  10    5.61    0.60
   2  -6 -10    5.21    0.59
  -2  -6  10    5.82    0.56
  -2  -6  10    5.11    0.56
  -3   6  10    9.42    0.65
   3  -6  10    9.59    0.79
   3   6 -10   10.27    0.76
  -3   6  10    9.23    0.74
   3   6  10   10.34    0.78
  -3  -6  10   10.29    0.74
   3  -6 -10   10.24    0.79
  -3  -6  10    9.98    0.72
   4   6 -10   20.84    1.13
  -4   6  10   18.09    1.04
  -4   6  10   19.35    1.04
  -4  -6  10   19.54    1.12
   4   6  10   21.18    1.12
   4  -6 -10   20.23    1.08
  -4   6 -10   20.43    1.08
  -5   6  10    3.94    0.58
   5  -6  10    3.02    0.49
  -5   6  10    2.83    0.53
   5   6 -10    3.25    0.55
   5  -6 -10    2.52    0.49
  -5   6 -10    3.03    0.49
  -5  -6  10    2.68    0.59
   5   6  10    2.93    0.56
  -6   6  10   10.34    0.92
   6   6 -10    8.89    0.85
   6  -6  10    8.84    0.77
  -6   6  10    8.51    0.80
  -6  -6  10    7.88    0.87
  -6   6 -10    9.65    0.83
   6   6  10    9.39    0.82
  -7   6  10    0.44    0.53
   7  -6  10    0.68    0.49
  -7   6  10    1.24    0.56
   7   6 -10    0.97    0.51
   7   6  10    0.36    0.42
  -7   6 -10    0.85    0.58
   0  -7  10    0.05    0.27
   0  -7 -10   -0.14    0.29
   0   7  10   -0.01    0.27
   0   7 -10    0.25    0.30
   0  -7  10    0.22    0.27
  -1   7  10    5.44    0.41
   1  -7  10    4.81    0.57
   1   7 -10    6.20    0.59
   1  -7  10    5.27    0.46
  -1   7  10    5.15    0.54
   1  -7 -10    4.41    0.58
  -1  -7  10    5.26    0.54
  -1  -7  10    5.06    0.56
   2  -7  10    5.47    0.40
   2  -7  10    4.13    0.55
   2   7 -10    4.31    0.54
  -2   7  10    4.75    0.46
  -2   7  10    4.45    0.52
   2   7  10    4.87    0.60
  -2  -7  10    5.43    0.58
  -2  -7  10    5.53    0.56
   2  -7 -10    5.32    0.59
   3   7 -10   12.60    0.86
  -3   7  10   10.56    0.70
  -3   7  10   10.23    0.79
  -3  -7  10   10.39    0.83
   3  -7 -10   10.23    0.80
  -3   7 -10   10.47    0.78
   3   7  10    9.82    0.79
  -4   7  10    6.92    0.67
   4   7 -10    7.07    0.74
  -4   7  10    7.26    0.68
   4   7  10    6.24    0.70
  -4  -7  10    6.77    0.74
  -4   7 -10    6.30    0.67
   4  -7 -10    6.22    0.67
  -5   7  10    1.49    0.48
   5   7 -10    1.33    0.45
   5  -7  10    0.76    0.42
  -5   7  10    1.71    0.47
  -5   7 -10    1.45    0.48
   5   7  10    0.55    0.46
  -5  -7  10    0.75    0.48
   5  -7 -10    1.27    0.43
  -6   7  10   10.37    0.95
   6  -7  10    9.87    0.79
  -6   7  10    9.54    0.89
   6   7 -10    9.76    0.90
  -6   7 -10    8.38    0.86
   6   7  10   10.14    0.86
   0  -8  10   -0.17    0.37
   0  -8  10   -0.12    0.27
   0  -8 -10    0.06    0.35
  -1   8  10    4.49    0.39
   1  -8  10    4.61    0.60
   1  -8  10    3.99    0.45
   1   8 -10    4.49    0.54
  -1   8  10    3.38    0.46
  -1  -8  10    4.21    0.52
   1   8  10    4.27    0.57
  -1  -8  10    3.52    0.52
   1  -8 -10    3.76    0.57
   2  -8  10    0.31    0.23
  -2   8  10    0.58    0.38
  -2   8  10    0.43    0.27
   2   8 -10    0.68    0.37
   2   8  10    0.44    0.41
  -2  -8  10    0.41    0.32
   2  -8 -10    0.80    0.37
  -2   8 -10    0.32    0.33
   3  -8  10    1.92    0.23
   3   8 -10    1.59    0.49
  -3   8  10    1.52    0.39
  -3   8  10    1.42    0.41
  -3  -8  10    1.22    0.45
   3  -8 -10    1.85    0.44
  -3   8 -10    1.65    0.42
   3   8  10    2.35    0.54
  -4   8  10    0.48    0.40
   4   8 -10    0.30    0.46
  -4   8  10   -0.09    0.35
   4  -8 -10   -0.32    0.34
  -4   8 -10    0.16    0.40
   4   8  10    0.77    0.45
  -4  -8  10    0.12    0.41
   5  -8  10    6.86    0.71
   5   8 -10    8.02    0.80
  -5   8  10    7.16    0.77
  -5   8  10    7.88    0.80
  -5   8 -10    7.28    0.78
   5   8  10    6.66    0.76
  -5  -8  10    7.28    0.81
   0  -9 -10    2.09    0.48
   0  -9  10    2.46    0.48
   0  -9  10    2.42    0.50
  -1   9  10    1.02    0.28
   1   9 -10    0.97    0.44
   1  -9  10    1.08    0.38
   1   9  10    1.89    0.48
  -1  -9  10    1.06    0.42
  -1   9 -10    1.54    0.40
   1  -9 -10    1.40    0.45
   2   9 -10    4.55    0.61
  -2   9  10    5.18    0.56
   2  -9  10    4.88    0.49
  -2   9  10    4.63    0.49
  -2   9 -10    3.26    0.52
  -2  -9  10    3.88    0.59
   2  -9 -10    4.85    0.59
   2   9  10    4.82    0.66
   3  -9  10    7.34    0.49
  -3   9  10    7.14    0.69
  -3   9  10    8.21    0.74
   3   9 -10    8.07    0.76
  -3   9 -10    6.04    0.64
   3   9  10    7.08    0.79
   3  -9 -10    6.83    0.70
  -3  -9  10    7.11    0.79
   4   9 -10    2.53    0.58
  -4   9  10    3.86    0.60
  -4   9  10    3.26    0.59
  -4   9 -10    4.60    0.65
  -4  -9  10    4.90    0.73
   4   9  10    3.83    0.68
   5  -9  10    5.57    0.69
  -5   9  10    4.80    0.67
   5   9 -10    4.15    0.70
  -5   9  10    4.12    0.67
   5   9  10    4.46    0.71
  -5   9 -10    4.25    0.68
  -5  -9  10    5.00    0.76
   0 -10 -10    6.03    0.71
   0 -10  10    5.88    0.68
   1 -10  10    0.23    0.34
  -1  10  10    0.20    0.27
  -1  10 -10    0.53    0.35
   1 -10 -10    0.64    0.44
   1  10  10    0.18    0.48
  -1 -10  10    0.29    0.42
   2 -10  10    6.73    0.61
  -2  10  10    6.31    0.60
   2  10 -10    7.14    0.76
  -2 -10  10    6.31    0.75
  -2  10 -10    6.76    0.67
   2 -10 -10    6.12    0.72
   2  10  10    7.84    0.84
  -3  10  10    4.79    0.59
   3 -10  10    5.36    0.50
  -3  10  10    4.78    0.60
   3  10 -10    5.54    0.74
  -3 -10  10    4.19    0.70
  -3  10 -10    3.93    0.58
   3  10  10    5.05    0.68
   3 -10 -10    5.08    0.63
   4  10 -10    0.34    0.51
   0 -11  10    7.07    0.78
   1 -11  10    4.87    0.61
  -1  11  10    5.99    0.50
   1 -11 -10    4.07    0.70
   1  11  10    5.05    0.73
  -1 -11  10    4.62    0.67
  -2  11  10    2.77    0.45
   2 -11  10    1.90    0.48
   2  11  10    2.53    0.62
   2 -11 -10    2.55    0.58
  -2 -11  10    2.34    0.62
  -2  11 -10    3.55    0.59
   0   0 -11   -0.19    0.27
   0   0  11   -0.17    0.24
   1   0 -11    8.90    0.67
  -1   0 -11    8.75    0.66
   1   0  11    7.99    0.65
  -1   0  11    8.47    0.63
  -1   0  11    7.95    0.42
  -2   0 -11   26.43    1.19
  -2   0  11   26.72    1.21
   2   0  11   25.11    1.19
  -2   0  11   27.34    1.06
   2   0 -11   27.79    1.26
  -3   0  11    3.40    0.46
   3   0  11    3.17    0.47
  -3   0 -11    4.02    0.48
  -3   0  11    3.80    0.44
   3   0 -11    4.52    0.52
   4   0  11    2.42    0.43
   4   0 -11    0.90    0.39
  -4   0  11    1.47    0.36
  -4   0  11    2.60    0.46
  -4   0 -11    1.94    0.40
   5   0  11    0.94    0.40
   5   0 -11    0.46    0.38
  -5   0  11    1.58    0.44
  -5   0  11    1.05    0.41
  -6   0  11    5.96    0.64
  -6   0  11    4.62    0.63
   6   0 -11    5.95    0.66
  -6   0 -11    5.08    0.61
  -7   0 -11    0.31    0.41
  -7   0  11   -0.25    0.49
   7   0 -11   -0.12    0.46
  -7   0  11   -0.32    0.42
   0  -1  11   17.24    0.92
   0  -1 -11   18.37    0.96
   0   1 -11   19.09    0.96
   0   1  11   16.98    0.91
  -1   1  11   35.63    1.47
  -1  -1 -11   36.96    1.53
  -1   1  11   39.03    1.20
   1  -1  11   36.37    1.50
   1   1 -11   36.30    1.52
  -1  -1  11   35.66    1.45
   1  -1 -11   36.33    1.51
  -1   1 -11   36.92    1.46
   1   1  11   33.44    1.43
  -1  -1  11   35.54    1.21
  -2   1  11    0.93    0.34
   2  -1  11    1.12    0.34
   2   1 -11    0.88    0.32
  -2   1  11    0.60    0.22
  -2  -1 -11    0.44    0.31
   2  -1 -11    0.47    0.28
  -2  -1  11    1.14    0.32
   2   1  11    1.10    0.34
  -2   1 -11    1.15    0.35
  -2  -1  11    0.82    0.24
   3   1 -11   15.91    0.94
   3  -1  11   15.03    0.90
  -3  -1 -11   16.70    0.91
  -3   1  11   14.61    0.88
  -3   1  11   16.28    0.82
  -3  -1  11   16.03    0.93
  -3  -1  11   15.76    0.85
   3   1  11   16.58    0.93
   3  -1 -11   17.54    0.97
  -3   1 -11   17.15    0.89
   4  -1  11    2.60    0.48
  -4   1  11    2.47    0.44
  -4   1  11    2.50    0.43
  -4  -1 -11    2.73    0.45
   4   1 -11    2.03    0.40
  -4  -1  11    2.74    0.44
  -4  -1  11    2.48    0.42
   4   1  11    3.12    0.48
   4  -1 -11    1.47    0.43
  -5   1  11    5.27    0.59
   5  -1  11    5.14    0.63
  -5   1  11    4.22    0.56
   5   1 -11    3.66    0.56
   5   1  11    4.10    0.52
   5  -1 -11    4.04    0.53
  -5  -1  11    4.06    0.57
  -5  -1  11    4.18    0.56
  -6   1  11    0.50    0.37
  -6   1  11    0.58    0.40
  -6  -1 -11    0.82    0.37
   6   1 -11    0.61    0.36
   6  -1 -11    0.58    0.37
  -6  -1  11    0.31    0.36
  -6   1 -11    0.33    0.36
  -6  -1  11    0.69    0.42
  -7   1  11    2.33    0.59
   7   1 -11    2.15    0.54
  -7   1  11    1.98    0.57
  -7  -1  11    1.49    0.56
  -7  -1  11    1.19    0.46
   7  -1 -11    1.67    0.48
  -7   1 -11    2.16    0.52
   0   2 -11   17.29    0.92
   0   2  11   15.85    0.86
   0  -2 -11   16.76    0.96
   0  -2  11   16.65    0.90
  -1   2  11    5.88    0.55
  -1  -2 -11    5.31    0.57
   1   2 -11    6.26    0.58
   1  -2  11    6.02    0.56
  -1   2  11    6.26    0.34
   1  -2 -11    7.15    0.62
  -1  -2  11    5.94    0.42
   1   2  11    6.37    0.54
  -1  -2  11    5.83    0.56
  -1   2 -11    7.13    0.57
  -2   2  11    1.15    0.36
  -2   2  11    0.42    0.22
   2   2 -11    0.51    0.32
  -2  -2 -11    0.81    0.35
   2  -2  11    0.66    0.30
  -2   2 -11    0.79    0.32
   2   2  11    0.72    0.27
  -2  -2  11    1.29    0.33
  -2  -2  11    0.68    0.26
   2  -2 -11    1.32    0.36
  -3   2  11    2.62    0.45
  -3   2  11    2.55    0.39
  -3  -2 -11    1.77    0.38
   3  -2  11    2.46    0.46
   3   2 -11    2.19    0.44
   3  -2 -11    2.68    0.44
   3   2  11    2.73    0.45
  -3  -2  11    2.39    0.43
  -3  -2  11    2.22    0.37
   4  -2  11    2.46    0.46
   4   2 -11    0.99    0.40
  -4  -2 -11    2.31    0.47
  -4   2  11    2.56    0.42
  -4   2  11    2.36    0.47
  -4  -2  11    1.65    0.43
   4  -2 -11    1.31    0.41
   4   2  11    1.72    0.44
  -4  -2  11    2.27    0.44
  -5   2  11    1.55    0.42
  -5  -2 -11    2.69    0.44
  -5   2  11    2.25    0.44
   5   2 -11    2.23    0.48
   5   2  11    1.38    0.40
  -5  -2  11    2.05    0.44
   5  -2 -11    2.44    0.47
  -5  -2  11    2.15    0.47
  -6   2  11    4.33    0.61
  -6   2  11    3.59    0.62
   6   2 -11    3.58    0.58
  -6   2 -11    3.95    0.58
  -6  -2  11    3.74    0.58
  -6  -2  11    3.93    0.57
   6  -2 -11    3.69    0.58
  -7   2  11    1.51    0.54
   7   2 -11    1.39    0.48
  -7   2  11    1.21    0.50
   7  -2 -11    1.85    0.50
  -7  -2  11    0.51    0.53
  -7   2 -11    0.88    0.47
  -7  -2  11    1.11    0.50
   0  -3  11   25.63    1.23
   0  -3 -11   26.90    1.26
   0  -3  11   28.65    0.93
   0   3  11   26.73    1.18
   0   3 -11   27.97    1.23
   1  -3  11   21.89    1.12
  -1  -3 -11   23.40    1.18
  -1   3  11   24.51    0.78
  -1   3  11   21.93    1.07
   1   3 -11   23.48    1.11
   1   3  11   25.99    1.14
  -1   3 -11   26.36    1.15
   1  -3 -11   24.10    1.19
  -1  -3  11   22.70    1.13
  -1  -3  11   23.84    0.97
   2   3 -11   11.68    0.78
  -2   3  11   11.19    0.60
  -2  -3 -11   11.51    0.81
  -2   3  11   11.75    0.76
   2  -3  11   13.30    0.83
   2   3  11   12.97    0.78
  -2   3 -11   12.90    0.76
  -2  -3  11   12.74    0.79
  -2  -3  11   11.10    0.68
   2  -3 -11   11.36    0.79
  -3  -3 -11    3.57    0.51
   3   3 -11    3.76    0.50
  -3   3  11    2.93    0.39
  -3   3  11    3.21    0.45
   3  -3  11    3.15    0.51
  -3  -3  11    3.55    0.46
   3  -3 -11    3.13    0.50
   3   3  11    2.76    0.43
  -3  -3  11    3.42    0.44
   4   3 -11    2.91    0.48
  -4   3  11    1.62    0.41
  -4  -3 -11    2.02    0.44
   4  -3  11    1.91    0.42
  -4   3  11    2.12    0.40
   4   3  11    1.99    0.42
  -4  -3  11    1.93    0.42
  -4  -3  11    2.46    0.47
   4  -3 -11    1.97    0.46
  -5   3  11    0.38    0.35
   5   3 -11    0.73    0.38
  -5  -3 -11    1.20    0.41
  -5   3  11    0.96    0.43
  -5  -3  11    0.24    0.33
  -5  -3  11    0.48    0.35
  -5   3 -11    0.86    0.40
   5  -3 -11    0.95    0.41
  -6   3  11    0.01    0.41
  -6   3  11    0.32    0.40
   6   3 -11    0.34    0.36
   6  -3 -11   -0.14    0.41
  -6   3 -11   -0.29    0.35
  -6  -3  11    0.14    0.39
  -6  -3  11    0.00    0.42
  -7   3  11    7.79    0.86
  -7   3  11    6.34    0.81
   7   3 -11    7.51    0.76
  -7   3 -11    8.06    0.82
  -7  -3  11    9.03    0.90
   7  -3 -11    8.78    0.81
   0  -4  11   32.19    1.41
   0   4  11   33.54    1.37
   0  -4 -11   31.26    1.44
   0   4 -11   34.64    1.40
   0  -4  11   33.24    1.15
  -1  -4 -11    0.83    0.37
   1   4 -11    1.34    0.34
  -1   4  11    1.33    0.34
  -1   4  11    1.38    0.17
   1  -4  11    1.05    0.36
  -1  -4  11    1.18    0.36
  -1  -4  11    1.18    0.28
   1  -4 -11    1.01    0.36
   1   4  11    1.06    0.31
  -1   4 -11    1.46    0.37
  -2  -4 -11    9.09    0.74
   2   4 -11    9.65    0.72
  -2   4  11    8.62    0.70
   2  -4  11    9.84    0.75
  -2   4  11    8.98    0.54
  -2  -4  11    8.46    0.67
   2   4  11    9.37    0.67
   2  -4 -11   10.11    0.75
  -2  -4  11    8.94    0.61
  -3   4  11    0.34    0.32
  -3   4  11    0.14    0.25
   3  -4  11    0.36    0.34
  -3  -4 -11    0.22    0.29
   3   4 -11    0.27    0.32
  -3  -4  11    0.49    0.34
   3  -4 -11    0.12    0.35
   3   4  11    0.26    0.30
  -3  -4  11    0.38    0.31
   4  -4  11   12.23    0.91
  -4   4  11   11.54    0.76
  -4  -4 -11   11.46    0.84
  -4   4  11   10.94    0.84
   4   4 -11   11.47    0.82
  -4  -4  11   11.73    0.79
  -4  -4  11   11.37    0.79
   4  -4 -11   12.75    0.89
  -5   4  11    2.42    0.48
  -5   4  11    1.69    0.45
   5   4 -11    2.47    0.50
  -5   4 -11    3.24    0.50
   5  -4 -11    2.41    0.49
  -5  -4  11    2.78    0.57
  -5  -4  11    1.77    0.43
   6   4 -11    0.71    0.48
  -6   4  11    1.29    0.51
  -6   4  11    0.67    0.45
   6   4  11    1.15    0.41
   6  -4 -11    0.15    0.41
  -6   4 -11    1.23    0.43
  -6  -4  11    1.55    0.51
  -7   4  11   12.11    1.04
   7   4 -11   12.14    0.97
  -7   4  11   10.31    0.97
  -7   4 -11   11.59    0.98
   0  -5 -11   19.05    1.08
   0   5  11   20.99    1.00
   0  -5  11   19.46    0.83
   0   5 -11   19.95    1.00
   0  -5  11   19.07    1.05
  -1  -5 -11   14.16    0.90
  -1   5  11   14.92    0.88
   1  -5  11   15.07    0.94
   1   5 -11   15.74    0.89
  -1   5  11   14.04    0.54
   1  -5  11   15.08    0.55
   1   5  11   14.51    0.82
  -1  -5  11   14.14    0.77
  -1  -5  11   16.79    0.93
   1  -5 -11   14.79    0.93
  -1   5 -11   17.10    0.89
   2  -5  11   28.53    1.38
  -2   5  11   32.08    1.38
  -2  -5 -11   31.20    1.44
   2   5 -11   31.59    1.39
  -2   5  11   31.21    1.17
  -2  -5  11   30.27    1.38
  -2  -5  11   32.44    1.34
   2   5  11   31.75    1.34
   2  -5 -11   32.76    1.46
   3   5 -11    5.55    0.61
  -3   5  11    4.24    0.52
  -3   5  11    4.40    0.48
  -3  -5 -11    4.91    0.62
   3  -5  11    3.95    0.57
   3  -5 -11    5.39    0.59
  -3  -5  11    4.06    0.54
  -3  -5  11    3.49    0.49
   4   5 -11    5.12    0.62
  -4   5  11    3.89    0.53
  -4   5  11    3.76    0.55
   4  -5 -11    4.73    0.57
   4   5  11    4.81    0.56
  -4  -5  11    4.36    0.55
  -4  -5  11    4.40    0.62
  -5   5  11    5.00    0.62
   5   5 -11    4.74    0.65
  -5   5  11    5.26    0.63
   5  -5 -11    5.26    0.65
  -5   5 -11    6.72    0.72
  -5  -5  11    6.51    0.74
   5   5  11    6.55    0.70
  -6   5  11    3.01    0.57
   6   5 -11    3.06    0.63
  -6   5  11    3.30    0.61
  -6   5 -11    3.06    0.59
  -6  -5  11    1.81    0.59
   6   5  11    2.67    0.55
   6  -5 -11    3.50    0.57
   0   6 -11    9.67    0.72
   0  -6  11    8.76    0.57
   0  -6  11    8.22    0.71
   0   6  11    9.42    0.70
   0  -6 -11    8.75    0.76
   1  -6  11    0.77    0.36
  -1   6  11    0.57    0.35
  -1  -6 -11    1.71    0.45
   1  -6  11    1.23    0.25
   1   6 -11    0.67    0.37
  -1   6  11    1.04    0.17
   1   6  11    0.62    0.31
   1  -6 -11    2.01    0.44
  -1  -6  11    1.54    0.43
  -1  -6  11    1.01    0.31
  -2  -6 -11    9.94    0.84
  -2   6  11    9.40    0.58
   2   6 -11   10.76    0.81
   2  -6  11   10.29    0.84
  -2   6  11   10.60    0.76
   2  -6 -11    9.85    0.80
  -2  -6  11   10.65    0.81
  -2  -6  11   10.80    0.73
  -3   6  11    1.66    0.38
  -3   6  11    1.76    0.39
   3   6 -11    1.11    0.44
   3  -6  11    2.04    0.52
  -3  -6  11    1.80    0.44
   3  -6 -11    1.31    0.39
   3   6  11    1.45    0.48
  -3  -6  11    1.00    0.41
   4   6 -11    1.96    0.52
  -4   6  11    2.19    0.46
  -4   6  11    2.76    0.48
   4  -6 -11    2.22    0.43
   4   6  11    2.79    0.52
  -4  -6  11    2.29    0.51
  -4   6 -11    2.37    0.49
   5   6 -11    3.91    0.63
  -5   6  11    2.83    0.53
  -5   6  11    4.18    0.64
  -5  -6  11    4.74    0.68
   5   6  11    4.10    0.58
   5  -6 -11    4.15    0.58
  -5   6 -11    3.58    0.57
  -6   6  11    2.75    0.62
  -6   6  11    1.70    0.60
   6   6 -11    1.81    0.58
  -6  -6  11    1.72    0.62
  -6   6 -11    2.97    0.62
   6   6  11    1.56    0.55
   0   7  11   10.81    0.75
   0  -7 -11   10.90    0.85
   0   7 -11   12.31    0.81
   0  -7  11   10.89    0.69
   0  -7  11   11.99    0.87
  -1   7  11    0.57    0.33
   1  -7  11    1.34    0.39
  -1   7  11    1.23    0.19
  -1  -7 -11    1.41    0.44
   1  -7  11    1.13    0.28
   1   7 -11    1.30    0.40
  -1  -7  11    1.18    0.37
  -1  -7  11    1.30    0.36
   1  -7 -11    1.07    0.44
   2   7 -11   12.28    0.85
  -2   7  11   11.04    0.64
  -2   7  11   12.92    0.81
   2  -7  11   13.09    0.94
  -2  -7  11   11.69    0.80
   2  -7 -11   10.79    0.86
  -2  -7  11   12.38    0.85
   3   7 -11    2.46    0.52
  -3   7  11    2.17    0.41
  -3   7  11    1.90    0.47
  -3  -7  11    1.44    0.44
  -3   7 -11    1.89    0.45
   3  -7 -11    1.38    0.42
   3   7  11    1.54    0.49
  -4   7  11    7.17    0.73
   4   7 -11    6.84    0.76
  -4   7  11    6.75    0.68
   4   7  11    7.08    0.74
   4  -7 -11    7.52    0.74
  -4   7 -11    7.37    0.75
  -4  -7  11    6.85    0.75
   5   7 -11    3.53    0.62
  -5   7  11    4.01    0.61
  -5   7  11    5.47    0.67
  -5  -7  11    4.65    0.77
   5  -7 -11    4.82    0.64
   5   7  11    5.85    0.73
  -5   7 -11    5.69    0.71
   0  -8  11    7.19    0.70
   0  -8 -11    8.41    0.76
   0  -8  11    8.46    0.68
   1   8 -11    0.12    0.38
   1  -8  11    0.37    0.30
  -1   8  11    0.83    0.19
   1  -8  11    0.54    0.43
  -1  -8 -11    0.71    0.47
  -1   8  11    0.59    0.36
   1  -8 -11    0.28    0.41
  -1  -8  11    0.73    0.41
  -1  -8  11    0.67    0.37
  -2   8  11   11.42    0.67
  -2   8  11   12.31    0.83
   2   8 -11   10.89    0.85
   2  -8  11   11.14    0.57
  -2  -8  11   12.67    0.87
   2   8  11   12.40    0.97
   2  -8 -11   11.63    0.90
  -3   8  11    8.09    0.67
  -3   8  11    6.46    0.69
   3   8 -11    8.95    0.81
  -3  -8  11    7.29    0.77
   3   8  11    6.36    0.77
   3  -8 -11    6.69    0.69
  -3   8 -11    7.44    0.71
  -4   8  11    2.24    0.48
  -4   8  11    1.43    0.52
   4   8 -11    2.33    0.54
  -4  -8  11    1.72    0.51
   4  -8 -11    0.78    0.42
   4   8  11    1.70    0.58
  -4   8 -11    1.85    0.49
  -5   8  11    2.50    0.59
  -5   8  11    1.54    0.50
   5   8 -11    2.08    0.58
  -5  -8  11    1.56    0.63
   5   8  11    0.71    0.49
   0  -9 -11   14.21    1.04
   0  -9  11   14.60    1.01
   0  -9  11   14.30    0.89
  -1   9  11    1.72    0.24
   1  -9  11    2.48    0.43
  -1  -9 -11    2.25    0.52
  -1  -9  11    2.65    0.52
   1  -9 -11    2.10    0.55
  -2   9  11    4.21    0.57
   2   9 -11    4.09    0.66
  -2   9  11    3.59    0.45
   2  -9  11    3.29    0.40
   2   9  11    3.92    0.61
  -2  -9  11    3.63    0.59
   2  -9 -11    3.83    0.57
  -2   9 -11    2.90    0.53
  -3   9  11   13.08    0.96
   3   9 -11   13.72    1.06
  -3   9  11   12.98    0.82
   3  -9 -11   13.79    1.01
   3   9  11   14.16    1.06
  -3   9 -11   11.90    0.94
  -3  -9  11   12.91    1.04
  -4   9  11    0.51    0.51
   4   9 -11    1.16    0.53
  -4   9 -11    0.67    0.45
  -4  -9  11    0.80    0.58
   0 -10  11    5.11    0.62
   0 -10 -11    4.46    0.69
  -1  10  11    6.44    0.38
   1 -10  11    7.38    0.68
  -1  10 -11    7.20    0.71
  -1 -10  11    7.11    0.76
   1 -10 -11    5.40    0.74
  -2  10  11    7.18    0.58
   2 -10  11    6.60    0.57
   2  10  11    7.32    0.82
  -2 -10  11    6.65    0.78
   2 -10 -11    6.00    0.72
  -2  10 -11    7.08    0.75
   0   0  12   12.66    0.81
   0   0 -12   12.15    0.84
  -1   0  12    0.02    0.30
  -1   0 -12   -0.22    0.31
   1   0  12    0.14    0.28
   1   0 -12    0.34    0.31
  -1   0  12    0.07    0.14
  -2   0  12   -0.21    0.26
   2   0  12   -0.23    0.29
   2   0 -12    0.03    0.30
  -2   0 -12   -0.05    0.29
  -2   0  12    0.06    0.20
  -3   0  12    9.41    0.76
   3   0 -12   10.48    0.82
   3   0  12   11.08    0.82
  -3   0 -12    9.22    0.74
  -3   0  12    9.75    0.65
   4   0  12    1.15    0.41
  -4   0  12    0.47    0.37
   4   0 -12    1.42    0.40
  -4   0  12    1.00    0.38
  -5   0  12   20.75    1.15
   5   0  12   20.66    1.15
   5   0 -12   19.38    1.16
  -5   0  12   20.96    1.13
  -6   0  12   11.37    0.93
  -6   0  12   12.08    0.97
   6   0 -12   10.50    0.88
  -6   0 -12   10.52    0.85
   0  -1 -12    2.35    0.43
   0   1  12    3.42    0.45
   0   1 -12    2.86    0.45
   0  -1  12    3.40    0.50
  -1  -1 -12    6.28    0.63
   1  -1  12    6.21    0.61
  -1   1  12    6.14    0.61
   1   1 -12    7.18    0.66
   1   1  12    6.87    0.63
  -1  -1  12    6.33    0.38
  -1  -1  12    5.96    0.59
   1  -1 -12    6.90    0.64
  -1   1 -12    7.05    0.63
  -2   1  12    6.29    0.61
  -2   1  12    6.75    0.46
   2  -1  12    7.00    0.67
  -2  -1 -12    6.24    0.64
   2   1 -12    7.95    0.69
   2  -1 -12    6.93    0.65
  -2  -1  12    7.50    0.52
  -2  -1  12    8.04    0.66
   2   1  12    6.09    0.63
  -2   1 -12    7.35    0.65
   3   1 -12    1.00    0.39
   3  -1  12    1.61    0.45
  -3   1  12    1.65    0.45
  -3   1  12    1.43    0.33
  -3  -1 -12    1.54    0.43
   3   1  12    1.77    0.45
  -3   1 -12    2.08    0.43
   3  -1 -12    1.00    0.39
  -3  -1  12    2.21    0.38
  -3  -1  12    2.14    0.44
   4  -1  12    5.80    0.67
   4   1 -12    8.08    0.72
  -4   1  12    6.83    0.64
  -4   1  12    6.85    0.68
  -4  -1 -12    5.60    0.63
  -4  -1  12    5.62    0.62
   4  -1 -12    7.17    0.69
   4   1  12    7.64    0.72
  -4  -1  12    5.92    0.62
  -5   1  12    0.03    0.35
   5  -1  12   -0.03    0.42
  -5   1  12    0.05    0.37
   5   1 -12    0.08    0.37
   5   1  12   -0.07    0.35
   5  -1 -12    0.17    0.36
  -5  -1  12    0.08    0.35
  -5  -1  12   -0.35    0.30
  -6   1  12    8.20    0.79
  -6   1  12    8.94    0.86
   6   1 -12    7.51    0.76
  -6   1 -12    7.33    0.75
   6  -1 -12    7.25    0.74
  -6  -1  12    7.59    0.81
  -6  -1  12    8.24    0.81
   0  -2  12    0.15    0.31
   0   2 -12    0.31    0.32
   0   2  12    0.02    0.27
   0  -2 -12   -0.12    0.28
  -1  -2 -12    0.31    0.31
  -1   2  12    0.38    0.29
   1   2 -12    0.59    0.36
   1  -2  12    0.65    0.34
  -1  -2  12    0.60    0.22
  -1   2 -12    0.64    0.31
   1  -2 -12    0.85    0.37
   1   2  12    0.30    0.30
  -1  -2  12    0.32    0.34
  -2  -2 -12   24.19    1.19
  -2   2  12   21.68    0.90
  -2   2  12   22.53    1.13
   2   2 -12   21.97    1.15
   2  -2  12   22.57    1.16
   2   2  12   23.66    1.14
  -2   2 -12   21.67    1.10
  -2  -2  12   22.65    0.97
  -2  -2  12   21.73    1.14
   2  -2 -12   22.72    1.19
  -3   2  12    6.21    0.66
  -3  -2 -12    6.95    0.66
   3  -2  12    6.96    0.69
   3   2 -12    6.25    0.65
  -3   2  12    6.55    0.54
  -3  -2  12    7.15    0.66
   3   2  12    6.17    0.62
  -3  -2  12    6.78    0.60
   3  -2 -12    6.48    0.66
   4  -2  12    5.23    0.63
  -4   2  12    4.63    0.58
  -4  -2 -12    4.25    0.58
   4   2 -12    4.60    0.63
  -4   2  12    5.69    0.60
  -4  -2  12    4.26    0.59
  -4  -2  12    4.33    0.60
   4  -2 -12    4.15    0.57
   4   2  12    5.19    0.60
   5  -2  12   19.90    1.17
  -5   2  12   18.61    1.10
  -5   2  12   18.78    1.07
   5   2 -12   17.80    1.09
  -5  -2  12   20.07    1.16
   5  -2 -12   18.97    1.15
  -5  -2  12   19.44    1.12
   5   2  12   21.58    1.14
   6   2 -12    7.86    0.79
  -6   2  12    8.32    0.85
  -6   2  12    8.85    0.84
  -6  -2  12    8.22    0.78
   6  -2 -12    7.90    0.83
  -6   2 -12    8.30    0.79
  -6  -2  12    7.48    0.82
   0  -3  12    3.19    0.49
   0   3 -12    2.71    0.45
   0   3  12    3.72    0.48
   0  -3 -12    3.17    0.51
   1  -3  12    1.07    0.41
  -1   3  12    0.75    0.34
   1   3 -12    1.45    0.42
  -1  -3 -12    1.21    0.43
  -1  -3  12    1.25    0.26
  -1   3 -12    0.88    0.34
  -1  -3  12    0.75    0.38
   1  -3 -12    1.21    0.38
   1   3  12    1.12    0.35
   2  -3  12   15.39    0.97
  -2   3  12   14.32    0.93
  -2  -3 -12   14.49    0.97
  -2   3  12   15.64    0.70
   2   3 -12   15.54    0.94
  -2   3 -12   15.23    0.89
  -2  -3  12   15.06    0.91
  -2  -3  12   15.51    0.79
   2  -3 -12   13.43    0.92
   2   3  12   16.07    0.93
   3  -3  12    0.41    0.36
  -3  -3 -12    0.58    0.38
  -3   3  12    0.50    0.28
  -3   3  12    0.13    0.31
   3   3 -12   -0.06    0.34
  -3  -3  12    0.01    0.36
  -3  -3  12    0.18    0.30
   3  -3 -12    1.11    0.44
   3   3  12    0.96    0.36
  -4   3  12   10.66    0.85
   4   3 -12    9.76    0.80
  -4   3  12   10.04    0.73
   4  -3  12   10.45    0.84
  -4  -3 -12   11.56    0.86
  -4  -3  12   10.91    0.82
   4   3  12   12.03    0.82
   4  -3 -12   11.48    0.89
  -4  -3  12   11.24    0.84
  -5   3  12    7.74    0.74
  -5  -3 -12    7.38    0.73
   5   3 -12    6.62    0.73
  -5   3  12    6.79    0.72
  -5  -3  12    8.74    0.80
  -5  -3  12    8.05    0.73
   5  -3 -12    6.72    0.77
   6   3 -12    1.54    0.52
  -6   3  12    1.61    0.54
  -6   3  12    1.40    0.49
  -6  -3  12    1.51    0.53
  -6  -3  12    1.30    0.50
  -6   3 -12    1.27    0.50
   6  -3 -12    1.28    0.49
   0  -4  12    0.69    0.18
   0  -4 -12    0.41    0.34
   0   4 -12    0.61    0.37
   0   4  12    0.06    0.31
   0  -4  12    0.15    0.32
  -1   4  12    4.14    0.52
  -1  -4 -12    4.25    0.56
   1  -4  12    4.22    0.57
   1   4 -12    4.05    0.54
   1   4  12    4.10    0.53
  -1  -4  12    5.38    0.46
  -1  -4  12    4.12    0.54
   1  -4 -12    6.74    0.67
  -1   4 -12    4.76    0.54
  -2   4  12    6.40    0.44
  -2   4  12    5.50    0.63
  -2  -4 -12    5.50    0.63
   2   4 -12    5.03    0.62
   2  -4  12    5.97    0.65
   2  -4 -12    3.75    0.57
   2   4  12    5.73    0.59
  -2  -4  12    6.09    0.61
  -2  -4  12    4.47    0.49
  -3   4  12    9.81    0.65
   3   4 -12   10.86    0.86
  -3   4  12   11.41    0.85
   3  -4  12   11.57    0.88
  -3  -4 -12   10.66    0.85
  -3  -4  12   10.61    0.81
  -3  -4  12   11.20    0.76
   3  -4 -12   10.66    0.85
   3   4  12   12.55    0.81
   4  -4  12    5.93    0.71
  -4   4  12    4.29    0.54
  -4   4  12    6.08    0.66
  -4  -4 -12    5.19    0.67
   4   4 -12    4.06    0.64
   4  -4 -12    4.86    0.61
  -4  -4  12    5.45    0.66
  -4  -4  12    4.65    0.63
  -5  -4 -12    8.49    0.82
   5   4 -12    9.40    0.85
  -5   4  12    9.18    0.81
  -5   4  12    9.57    0.84
   5  -4 -12    9.24    0.82
  -5   4 -12   10.08    0.85
  -5  -4  12   10.07    0.87
  -5  -4  12   10.91    0.86
  -6   4  12    7.02    0.80
   6   4 -12    6.78    0.78
  -6   4  12    5.86    0.77
  -6  -4  12    7.83    0.88
  -6   4 -12    7.98    0.78
   6  -4 -12    6.96    0.76
   0  -5  12    2.01    0.29
   0   5 -12    2.02    0.45
   0  -5 -12    1.57    0.44
   0  -5  12    1.81    0.49
   0   5  12    2.05    0.46
   1  -5  12   -0.17    0.38
   1   5 -12    0.90    0.42
  -1  -5 -12    0.30    0.39
  -1   5  12    0.62    0.33
  -1  -5  12    1.10    0.39
  -1  -5  12    0.70    0.28
   1   5  12   -0.29    0.30
   1  -5 -12    0.46    0.38
  -2  -5 -12    1.45    0.48
   2   5 -12    1.57    0.46
   2  -5  12    0.81    0.47
  -2   5  12    2.04    0.27
  -2   5  12    1.43    0.39
  -2  -5  12    1.25    0.38
   2   5  12    1.39    0.40
   2  -5 -12    0.95    0.40
  -2  -5  12    1.79    0.47
   3   5 -12    2.85    0.51
  -3   5  12    3.33    0.43
  -3   5  12    3.20    0.53
  -3  -5 -12    3.03    0.59
   3  -5  12    2.84    0.57
   3  -5 -12    3.13    0.54
  -3  -5  12    3.01    0.48
  -3  -5  12    2.97    0.48
  -4   5  12    1.67    0.43
  -4  -5 -12    2.86    0.53
   4   5 -12    2.43    0.56
  -4   5  12    2.33    0.54
  -4  -5  12    2.05    0.50
  -4  -5  12    2.75    0.56
   4  -5 -12    2.72    0.58
  -5  -5 -12   10.80    0.98
  -5   5  12   13.60    1.04
  -5   5  12   11.76    0.92
   5   5 -12   13.31    1.00
   5  -5 -12   10.84    0.89
  -5   5 -12   12.03    0.95
  -5  -5  12   11.27    0.97
   0   6 -12    0.03    0.38
   0  -6  12    0.24    0.42
   0   6  12    0.00    0.33
   0  -6  12    0.28    0.25
   0  -6 -12   -0.02    0.34
  -1  -6 -12    2.83    0.53
  -1   6  12    3.30    0.51
   1  -6  12    3.64    0.56
   1   6 -12    4.35    0.60
   1   6  12    3.91    0.49
   1  -6 -12    2.88    0.54
  -1  -6  12    1.66    0.51
  -1  -6  12    3.41    0.45
  -2  -6 -12    4.82    0.61
  -2   6  12    3.74    0.52
   2  -6  12    3.22    0.60
  -2   6  12    4.17    0.40
   2   6 -12    2.97    0.49
  -2  -6  12    4.05    0.53
  -2  -6  12    4.23    0.60
   2  -6 -12    2.91    0.56
  -3   6  12    0.88    0.32
   3   6 -12    0.41    0.41
   3  -6  12    1.36    0.46
  -3  -6 -12    1.28    0.48
  -3   6  12    0.97    0.41
   3  -6 -12    1.32    0.47
  -3  -6  12    1.46    0.47
  -3  -6  12    0.81    0.44
  -4  -6 -12   15.03    1.09
  -4   6  12   17.62    1.07
  -4   6  12   15.55    0.92
   4   6 -12   16.66    1.08
  -4   6 -12   15.12    1.05
  -4  -6  12   16.03    1.03
   4  -6 -12   15.98    1.08
  -5   6  12    0.43    0.44
  -5   6  12    0.13    0.45
   5   6 -12    0.82    0.54
  -5  -6  12    0.64    0.48
   5  -6 -12    1.11    0.54
  -5   6 -12    1.23    0.51
   0  -7  12    2.08    0.38
   0  -7  12    1.21    0.48
   0   7  12    2.31    0.45
   0  -7 -12    2.08    0.50
  -1  -7 -12    2.29    0.52
   1  -7  12    1.96    0.28
   1   7 -12    2.29    0.48
   1  -7  12    2.05    0.52
  -1   7  12    1.09    0.36
   1  -7 -12    2.85    0.52
  -1  -7  12    2.25    0.54
  -1  -7  12    2.51    0.44
   2   7 -12    7.16    0.74
  -2  -7 -12    4.82    0.67
  -2   7  12    5.56    0.45
   2  -7  12    6.17    0.76
  -2   7  12    5.65    0.63
   2  -7 -12    7.01    0.75
  -2  -7  12    6.00    0.63
  -2  -7  12    7.60    0.77
  -3   7  12   10.38    0.86
   3   7 -12   10.65    0.92
  -3   7  12   12.18    0.74
  -3  -7 -12   10.06    0.98
  -3   7 -12   11.46    0.88
   3  -7 -12   12.33    0.96
  -3  -7  12   10.40    0.88
  -4   7  12    1.83    0.46
  -4   7  12    0.80    0.44
   4   7 -12    2.31    0.62
  -4  -7  12    1.41    0.50
  -4   7 -12    1.58    0.52
   4  -7 -12    1.41    0.52
   0  -8 -12    0.72    0.49
   0  -8  12    0.69    0.35
   0  -8  12    1.38    0.51
  -1  -8 -12    0.95    0.47
   1  -8  12    0.87    0.48
   1   8 -12    0.93    0.45
  -1   8  12    1.46    0.43
   1  -8  12    0.75    0.29
  -1  -8  12    1.18    0.49
  -1  -8  12    1.96    0.44
   1  -8 -12    0.89    0.48
  -2   8  12    1.26    0.48
  -2   8  12    0.85    0.29
   2   8 -12    0.58    0.51
  -2  -8 -12    0.64    0.45
  -2  -8  12    0.40    0.40
   2  -8 -12    0.56    0.43
  -3   8  12    6.43    0.73
   3   8 -12    3.95    0.72
  -3   8  12    4.98    0.54
   3  -8 -12    4.83    0.66
  -3   8 -12    5.63    0.69
  -3  -8  12    4.17    0.65
   0  -9 -12    0.17    0.42
   0  -9  12   -0.31    0.34
   0  -9  12   -0.02    0.49
  -1  -9 -12    1.68    0.54
   1  -9  12    1.20    0.35
  -1  -9  12    1.04    0.42
   1  -9 -12    1.37    0.53
  -2   9  12    0.29    0.29
   2   9 -12   -0.19    0.46
  -2  -9 -12    0.08    0.51
   2  -9 -12    0.18    0.40
  -2  -9  12   -0.09    0.41
  -2   9 -12    0.34    0.47
   0   0  13   -0.05    0.29
   0   0 -13    0.17    0.37
   1   0  13   -0.05    0.32
  -1   0  13    0.27    0.33
  -1   0 -13   -0.19    0.33
   1   0 -13    0.51    0.40
  -2   0  13   19.88    0.82
  -2   0 -13   15.84    1.02
   2   0 -13   20.49    1.14
   2   0  13   19.87    1.13
  -2   0  13   19.60    1.08
   3   0  13    1.04    0.45
  -3   0  13    1.88    0.37
  -3   0  13    0.91    0.38
  -3   0 -13    1.48    0.44
   3   0 -13    1.45    0.47
   4   0 -13    1.13    0.46
   4   0  13    0.95    0.48
  -4   0  13    1.79    0.43
  -4   0  13    1.33    0.45
  -5   0  13    3.47    0.61
   5   0 -13    4.45    0.66
  -5   0  13    4.01    0.62
   5   0  13    3.46    0.57
  -6   0  13    3.41    0.70
  -6   0  13    2.84    0.64
  -6   0 -13    2.81    0.58
   6   0 -13    3.22    0.61
   0  -1  13    1.18    0.41
   0  -1 -13    0.96    0.44
   0   1  13    1.21    0.39
   0   1 -13    1.13    0.42
   1   1 -13   27.46    1.35
   1  -1  13   26.59    1.32
  -1   1  13   26.67    1.29
  -1  -1 -13   26.69    1.32
   1  -1 -13   28.26    1.38
  -1   1 -13   26.10    1.32
  -1  -1  13   26.76    1.33
   1   1  13   28.45    1.33
  -2  -1 -13    5.14    0.62
   2   1 -13    4.86    0.63
  -2   1  13    5.35    0.65
  -2   1  13    5.95    0.44
   2  -1  13    5.61    0.67
  -2  -1  13    6.17    0.46
  -2  -1  13    5.67    0.62
   2  -1 -13    4.45    0.62
  -2   1 -13    4.18    0.57
   2   1  13    5.03    0.62
   3   1 -13    0.99    0.40
   3  -1  13    1.09    0.47
  -3   1  13    1.18    0.45
  -3   1  13    1.21    0.35
  -3  -1 -13    0.96    0.46
  -3  -1  13    0.51    0.40
   3  -1 -13    1.34    0.43
   3   1  13    1.65    0.47
  -3  -1  13    0.60    0.33
  -4   1  13    1.16    0.48
  -4   1  13    1.37    0.38
   4   1 -13    0.87    0.44
   4  -1  13    1.64    0.47
  -4  -1  13    1.04    0.40
   4   1  13    1.38    0.47
  -4  -1  13    0.46    0.42
   4  -1 -13    1.37    0.48
   5  -1  13    1.04    0.51
   5   1 -13    0.68    0.43
  -5   1  13    0.64    0.43
  -5   1  13    0.81    0.47
  -5  -1  13    0.86    0.45
   5  -1 -13    0.81    0.51
   5   1  13    1.45    0.52
  -5  -1  13    1.14    0.53
   0  -2 -13    3.24    0.57
   0   2 -13    3.26    0.50
   0  -2  13    3.06    0.52
   0   2  13    3.05    0.51
   1  -2  13    4.30    0.55
   1   2 -13    4.01    0.58
  -1   2  13    5.07    0.58
  -1  -2 -13    5.37    0.63
  -1  -2  13    4.67    0.58
   1   2  13    3.76    0.57
  -1   2 -13    3.73    0.53
   1  -2 -13    4.49    0.59
  -1  -2  13    4.32    0.30
   2  -2  13    3.39    0.54
  -2   2  13    2.88    0.52
   2   2 -13    2.79    0.52
  -2  -2 -13    2.37    0.48
  -2   2  13    2.68    0.31
  -2   2 -13    2.52    0.49
   2   2  13    3.49    0.56
  -2  -2  13    2.95    0.53
   2  -2 -13    2.93    0.56
  -2  -2  13    3.09    0.39
   3  -2  13    0.29    0.36
  -3  -2 -13   -0.39    0.35
  -3   2  13    0.25    0.28
  -3   2  13    0.11    0.33
   3   2 -13    0.52    0.43
   3  -2 -13    0.64    0.40
   3   2  13   -0.22    0.38
  -3  -2  13    0.30    0.30
  -3  -2  13    0.19    0.39
  -4   2  13    2.26    0.56
  -4   2  13    2.28    0.43
  -4  -2 -13    1.50    0.53
   4   2 -13    2.14    0.52
   4  -2  13    1.31    0.48
  -4  -2  13    2.17    0.49
   4   2  13    3.38    0.55
   4  -2 -13    2.09    0.49
  -4  -2  13    2.58    0.55
  -5   2  13    2.03    0.49
   5   2 -13    1.91    0.54
  -5   2  13    2.90    0.59
   5  -2  13    2.11    0.55
  -5  -2  13    2.10    0.55
  -5  -2  13    2.55    0.55
   5  -2 -13    2.67    0.61
   5   2  13    2.55    0.53
   0   3  13    1.84    0.43
   0  -3 -13    0.91    0.40
   0   3 -13    1.04    0.41
   0  -3  13    1.54    0.46
  -1  -3 -13    4.01    0.61
   1   3 -13    4.03    0.58
  -1   3  13    4.54    0.56
   1  -3  13    3.56    0.60
  -1  -3  13    4.59    0.37
   1  -3 -13    4.65    0.63
  -1  -3  13    4.54    0.63
  -1   3 -13    4.89    0.59
   1   3  13    4.74    0.56
   2  -3  13    9.23    0.83
  -2  -3 -13    9.19    0.81
  -2   3  13    8.37    0.46
  -2   3  13    8.60    0.78
   2   3 -13    8.78    0.77
  -2  -3  13    8.84    0.59
  -2  -3  13    8.95    0.80
   2   3  13    7.66    0.73
   2  -3 -13    9.18    0.80
  -3   3  13    5.93    0.51
   3  -3  13    4.78    0.70
  -3  -3 -13    3.97    0.63
  -3   3  13    4.27    0.65
   3   3 -13    5.36    0.69
  -3  -3  13    4.52    0.65
  -3  -3  13    5.53    0.58
   3  -3 -13    5.32    0.67
   3   3  13    5.56    0.64
  -4  -3 -13    4.56    0.68
  -4   3  13    4.81    0.57
   4  -3  13    5.10    0.70
   4   3 -13    3.61    0.62
  -4   3  13    3.71    0.60
   4   3  13    4.00    0.57
  -4  -3  13    3.58    0.55
   4  -3 -13    3.91    0.62
  -4  -3  13    4.44    0.66
  -5   3  13    4.98    0.64
   5   3 -13    4.27    0.66
  -5   3  13    4.27    0.67
   5  -3 -13    4.44    0.68
  -5  -3  13    4.76    0.68
  -5  -3  13    5.50    0.69
   0   4 -13    0.14    0.36
   0   4  13   -0.16    0.31
   0  -4 -13   -0.09    0.35
   0  -4  13    0.09    0.42
  -1   4  13   -0.10    0.35
  -1  -4 -13    0.43    0.37
   1   4 -13    0.13    0.40
   1  -4  13    0.24    0.41
   1  -4 -13    0.07    0.35
  -1  -4  13   -0.02    0.23
  -1   4 -13    0.68    0.41
   1   4  13    0.63    0.38
  -1  -4  13    0.67    0.39
   2   4 -13    1.74    0.46
   2  -4  13    2.30    0.51
  -2  -4 -13    2.30    0.55
  -2   4  13    2.07    0.26
  -2   4  13    1.45    0.43
  -2  -4  13    1.87    0.47
  -2  -4  13    2.56    0.42
   2  -4 -13    1.59    0.48
   2   4  13    2.01    0.43
   3  -4  13    3.65    0.61
   3   4 -13    1.95    0.49
  -3   4  13    1.91    0.36
  -3  -4 -13    2.37    0.53
  -3   4  13    2.35    0.56
   3   4  13    2.38    0.52
   3  -4 -13    1.42    0.47
  -3  -4  13    1.88    0.54
  -3  -4  13    2.25    0.43
   4  -4  13    3.04    0.64
  -4  -4 -13    2.94    0.58
  -4   4  13    2.71    0.61
   4   4 -13    1.88    0.52
  -4   4  13    2.23    0.45
   4  -4 -13    3.46    0.62
  -4  -4  13    1.60    0.48
  -4  -4  13    2.78    0.54
  -5   4  13    4.35    0.63
  -5  -4 -13    4.07    0.69
   5   4 -13    5.17    0.67
  -5   4  13    4.54    0.72
  -5  -4  13    3.63    0.64
  -5  -4  13    3.72    0.63
  -5   4 -13    4.08    0.63
   5  -4 -13    3.96    0.66
   0  -5  13   22.58    1.29
   0   5  13   24.85    1.24
   0   5 -13   25.49    1.26
   0  -5 -13   24.89    1.33
  -1   5  13    0.35    0.41
  -1  -5 -13    0.38    0.39
   1   5 -13    0.13    0.40
   1  -5  13   -0.08    0.43
   1  -5 -13    0.29    0.41
   1   5  13    0.27    0.39
  -1  -5  13    0.57    0.46
  -1  -5  13    0.21    0.27
   2  -5  13   24.54    1.36
   2   5 -13   24.18    1.30
  -2   5  13   25.63    1.30
  -2  -5 -13   22.88    1.34
  -2   5  13   24.03    0.85
   2   5  13   22.92    1.19
   2  -5 -13   23.64    1.31
  -2  -5  13   24.06    1.11
  -2  -5  13   22.52    1.27
  -3   5  13    0.94    0.44
  -3  -5 -13    0.58    0.46
  -3   5  13    0.63    0.32
   3   5 -13    1.00    0.49
   3  -5  13    1.57    0.52
  -3  -5  13    0.75    0.45
  -3  -5  13    1.24    0.41
   3  -5 -13    1.23    0.48
  -4  -5 -13    1.02    0.49
  -4   5  13    0.25    0.37
  -4   5  13    0.80    0.41
   4   5 -13    0.91    0.48
   4  -5 -13    0.50    0.47
  -4  -5  13    0.81    0.44
  -4  -5  13    0.80    0.49
   0  -6  13   -0.18    0.22
   0   6  13   -0.01    0.36
   0  -6 -13    0.55    0.48
   0  -6  13    0.10    0.45
   1   6 -13    2.24    0.53
  -1  -6 -13    2.95    0.59
   1  -6  13    2.48    0.60
  -1   6  13    2.68    0.54
  -1  -6  13    2.43    0.42
  -1  -6  13    3.01    0.61
   1   6  13    2.34    0.47
   1  -6 -13    1.97    0.57
  -2  -6 -13    0.48    0.49
   2   6 -13    0.15    0.47
   2  -6  13   -0.09    0.47
  -2   6  13    0.79    0.43
  -2  -6  13    0.37    0.36
   2  -6 -13   -0.10    0.44
  -2  -6  13    0.38    0.43
  -3   6  13   13.05    0.74
   3   6 -13   14.31    1.05
  -3  -6 -13   13.69    1.05
  -3   6  13   14.19    0.99
   3  -6  13   11.87    1.04
   3  -6 -13   14.90    1.08
  -3  -6  13   13.50    1.03
  -3  -6  13   12.68    0.89
   4   6 -13    2.26    0.57
  -4   6  13    0.66    0.49
  -4   6  13    1.52    0.44
  -4  -6 -13    1.29    0.50
  -4   6 -13    0.97    0.47
   4  -6 -13    2.12    0.56
  -4  -6  13    0.58    0.47
   0  -7  13   38.68    1.37
   0  -7 -13   39.51    1.85
   0   7  13   37.07    1.61
   0  -7  13   37.69    1.76
   1   7 -13    0.28    0.42
  -1  -7 -13    0.96    0.52
   1  -7  13    0.46    0.50
  -1   7  13    0.14    0.46
  -1  -7  13    1.01    0.36
   1  -7 -13    0.09    0.40
  -1  -7  13    0.35    0.52
  -2   7  13   16.38    1.05
   2   7 -13   15.87    1.10
  -2  -7 -13   16.63    1.15
   2  -7  13   17.38    1.17
  -2  -7  13   16.70    0.98
   2  -7 -13   16.56    1.17
  -2  -7  13   17.48    1.15
  -3   7  13    0.10    0.32
  -3   7  13    0.33    0.49
  -3  -7 -13    0.20    0.46
   3   7 -13    0.68    0.55
   3  -7 -13    0.34    0.50
  -3  -7  13    0.03    0.40
   0  -8  13    3.82    0.69
   0  -8 -13    5.46    0.71
   0  -8  13    4.26    0.48
   1  -8  13    4.33    0.74
  -1  -8 -13    3.79    0.69
  -1  -8  13    3.41    0.67
  -1  -8  13    4.34    0.55
   1  -8 -13    3.72    0.73
   0   0 -14    1.39    0.49
   0   0  14    2.67    0.52
   1   0 -14    1.84    0.49
   1   0  14    2.02    0.50
  -1   0  14    2.22    0.47
  -1   0 -14    2.00    0.50
  -2   0  14   18.01    0.72
   2   0 -14   18.36    1.12
  -2   0  14   17.61    1.09
  -2   0 -14   16.49    1.05
   2   0  14   18.12    1.14
  -3   0  14    0.22    0.32
   3   0 -14    0.78    0.49
  -3   0 -14    0.53    0.43
  -3   0  14   -0.13    0.42
   3   0  14    0.62    0.49
  -4   0  14   14.62    1.05
   4   0  14   14.21    1.08
  -4   0  14   13.56    0.86
   4   0 -14   13.43    1.03
   0   1  14    1.89    0.47
   0  -1 -14    1.18    0.43
   0  -1  14    1.81    0.45
   0   1 -14    1.73    0.49
  -1   1  14    2.01    0.48
  -1  -1 -14    1.81    0.52
   1   1 -14    2.12    0.54
   1  -1  14    1.54    0.50
  -1   1 -14    1.21    0.44
   1   1  14    1.57    0.52
  -1  -1  14    1.88    0.51
   1  -1 -14    1.23    0.48
   2   1 -14   13.88    1.02
  -2   1  14   12.67    0.97
  -2  -1 -14   12.06    0.94
   2  -1  14   13.67    0.98
  -2   1  14   13.94    0.55
  -2  -1  14   13.55    1.00
  -2   1 -14   12.80    0.93
  -2  -1  14   13.75    0.66
   2   1  14   14.72    1.00
   2  -1 -14   13.53    0.99
  -3   1  14    4.94    0.65
  -3   1  14    6.69    0.55
   3   1 -14    4.37    0.66
  -3  -1 -14    5.85    0.72
   3  -1  14    5.96    0.73
   3   1  14    6.24    0.70
  -3  -1  14    5.66    0.70
  -3  -1  14    4.94    0.53
   3  -1 -14    5.05    0.69
  -4   1  14   11.01    0.98
  -4   1  14   11.40    0.80
   4  -1  14   10.65    0.96
   4   1 -14   11.53    0.99
  -4  -1  14    9.73    0.94
   4  -1 -14   12.51    1.01
  -4  -1  14   12.50    0.85
   4   1  14   14.46    1.04
   0   2 -14    6.85    0.77
   0  -2 -14    8.19    0.84
   0  -2  14    7.18    0.73
   0   2  14    6.86    0.73
  -1  -2 -14   -0.10    0.37
   1  -2  14   -0.55    0.36
   1   2 -14   -0.12    0.41
  -1   2  14    0.03    0.35
   1  -2 -14    0.17    0.44
   1   2  14    0.60    0.41
  -1   2 -14   -0.01    0.42
  -1  -2  14    0.06    0.42
  -2   2  14    5.15    0.66
   2  -2  14    5.45    0.70
   2   2 -14    6.34    0.75
  -2  -2 -14    7.27    0.74
  -2  -2  14    5.78    0.74
  -2  -2  14    6.45    0.46
   2   2  14    5.69    0.71
   2  -2 -14    6.01    0.77
  -3   2  14    0.69    0.30
  -3  -2 -14    1.02    0.52
   3  -2  14    1.39    0.55
  -3   2  14    1.23    0.43
   3   2 -14    0.91    0.48
  -3  -2  14    1.53    0.39
   3   2  14    0.58    0.43
  -3  -2  14    1.01    0.51
   3  -2 -14    1.21    0.45
   4   2 -14   -0.19    0.46
  -4   2  14    0.50    0.36
   4  -2  14    0.71    0.54
  -4   2  14    0.52    0.42
  -4  -2 -14    0.66    0.50
   4   2  14    0.38    0.51
  -4  -2  14   -0.15    0.42
   4  -2 -14    0.56    0.50
  -4  -2  14    0.37    0.40
   0  -3 -14    6.11    0.72
   0   3  14    6.13    0.71
   0   3 -14    6.69    0.71
   0  -3  14    6.79    0.78
   1  -3  14    8.70    0.84
  -1  -3 -14    9.47    0.86
   1   3 -14    9.26    0.84
  -1   3  14    9.30    0.79
  -1  -3  14    7.63    0.82
   1   3  14   10.17    0.83
  -1   3 -14   10.12    0.86
   1  -3 -14    7.58    0.80
   2   3 -14    8.64    0.81
  -2   3  14    7.71    0.77
   2  -3  14    7.50    0.83
  -2  -3 -14    7.22    0.76
  -2  -3  14    8.08    0.83
   2   3  14    7.22    0.79
  -2  -3  14    8.45    0.57
   2  -3 -14    7.44    0.78
  -3   3  14    1.62    0.34
  -3  -3 -14    1.28    0.50
   3   3 -14    1.28    0.48
   3  -3  14    1.92    0.62
  -3   3  14    1.72    0.52
   3  -3 -14    1.16    0.48
   3   3  14    1.88    0.56
  -3  -3  14    1.93    0.54
  -3  -3  14    1.58    0.41
  -4   3  14    4.95    0.74
  -4  -3 -14    4.60    0.72
   4  -3  14    5.50    0.76
  -4   3  14    4.51    0.56
   4   3 -14    4.48    0.74
  -4  -3  14    5.49    0.72
  -4  -3  14    4.06    0.61
   4  -3 -14    5.97    0.78
   0  -4  14    5.40    0.72
   0   4  14    6.02    0.70
   0   4 -14    8.00    0.79
   0  -4 -14    6.62    0.74
  -1   4  14    9.05    0.83
   1  -4  14    9.34    0.91
   1   4 -14    9.72    0.83
  -1  -4 -14    8.97    0.87
  -1  -4  14    9.96    0.50
   1  -4 -14    8.00    0.86
  -1  -4  14   10.11    0.94
   1   4  14   10.28    0.85
   2   4 -14   -0.11    0.44
  -2   4  14    0.03    0.40
  -2  -4 -14   -0.12    0.45
   2  -4  14   -0.02    0.49
  -2  -4  14    0.16    0.29
   2   4  14    0.00    0.43
   2  -4 -14   -0.14    0.48
  -2  -4  14    0.19    0.45
   3  -4  14    3.82    0.71
  -3  -4 -14    4.76    0.68
  -3   4  14    3.80    0.43
  -3   4  14    4.46    0.63
   3   4 -14    4.11    0.70
  -3  -4  14    4.77    0.71
  -3  -4  14    3.67    0.55
   3  -4 -14    2.69    0.64
   0  -5 -14    7.92    0.85
   0   5 -14    6.98    0.74
   0   5  14    7.89    0.73
   0  -5  14    5.95    0.79
   1  -5  14    4.76    0.71
   1   5 -14    5.34    0.73
  -1   5  14    5.04    0.64
  -1  -5 -14    4.40    0.69
  -1  -5  14    5.87    0.46
   1   5  14    4.74    0.66
   1  -5 -14    5.58    0.74
  -1  -5  14    5.07    0.73
  -2  -5 -14    2.74    0.58
  -2   5  14    2.13    0.51
   2  -5  14    3.38    0.69
   2   5 -14    2.11    0.61
  -2  -5  14    2.92    0.45
  -2  -5  14    4.17    0.71
   2  -5 -14    2.16    0.56
  -3  -5 -14    0.73    0.58
   3   5 -14    1.38    0.53
  -3   5  14    1.17    0.31
  -3   5  14    0.82    0.47
  -3  -5  14    0.65    0.42
   3  -5 -14    1.11    0.51
  -3  -5  14    0.81    0.55
   0   6  14    4.56    0.68
   0  -6 -14    5.08    0.77
   0  -6  14    5.26    0.77
  -1   6  14    3.02    0.57
   1   6 -14    1.24    0.56
  -1  -6 -14    1.84    0.57
   1  -6  14    1.77    0.60
  -1  -6  14    2.47    0.41
   1  -6 -14    2.67    0.64
  -1  -6  14    2.22    0.62
  -2  -6 -14    2.33    0.63
   2  -6  14    0.21    0.52
   2   6 -14    1.75    0.60
  -2   6  14    2.45    0.60
  -2  -6  14    1.58    0.54
   2  -6 -14    1.95    0.56
  -2  -6  14    1.60    0.43
   0   0 -15    0.00    0.46
   0   0  15   -0.45    0.39
  -1   0  15   -0.07    0.38
   1   0 -15   -0.31    0.46
  -1   0 -15   -0.34    0.40
   1   0  15    0.42    0.43
   2   0 -15    0.70    0.56
  -2   0  15    1.43    0.51
   2   0  15    1.28    0.52
  -2   0 -15    1.40    0.53
  -3   0  15    1.35    0.34
   3   0  15    0.05    0.51
   0   1  15    0.38    0.48
   0  -1 -15    0.77    0.46
   0   1 -15    0.10    0.49
   0  -1  15    1.23    0.48
   1   1 -15    3.75    0.66
  -1   1  15    3.73    0.67
  -1  -1 -15    2.66    0.56
   1  -1  15    2.91    0.66
  -1  -1  15    2.79    0.55
   1   1  15    2.29    0.53
  -1   1 -15    3.25    0.60
   1  -1 -15    2.34    0.61
  -2   1  15    0.33    0.50
   2  -1  15    0.06    0.45
  -2  -1 -15    0.28    0.45
   2   1 -15   -0.59    0.46
   2   1  15   -0.30    0.48
   2  -1 -15    0.23    0.50
  -2  -1  15    0.80    0.48
  -2   1 -15   -0.02    0.48
  -3  -1 -15    0.49    0.50
   3  -1  15    0.19    0.54
  -3  -1  15   -0.22    0.52
   3   1  15   -0.02    0.49
   0  -2  15    0.38    0.42
   0   2  15    0.08    0.43
   0   2 -15    0.71    0.52
   0  -2 -15   -0.03    0.45
  -1   2  15    0.47    0.49
   1   2 -15    1.25    0.51
  -1  -2 -15    0.46    0.52
   1  -2  15   -0.38    0.49
   1  -2 -15    0.80    0.49
   1   2  15    0.43    0.52
  -1  -2  15    0.65    0.54
  -1   2 -15    1.11    0.50
   2   2 -15    5.27    0.75
   2  -2  15    6.10    0.84
  -2  -2 -15    4.88    0.74
  -2   2  15    5.41    0.74
  -2  -2  15    5.96    0.73
   2   2  15    5.93    0.76
  -2  -2  15    5.17    0.37
   2  -2 -15    5.75    0.75
   0   3  15    0.88    0.50
   0  -3  15    0.23    0.46
   0  -3 -15    0.13    0.51
   0   3 -15    0.03    0.48
   1  -3  15    1.26    0.52
  -1   3  15    1.63    0.50
   1   3 -15    1.42    0.58
  -1  -3 -15    1.14    0.58
  -1  -3  15    2.19    0.55
   1   3  15    1.51    0.55
   1  -3 -15    1.24    0.55
  -1   3 -15    1.28    0.52
  -2   3  15    2.06    0.55
   2   3 -15    2.93    0.62
  -2  -3 -15    2.84    0.62
  -2  -3  15    3.51    0.37
   2   3  15    3.22    0.57
  -2  -3  15    3.35    0.71
   0   4  15    3.56    0.64
   0  -4 -15    4.00    0.69
   0  -4  15    3.14    0.69
   0   4 -15    3.52    0.67
   1   4 -15    0.48    0.47
  -1  -4 -15   -0.54    0.49
   0   0   0    0.00    0.00
;
_shelx_hkl_checksum              14165
#END Tags that were not found in dictionaries
loop_
_space_group_symop_operation_xyz
'x, y, z'
'-x+1/2, -y, z+1/2'
'-x, y+1/2, -z+1/2'
'x+1/2, -y+1/2, -z'
loop_
_atom_site_label
_atom_site_type_symbol
_atom_site_fract_x
_atom_site_fract_y
_atom_site_fract_z
_atom_site_U_iso_or_equiv
_atom_site_adp_type
_atom_site_occupancy
_atom_site_site_symmetry_order
_atom_site_calc_flag
_atom_site_refinement_flags_posn
_atom_site_refinement_flags_adp
S1 S 0.03505(6) 0.46101(4) 0.68900(4) 0.01930(12) Uani 1 1 d . .
O1 O 0.5653(2) 0.54127(15) 0.56199(13) 0.0290(4) Uani 1 1 d . .
N1 N 0.3203(2) 0.41668(13) 0.80188(14) 0.0151(3) Uani 1 1 d . .
O2 O 0.4078(2) 0.36963(13) 0.58123(12) 0.0218(3) Uani 1 1 d . .
O3 O 0.67968(19) 0.34250(14) 0.77834(14) 0.0266(4) Uani 1 1 d . .
H3 H 0.7698 0.3761 0.7558 0.040 Uiso 1 1 calc R U
C7 C 0.4708(3) 0.47672(17) 0.61790(16) 0.0189(4) Uani 1 1 d . .
C4 C 0.5582(3) 0.54441(18) 0.81975(18) 0.0227(4) Uani 1 1 d . .
H4A H 0.6538 0.5811 0.7758 0.027 Uiso 1 1 calc R U
H4B H 0.5248 0.6013 0.8836 0.027 Uiso 1 1 calc R U
C3 C 0.4084(2) 0.51575(16) 0.73863(17) 0.0165(4) Uani 1 1 d . .
H3A H 0.3335 0.5899 0.7317 0.020 Uiso 1 1 calc R U
C6 C 0.4313(2) 0.36035(18) 0.89181(17) 0.0189(4) Uani 1 1 d . .
H6A H 0.4346 0.2692 0.8836 0.023 Uiso 1 1 calc R U
H6B H 0.3922 0.3815 0.9717 0.023 Uiso 1 1 calc R U
C1 C 0.0935(3) 0.28216(18) 0.85885(18) 0.0206(4) Uani 1 1 d . .
H1A H 0.1609 0.2077 0.8441 0.031 Uiso 1 1 calc R U
H1B H -0.0249 0.2662 0.8386 0.031 Uiso 1 1 calc R U
H1C H 0.1015 0.3045 0.9418 0.031 Uiso 1 1 calc R U
C2 C 0.1597(2) 0.38668(16) 0.78530(15) 0.0150(4) Uani 1 1 d . .
C8 C 0.4652(4) 0.3292(2) 0.46742(18) 0.0329(5) Uani 1 1 d . .
H8A H 0.4469 0.3954 0.4102 0.049 Uiso 1 1 calc R U
H8B H 0.4015 0.2556 0.4437 0.049 Uiso 1 1 calc R U
H8C H 0.5860 0.3092 0.4711 0.049 Uiso 1 1 calc R U
C5 C 0.6034(3) 0.41674(18) 0.8671(2) 0.0232(4) Uani 1 1 d . .
H5 H 0.6750 0.4217 0.9392 0.028 Uiso 1 1 calc R U
loop_
_atom_site_aniso_label
_atom_site_aniso_U_11
_atom_site_aniso_U_22
_atom_site_aniso_U_33
_atom_site_aniso_U_23
_atom_site_aniso_U_13
_atom_site_aniso_U_12
S1 0.0161(2) 0.0201(2) 0.0217(2) 0.00195(18) -0.00206(18) 0.00089(18)
O1 0.0319(9) 0.0251(7) 0.0301(8) 0.0074(6) 0.0110(7) -0.0037(7)
N1 0.0152(7) 0.0146(7) 0.0153(7) 0.0008(6) -0.0010(6) -0.0005(5)
O2 0.0283(8) 0.0193(7) 0.0177(7) -0.0013(5) 0.0052(6) 0.0000(6)
O3 0.0149(7) 0.0276(7) 0.0374(9) 0.0012(6) 0.0014(6) -0.0003(6)
C7 0.0178(8) 0.0186(8) 0.0204(9) 0.0041(7) 0.0025(7) 0.0021(8)
C4 0.0211(10) 0.0198(8) 0.0271(10) 0.0008(8) -0.0044(8) -0.0053(8)
C3 0.0156(8) 0.0143(8) 0.0196(8) 0.0012(7) 0.0006(7) -0.0025(6)
C6 0.0191(10) 0.0208(9) 0.0168(8) 0.0028(7) -0.0035(7) -0.0002(7)
C1 0.0175(9) 0.0184(8) 0.0259(9) 0.0054(8) 0.0046(8) -0.0009(7)
C2 0.0162(8) 0.0137(7) 0.0152(9) -0.0012(6) 0.0019(6) 0.0009(6)
C8 0.0513(15) 0.0283(10) 0.0190(10) -0.0011(8) 0.0106(11) 0.0073(11)
C5 0.0186(9) 0.0239(10) 0.0271(10) 0.0008(8) -0.0071(8) -0.0020(8)
loop_
_atom_type_symbol
_atom_type_description
_atom_type_scat_dispersion_real
_atom_type_scat_dispersion_imag
_atom_type_scat_source
C C 0.0033 0.0016 'International Tables Vol C Tables 4.2.6.8 and 6.1.1.4'
H H 0.0000 0.0000 'International Tables Vol C Tables 4.2.6.8 and 6.1.1.4'
N N 0.0061 0.0033 'International Tables Vol C Tables 4.2.6.8 and 6.1.1.4'
O O 0.0106 0.0060 'International Tables Vol C Tables 4.2.6.8 and 6.1.1.4'
S S 0.1246 0.1234 'International Tables Vol C Tables 4.2.6.8 and 6.1.1.4'
loop_
_geom_angle_atom_site_label_1
_geom_angle_atom_site_label_2
_geom_angle_atom_site_label_3
_geom_angle
C2 N1 C3 124.31(15)
C2 N1 C6 124.51(15)
C3 N1 C6 111.08(15)
C7 O2 C8 115.46(17)
O1 C7 O2 124.76(18)
O1 C7 C3 121.31(17)
O2 C7 C3 113.91(16)
C5 C4 C3 102.23(15)
N1 C3 C7 113.39(14)
N1 C3 C4 102.50(15)
C7 C3 C4 110.61(16)
N1 C6 C5 103.72(15)
N1 C2 C1 115.99(16)
N1 C2 S1 122.57(14)
C1 C2 S1 121.43(15)
O3 C5 C6 106.56(16)
O3 C5 C4 110.85(17)
C6 C5 C4 102.71(16)
loop_
_geom_bond_atom_site_label_1
_geom_bond_atom_site_label_2
_geom_bond_distance
S1 C2 1.6811(18)
O1 C7 1.205(2)
N1 C2 1.324(2)
N1 C3 1.468(2)
N1 C6 1.482(2)
O2 C7 1.328(2)
O2 C8 1.444(2)
O3 C5 1.427(3)
C7 C3 1.524(3)
C4 C5 1.525(3)
C4 C3 1.535(3)
C6 C5 1.517(3)
C1 C2 1.502(3)
loop_
_geom_torsion_atom_site_label_1
_geom_torsion_atom_site_label_2
_geom_torsion_atom_site_label_3
_geom_torsion_atom_site_label_4
_geom_torsion
C8 O2 C7 O1 2.4(3)
C8 O2 C7 C3 -179.58(18)
C2 N1 C3 C7 -81.6(2)
C6 N1 C3 C7 102.04(17)
C2 N1 C3 C4 159.12(17)
C6 N1 C3 C4 -17.22(19)
O1 C7 C3 N1 -169.54(18)
O2 C7 C3 N1 12.3(2)
O1 C7 C3 C4 -55.0(2)
O2 C7 C3 C4 126.82(18)
C5 C4 C3 N1 36.20(19)
C5 C4 C3 C7 -84.98(18)
C2 N1 C6 C5 174.82(17)
C3 N1 C6 C5 -8.8(2)
C3 N1 C2 C1 179.88(16)
C6 N1 C2 C1 -4.3(3)
C3 N1 C2 S1 -0.7(2)
C6 N1 C2 S1 175.18(13)
N1 C6 C5 O3 -85.16(17)
N1 C6 C5 C4 31.44(19)
C3 C4 C5 O3 71.4(2)
C3 C4 C5 C6 -42.12(19)
