#------------------------------------------------------------------------------
#$Date: 2016-02-18 17:37:37 +0200 (Thu, 18 Feb 2016) $
#$Revision: 176729 $
#$URL: svn://www.crystallography.net/cod/cif/1/51/75/1517556.cif $
#------------------------------------------------------------------------------
#
# This file is available in the Crystallography Open Database (COD),
# http://www.crystallography.net/
#
# All data on this site have been placed in the public domain by the
# contributors.
#
data_1517556
loop_
_publ_author_name
'Purkait, Nibadita'
'Okumura, Sota'
'Souto, Jos\'e A'
'Mu\~niz, Kilian'
_publ_section_title
;
 Hypervalent iodine mediated oxidative amination of allenes.
;
_journal_issue                   18
_journal_name_full               'Organic letters'
_journal_page_first              4750
_journal_page_last               4753
_journal_paper_doi               10.1021/ol502179z
_journal_volume                  16
_journal_year                    2014
_chemical_formula_sum            'C23 H20 Cl N O4 S2'
_chemical_formula_weight         473.97
_chemical_name_systematic
;
 ?
;
_space_group_IT_number           2
_space_group_name_Hall           '-P 1'
_symmetry_cell_setting           triclinic
_symmetry_space_group_name_Hall  '-P 1'
_symmetry_space_group_name_H-M   'P -1'
_atom_sites_solution_hydrogens   geom
_audit_creation_method           SHELXL-2014
_cell_angle_alpha                104.2584(17)
_cell_angle_beta                 92.0656(16)
_cell_angle_gamma                116.3051(15)
_cell_formula_units_Z            6
_cell_length_a                   12.6981(7)
_cell_length_b                   13.6452(8)
_cell_length_c                   22.4861(12)
_cell_measurement_reflns_used    9994
_cell_measurement_temperature    100(2)
_cell_measurement_theta_max      27.52
_cell_measurement_theta_min      2.49
_cell_volume                     3337.5(3)
_computing_cell_refinement       'Bruker APEX2 v2011.4-0'
_computing_data_collection       'Bruker APEX2 v2011.4-0'
_computing_data_reduction        'Bruker SAINT V7.60A'
_computing_molecular_graphics    'Bruker SHELXTL'
_computing_publication_material  'Bruker SHELXTL'
_computing_structure_refinement  'SHELXL-2014 (Sheldrick, 2014)'
_computing_structure_solution    Sir2011
_diffrn_ambient_temperature      100(2)
_diffrn_detector_area_resol_mean 512
_diffrn_detector_type            '4K CCD area detector APEX II'
_diffrn_measured_fraction_theta_full 0.975
_diffrn_measured_fraction_theta_max 0.949
_diffrn_measurement_device_type  'APEX DUO Kappa 4-axis goniometer'
_diffrn_measurement_method
;
 Fullsphere data collection, phi and omega scans
;
_diffrn_measurement_specimen_support 'magnetic support with MicroMount'
_diffrn_radiation_monochromator  'Quazar MX Multilayer Optics'
_diffrn_radiation_type           MoK\a
_diffrn_radiation_wavelength     0.71073
_diffrn_reflns_av_R_equivalents  0.0251
_diffrn_reflns_av_unetI/netI     0.0326
_diffrn_reflns_Laue_measured_fraction_full 0.975
_diffrn_reflns_Laue_measured_fraction_max 0.949
_diffrn_reflns_limit_h_max       16
_diffrn_reflns_limit_h_min       -16
_diffrn_reflns_limit_k_max       11
_diffrn_reflns_limit_k_min       -17
_diffrn_reflns_limit_l_max       28
_diffrn_reflns_limit_l_min       -19
_diffrn_reflns_number            31973
_diffrn_reflns_point_group_measured_fraction_full 0.975
_diffrn_reflns_point_group_measured_fraction_max 0.949
_diffrn_reflns_theta_full        25.242
_diffrn_reflns_theta_max         27.536
_diffrn_reflns_theta_min         1.721
_diffrn_source                   'Microfocus source E025 IuS'
_diffrn_source_current           0.6
_diffrn_source_power             50
_diffrn_source_size              '0.2 mm x 0.2 mm fine focus'
_diffrn_source_type              'Bruker APEX DUO'
_exptl_absorpt_coefficient_mu    0.390
_exptl_absorpt_correction_T_max  0.981
_exptl_absorpt_correction_T_min  0.936
_exptl_absorpt_correction_type   empirical
_exptl_absorpt_process_details
; 
 SADABS Version 2008/1 Bruker-Nonius
 Blessing, Acta Cryst. (1995) A51 33-38
;
_exptl_crystal_density_diffrn    1.415
_exptl_crystal_description       Block
_exptl_crystal_F_000             1476
_exptl_crystal_size_max          0.10
_exptl_crystal_size_mid          0.10
_exptl_crystal_size_min          0.05
_refine_diff_density_max         1.203
_refine_diff_density_min         -0.678
_refine_diff_density_rms         0.059
_refine_ls_extinction_method     none
_refine_ls_goodness_of_fit_ref   1.135
_refine_ls_hydrogen_treatment    constr
_refine_ls_matrix_type           full
_refine_ls_number_parameters     844
_refine_ls_number_reflns         14621
_refine_ls_number_restraints     0
_refine_ls_restrained_S_all      1.135
_refine_ls_R_factor_all          0.0485
_refine_ls_R_factor_gt           0.0400
_refine_ls_shift/su_max          0.001
_refine_ls_shift/su_mean         0.000
_refine_ls_structure_factor_coef Fsqd
_refine_ls_weighting_details
'w=1/[\s^2^(Fo^2^)+(0.1000P)^2^] where P=(Fo^2^+2Fc^2^)/3'
_refine_ls_weighting_scheme      calc
_refine_ls_wR_factor_gt          0.1377
_refine_ls_wR_factor_ref         0.1480
_reflns_Friedel_coverage         0.000
_reflns_number_gt                12444
_reflns_number_total             14621
_reflns_threshold_expression     'I > 2\s(I)'
_cod_data_source_file            ol502179z_si_004.cif
_cod_data_source_block           mo_np548_0m
_cod_depositor_comments
;
The following automatic conversions were performed:

'_symmetry_cell_setting' value 'Triclinic' changed to 'triclinic'
according to
/home/saulius/struct/COD-crude-data--automatic-downloads/rss-feeds/ACS/lib/dictionaries/cif_core.dic
dictionary named 'cif_core.dic' version 2.4.2 from 2011-04-26.

Automatic conversion script
Id: cif_fix_values 2281 2013-09-26 08:29:07Z andrius 

 Adding full bibliography for 1517553--1517556.cif.
;
_cod_original_sg_symbol_H-M      P-1
_cod_database_code               1517556
#BEGIN Tags that were not found in dictionaries:
_shelx_space_group_comment
;
The symmetry employed for this shelxl refinement is uniquely defined
by the following loop, which should always be used as a source of
symmetry information in preference to the above space-group names.
They are only intended as comments.
;
_shelx_estimated_absorpt_t_min   0.962
_shelx_estimated_absorpt_t_max   0.981
_shelxl_version_number           2014-3
_shelx_res_file
;
TITL mo_np548_0m in P-1
CELL 0.71073  12.69810  13.64520  22.48610 104.2584  92.0656 116.3051
ZERR    6.00   0.00070   0.00080   0.00120   0.0017   0.0016   0.0015
LATT 1
SFAC C  H  N  O  S  Cl
UNIT 138  120  6  24  12  6
L.S. 15
BOND
FMAP 2
PLAN 10
acta
conf
SIZE 0.05 0.10 0.10
TEMP -173.000
WGHT    0.100000
FVAR       0.10724
MOLE 1
CL1A  6    1.447446    0.317466    0.763340    11.00000    0.02354    0.04574 =
         0.04875    0.01585   -0.00805    0.00589
S1A   5    0.793738    0.083606    0.625962    11.00000    0.01989    0.01926 =
         0.01778    0.00323    0.00057    0.01056
S2A   5    0.846235   -0.062090    0.685352    11.00000    0.02129    0.01787 =
         0.01537    0.00526    0.00335    0.00769
N1A   3    0.874946    0.017953    0.635460    11.00000    0.02143    0.02252 =
         0.01587    0.00878    0.00584    0.01281
O1A   4    0.740146    0.092936    0.680160    11.00000    0.02735    0.03126 =
         0.01776    0.00192    0.00222    0.01842
O2A   4    0.874019    0.185072    0.611642    11.00000    0.02397    0.01953 =
         0.02954    0.00705   -0.00238    0.00892
O3A   4    0.720375   -0.130611    0.676192    11.00000    0.02234    0.02457 =
         0.02091    0.00478    0.00263    0.00237
O4A   4    0.922689   -0.113937    0.673753    11.00000    0.03453    0.02333 =
         0.02016    0.00782    0.00721    0.01789
C1A   1    0.926397   -0.172361    0.517256    11.00000    0.03243    0.02780 =
         0.02256    0.00827    0.00768    0.01606
AFIX 163
H1A   2    0.910537   -0.242584    0.487887    11.00000   -1.20000
AFIX   0
C2A   1    0.946274   -0.084348    0.554065    11.00000    0.02262    0.02747 =
         0.01879    0.00956    0.00499    0.01254
C3A   1    0.970384    0.027028    0.596106    11.00000    0.02091    0.02205 =
         0.01538    0.00711    0.00532    0.01075
AFIX  13
H3A   2    0.965821    0.072818    0.568490    11.00000   -1.20000
AFIX   0
C4A   1    1.094240    0.097092    0.635626    11.00000    0.02042    0.02320 =
         0.01515    0.00837    0.00555    0.00945
C5A   1    1.161790    0.047206    0.651326    11.00000    0.02367    0.02693 =
         0.02302    0.01023    0.00802    0.01319
AFIX  43
H5A   2    1.133384   -0.032890    0.635073    11.00000   -1.20000
AFIX   0
C6A   1    1.270996    0.114788    0.690861    11.00000    0.02171    0.03847 =
         0.02429    0.01221    0.00598    0.01697
AFIX  43
H6A   2    1.316854    0.081126    0.702415    11.00000   -1.20000
AFIX   0
C7A   1    1.311945    0.231545    0.713121    11.00000    0.01829    0.03609 =
         0.02338    0.01158    0.00418    0.00818
C8A   1    1.247718    0.283142    0.696394    11.00000    0.02500    0.02603 =
         0.02562    0.00720    0.00569    0.00833
AFIX  43
H8A   2    1.278082    0.363697    0.711164    11.00000   -1.20000
AFIX   0
C9A   1    1.138664    0.215197    0.657820    11.00000    0.02222    0.02485 =
         0.02304    0.00806    0.00547    0.01179
AFIX  43
H9A   2    1.093396    0.249414    0.646281    11.00000   -1.20000
AFIX   0
C10A  1    0.682474   -0.004213    0.560942    11.00000    0.02053    0.01864 =
         0.01845    0.00244    0.00033    0.01131
C11A  1    0.706371    0.004429    0.501724    11.00000    0.02375    0.02975 =
         0.02116    0.00547    0.00559    0.01525
AFIX  43
H11A  2    0.783623    0.054664    0.496188    11.00000   -1.20000
AFIX   0
C12A  1    0.615648   -0.061362    0.451592    11.00000    0.02947    0.03581 =
         0.01729    0.00243    0.00333    0.02027
AFIX  43
H12A  2    0.631074   -0.055347    0.411268    11.00000   -1.20000
AFIX   0
C13A  1    0.501506   -0.136744    0.458328    11.00000    0.02874    0.02241 =
         0.02332   -0.00135   -0.00363    0.01737
C14A  1    0.479372   -0.141826    0.518081    11.00000    0.02179    0.01820 =
         0.03492    0.00631    0.00121    0.01002
AFIX  43
H14A  2    0.401564   -0.190708    0.523633    11.00000   -1.20000
AFIX   0
C15A  1    0.568753   -0.076908    0.569484    11.00000    0.02405    0.02025 =
         0.02081    0.00628    0.00344    0.01180
AFIX  43
H15A  2    0.552939   -0.081763    0.609921    11.00000   -1.20000
AFIX   0
C16A  1    0.406467   -0.211170    0.401926    11.00000    0.03541    0.03001 =
         0.03110   -0.00366   -0.00921    0.02016
AFIX 137
H16A  2    0.406832   -0.165233    0.374526    11.00000   -1.50000
H16B  2    0.328443   -0.243431    0.415020    11.00000   -1.50000
H16C  2    0.422242   -0.273306    0.379507    11.00000   -1.50000
AFIX   0
C17A  1    0.894427    0.030404    0.761303    11.00000    0.02165    0.01963 =
         0.01667    0.00662    0.00354    0.00866
C18A  1    0.813472    0.050880    0.795193    11.00000    0.02277    0.03199 =
         0.01776    0.00698    0.00426    0.01375
AFIX  43
H18A  2    0.732592    0.019072    0.776601    11.00000   -1.20000
AFIX   0
C19A  1    0.852172    0.118242    0.856414    11.00000    0.03124    0.03134 =
         0.01965    0.00592    0.00709    0.01781
AFIX  43
H19A  2    0.797027    0.132791    0.879707    11.00000   -1.20000
AFIX   0
C20A  1    0.969789    0.165173    0.884688    11.00000    0.03133    0.02053 =
         0.01999    0.00563    0.00307    0.01032
C21A  1    1.049853    0.142575    0.849814    11.00000    0.02313    0.03256 =
         0.02093    0.00411   -0.00106    0.00729
AFIX  43
H21A  2    1.130443    0.173381    0.868602    11.00000   -1.20000
AFIX   0
C22A  1    1.013166    0.076096    0.788472    11.00000    0.02219    0.02964 =
         0.02247    0.00649    0.00580    0.01174
AFIX  43
H22A  2    1.068139    0.061598    0.765000    11.00000   -1.20000
AFIX   0
C23A  1    1.009508    0.235213    0.951497    11.00000    0.04155    0.03259 =
         0.02016    0.00000   -0.00059    0.01524
AFIX 137
H23A  2    0.952110    0.262494    0.964782    11.00000   -1.50000
H23B  2    1.088059    0.300809    0.956398    11.00000   -1.50000
H23C  2    1.014387    0.188246    0.977100    11.00000   -1.50000
AFIX   0
MOLE 2
CL1B  6    1.296434    0.465413    0.270533    11.00000    0.04781    0.06354 =
         0.07797    0.02953    0.04200    0.02938
S1B   5    0.719955    0.445330    0.381275    11.00000    0.02108    0.01904 =
         0.02645    0.00669    0.00536    0.01105
S2B   5    0.715944    0.221357    0.330809    11.00000    0.02245    0.01794 =
         0.02288    0.00420    0.00445    0.00908
N1B   3    0.781674    0.357083    0.377428    11.00000    0.02053    0.01900 =
         0.02394    0.00353    0.00164    0.01091
O1B   4    0.817592    0.558019    0.409119    11.00000    0.02334    0.01829 =
         0.03973    0.00832    0.00802    0.00951
O2B   4    0.657079    0.419728    0.321356    11.00000    0.03101    0.03293 =
         0.02763    0.01189    0.00489    0.01875
O3B   4    0.748233    0.157865    0.362705    11.00000    0.03494    0.02063 =
         0.02787    0.00784    0.00797    0.01468
O4B   4    0.593250    0.191071    0.314703    11.00000    0.02039    0.02469 =
         0.03380    0.00401    0.00493    0.00762
C1B   1    0.887097    0.308991    0.509347    11.00000    0.03090    0.03096 =
         0.03451    0.01607    0.00665    0.01276
AFIX 163
H1B   2    0.884897    0.279269    0.543565    11.00000   -1.20000
AFIX   0
C2B   1    0.889833    0.345941    0.466808    11.00000    0.02340    0.02301 =
         0.02535    0.00590    0.00432    0.01015
C3B   1    0.898870    0.403445    0.418345    11.00000    0.02032    0.02161 =
         0.02435    0.00595    0.00198    0.00986
AFIX  13
H3B   2    0.919120    0.483924    0.441355    11.00000   -1.20000
AFIX   0
C4B   1    0.998149    0.413384    0.381173    11.00000    0.02045    0.01965 =
         0.02523    0.00559    0.00310    0.00756
C5B   1    1.025329    0.486532    0.343762    11.00000    0.03371    0.03157 =
         0.03919    0.01775    0.01231    0.01954
AFIX  43
H5B   2    0.980407    0.526155    0.341861    11.00000   -1.20000
AFIX   0
C6B   1    1.115941    0.501959    0.309738    11.00000    0.03816    0.04116 =
         0.04370    0.02477    0.01750    0.02040
AFIX  43
H6B   2    1.134354    0.552014    0.284491    11.00000   -1.20000
AFIX   0
C7B   1    1.180096    0.442973    0.312966    11.00000    0.02472    0.03181 =
         0.04010    0.00801    0.01278    0.01043
C8B   1    1.155708    0.370077    0.348788    11.00000    0.01975    0.02110 =
         0.04483    0.00372    0.00278    0.00787
AFIX  43
H8B   2    1.200723    0.330367    0.350123    11.00000   -1.20000
AFIX   0
C9B   1    1.063572    0.355192    0.383279    11.00000    0.02147    0.01890 =
         0.02990    0.00612    0.00127    0.00667
AFIX  43
H9B   2    1.045505    0.304894    0.408370    11.00000   -1.20000
AFIX   0
C10B  1    0.621152    0.413278    0.434433    11.00000    0.02146    0.01691 =
         0.02689    0.00633    0.00614    0.01153
C11B  1    0.668800    0.454726    0.497538    11.00000    0.02062    0.01993 =
         0.02969    0.00343    0.00229    0.00940
AFIX  43
H11B  2    0.752379    0.498946    0.511215    11.00000   -1.20000
AFIX   0
C12B  1    0.591598    0.429994    0.539791    11.00000    0.03000    0.02424 =
         0.02322    0.00347    0.00355    0.01421
AFIX  43
H12B  2    0.622953    0.457642    0.582979    11.00000   -1.20000
AFIX   0
C13B  1    0.468795    0.365415    0.520475    11.00000    0.02697    0.01757 =
         0.03162    0.00826    0.00994    0.01474
C14B  1    0.423998    0.326082    0.457444    11.00000    0.01979    0.01842 =
         0.03777    0.00670    0.00606    0.00990
AFIX  43
H14B  2    0.340328    0.282742    0.443875    11.00000   -1.20000
AFIX   0
C15B  1    0.499351    0.348872    0.413503    11.00000    0.02174    0.01917 =
         0.02964    0.00596    0.00261    0.01175
AFIX  43
H15B  2    0.468063    0.320986    0.370300    11.00000   -1.20000
AFIX   0
C16B  1    0.387225    0.337151    0.568208    11.00000    0.03268    0.02915 =
         0.04228    0.01413    0.01736    0.01935
AFIX 137
H16D  2    0.313253    0.338139    0.555285    11.00000   -1.50000
H16E  2    0.426977    0.394021    0.608787    11.00000   -1.50000
H16F  2    0.368778    0.261044    0.571373    11.00000   -1.50000
AFIX   0
C17B  1    0.785612    0.226833    0.264792    11.00000    0.02249    0.02067 =
         0.02094    0.00296    0.00253    0.00943
C18B  1    0.867139    0.184782    0.257117    11.00000    0.02918    0.02348 =
         0.02657    0.00611    0.00503    0.01419
AFIX  43
H18B  2    0.880484    0.148300    0.285359    11.00000   -1.20000
AFIX   0
C19B  1    0.928700    0.196769    0.207732    11.00000    0.03300    0.02918 =
         0.03054    0.00450    0.00748    0.01932
AFIX  43
H19B  2    0.984099    0.167440    0.201914    11.00000   -1.20000
AFIX   0
C20B  1    0.910915    0.251158    0.166297    11.00000    0.03317    0.02864 =
         0.02099    0.00295    0.00494    0.01173
C21B  1    0.825145    0.288573    0.173801    11.00000    0.03476    0.03697 =
         0.02112    0.00936    0.00179    0.01757
AFIX  43
H21B  2    0.809306    0.322266    0.144647    11.00000   -1.20000
AFIX   0
C22B  1    0.762545    0.277569    0.222964    11.00000    0.02706    0.03239 =
         0.02621    0.00673    0.00236    0.01586
AFIX  43
H22B  2    0.704890    0.304208    0.228011    11.00000   -1.20000
AFIX   0
C23B  1    0.985103    0.271676    0.115711    11.00000    0.05280    0.05296 =
         0.03522    0.01557    0.01900    0.03038
AFIX 137
H23D  2    0.942019    0.280026    0.081838    11.00000   -1.50000
H23E  2    1.000910    0.206739    0.099753    11.00000   -1.50000
H23F  2    1.060743    0.341640    0.132567    11.00000   -1.50000
AFIX   0
MOLE 3
CL1C  6    0.873055    0.924595   -0.065557    11.00000    0.04053    0.05330 =
         0.07221    0.03135    0.01572    0.02213
S1C   5    0.342891    0.759615    0.011806    11.00000    0.02460    0.02453 =
         0.02965    0.00581    0.00121    0.01048
S2C   5    0.309682    0.576343    0.067020    11.00000    0.02665    0.02078 =
         0.03696    0.00626   -0.00382    0.00538
N1C   3    0.394373    0.708418    0.060519    11.00000    0.02428    0.02159 =
         0.03321    0.00638   -0.00461    0.00427
O1C   4    0.384265    0.877789    0.042670    11.00000    0.03927    0.02522 =
         0.03601    0.00620    0.00637    0.01624
O2C   4    0.217992    0.684571   -0.005773    11.00000    0.02433    0.03727 =
         0.03181    0.00885    0.00137    0.01228
O3C   4    0.257407    0.499642    0.006157    11.00000    0.02941    0.02358 =
         0.04107   -0.00057    0.00201    0.00522
O4C   4    0.387291    0.558669    0.105926    11.00000    0.03783    0.03075 =
         0.05852    0.01697   -0.00766    0.01207
C1C   1    0.507458    0.946863    0.195412    11.00000    0.04270    0.03707 =
         0.04725   -0.00365   -0.01005    0.00846
AFIX 163
H1C   2    0.507641    1.003916    0.229676    11.00000   -1.20000
AFIX   0
C2C   1    0.507231    0.876182    0.152964    11.00000    0.03038    0.02765 =
         0.03895    0.00285   -0.00630    0.00241
C3C   1    0.512414    0.785763    0.103540    11.00000    0.02593    0.02388 =
         0.03875    0.00644   -0.00637    0.00498
AFIX  13
H3C   2    0.528984    0.736700    0.124931    11.00000   -1.20000
AFIX   0
C4C   1    0.610576    0.826025    0.065289    11.00000    0.02322    0.02504 =
         0.04244    0.00755   -0.00677    0.00638
C5C   1    0.633173    0.744442    0.025154    11.00000    0.02573    0.02635 =
         0.05263    0.01384   -0.00272    0.00725
AFIX  43
H5C   2    0.590955    0.666758    0.024761    11.00000   -1.20000
AFIX   0
C6C   1    0.715331    0.774186   -0.013861    11.00000    0.02844    0.03746 =
         0.05773    0.01343   -0.00049    0.01726
AFIX  43
H6C   2    0.730144    0.717927   -0.040996    11.00000   -1.20000
AFIX   0
C7C   1    0.775992    0.887465   -0.012879    11.00000    0.02404    0.03971 =
         0.05228    0.02146    0.00315    0.01303
C8C   1    0.758674    0.971083    0.027389    11.00000    0.03106    0.02813 =
         0.06124    0.01606    0.00059    0.00521
AFIX  43
H8C   2    0.802801    1.048816    0.028185    11.00000   -1.20000
AFIX   0
C9C   1    0.675372    0.939993    0.067007    11.00000    0.03154    0.02739 =
         0.04972    0.00595   -0.00520    0.00684
AFIX  43
H9C   2    0.662956    0.996874    0.095203    11.00000   -1.20000
AFIX   0
C10C  1    0.412499    0.748583   -0.053863    11.00000    0.02385    0.03014 =
         0.02801    0.00628    0.00103    0.01356
C11C  1    0.392165    0.642068   -0.091139    11.00000    0.03041    0.02824 =
         0.03873    0.00498    0.00203    0.01214
AFIX  43
H11C  2    0.341724    0.574392   -0.081116    11.00000   -1.20000
AFIX   0
C12C  1    0.447022    0.636525   -0.143309    11.00000    0.03403    0.03437 =
         0.03765    0.00267    0.00324    0.01792
AFIX  43
H12C  2    0.434286    0.564210   -0.168858    11.00000   -1.20000
AFIX   0
C13C  1    0.520579    0.735241   -0.158948    11.00000    0.02570    0.04502 =
         0.03045    0.00749    0.00178    0.01751
C14C  1    0.537281    0.839322   -0.121293    11.00000    0.03247    0.03847 =
         0.03710    0.01640    0.00746    0.01518
AFIX  43
H14C  2    0.586546    0.907058   -0.131584    11.00000   -1.20000
AFIX   0
C15C  1    0.483901    0.847420   -0.068809    11.00000    0.03082    0.02800 =
         0.03361    0.00625    0.00174    0.01468
AFIX  43
H15C  2    0.496175    0.919734   -0.043502    11.00000   -1.20000
AFIX   0
C16C  1    0.581388    0.729231   -0.215113    11.00000    0.03832    0.05679 =
         0.04196    0.00772    0.00978    0.02141
AFIX 137
H16G  2    0.666864    0.759061   -0.201520    11.00000   -1.50000
H16H  2    0.569419    0.775158   -0.239378    11.00000   -1.50000
H16I  2    0.547407    0.649569   -0.240947    11.00000   -1.50000
AFIX   0
C17C  1    0.198122    0.587371    0.107787    11.00000    0.03147    0.01896 =
         0.02802    0.00723   -0.00158    0.00438
C18C  1    0.081041    0.531253    0.077954    11.00000    0.03322    0.02578 =
         0.02422    0.00362   -0.00034    0.00750
AFIX  43
H18C  2    0.060430    0.486663    0.035563    11.00000   -1.20000
AFIX   0
C19C  1   -0.005526    0.541045    0.110769    11.00000    0.03640    0.03178 =
         0.03060    0.00737    0.00382    0.01083
AFIX  43
H19C  2   -0.086291    0.502052    0.090759    11.00000   -1.20000
AFIX   0
C20C  1    0.023855    0.607165    0.172677    11.00000    0.05451    0.02528 =
         0.02977    0.01064    0.01279    0.01785
C21C  1    0.142705    0.663472    0.200961    11.00000    0.06698    0.02189 =
         0.01967    0.00223    0.00083    0.01271
AFIX  43
H21C  2    0.164010    0.709733    0.243028    11.00000   -1.20000
AFIX   0
C22C  1    0.230529    0.653714    0.169314    11.00000    0.04343    0.02576 =
         0.02398    0.00674   -0.00536    0.00429
AFIX  43
H22C  2    0.311234    0.691653    0.189326    11.00000   -1.20000
AFIX   0
C23C  1   -0.069748    0.616894    0.208430    11.00000    0.07875    0.04666 =
         0.04106    0.01523    0.02556    0.03525
AFIX 137
H23G  2   -0.132453    0.614384    0.180439    11.00000   -1.50000
H23H  2   -0.033983    0.689435    0.241808    11.00000   -1.50000
H23I  2   -0.104196    0.553245    0.226489    11.00000   -1.50000
AFIX   0
HKLF 4
REM  mo_np548_0m in P-1
REM R1 =  0.0400 for   12444 Fo > 4sig(Fo)  and  0.0485 for all   14621 data
REM    844 parameters refined using      0 restraints
END
WGHT      0.0509      2.3859
REM Highest difference peak  1.203,  deepest hole -0.678,  1-sigma level  0.059
Q1    1   0.5023  0.9719  0.2451  11.00000  0.05    1.20
Q2    1   1.2559  0.4287  0.2341  11.00000  0.05    0.54
Q3    1   0.8607  0.8861 -0.1104  11.00000  0.05    0.46
Q4    1   0.7364  0.0360  0.5917  11.00000  0.05    0.43
Q5    1   0.2537  0.5742  0.0900  11.00000  0.05    0.43
Q6    1   0.1937  0.6433  0.1895  11.00000  0.05    0.39
Q7    1   0.7718 -0.0858  0.6846  11.00000  0.05    0.38
Q8    1   0.3816  0.7416 -0.0230  11.00000  0.05    0.37
Q9    1   0.8595  0.0534  0.7735  11.00000  0.05    0.36
Q10   1   0.8539 -0.0072  0.6571  11.00000  0.05    0.36
;
_shelx_res_checksum              45118
_shelx_hkl_file
;
   1   0   0    0.09    0.02
  -2   0   0   20.00    0.66
   2   0   0   21.65    0.66
  -3   0   0    0.71    0.06
   3   0   0    0.77    0.07
  -4   0   0    0.29    0.05
  -5   0   0   27.29    0.90
   5   0   0   27.86    0.84
   5   0   0   26.67    0.90
  -6   0   0    0.55    0.08
   6   0   0    0.63    0.04
   6   0   0    0.62    0.08
  -7   0   0   25.48    0.86
   7   0   0   24.36    0.79
  -8   0   0    5.98    0.29
   8   0   0    6.09    0.27
  -9   0   0    2.85    0.20
   9   0   0    3.52    0.20
 -10   0   0   14.25    0.57
  10   0   0   13.57    0.52
 -11   0   0    0.66    0.13
  11   0   0    1.04    0.14
 -12   0   0    2.70    0.24
  12   0   0    3.15    0.23
 -13   0   0   -0.08    0.10
  13   0   0    0.10    0.09
 -14   0   0    3.15    0.30
 -14   1   0    8.17    0.46
  13  -1   0    2.29    0.21
 -13   1   0    2.36    0.24
  12  -1   0    1.36    0.16
 -12   1   0    0.91    0.15
  11  -1   0   32.41    1.06
 -11   1   0   33.27    1.16
  10  -1   0   20.46    0.70
 -10   1   0   20.52    0.76
   9  -1   0    0.49    0.09
  -9   1   0    0.46    0.10
   8  -1   0   22.48    0.73
  -8   1   0   22.60    0.79
   7  -1   0   13.23    0.45
   7  -1   0   13.10    0.39
  -7   1   0   12.80    0.49
   6  -1   0   20.64    0.64
   6  -1   0   23.04    0.69
  -6   1   0   22.35    0.75
   5  -1   0    4.28    0.17
   5  -1   0    4.15    0.14
  -5   1   0    4.08    0.19
   4  -1   0    2.16    0.08
   4  -1   0    2.20    0.12
   4  -1   0    2.33    0.11
  -4   1   0    2.11    0.12
   3  -1   0   38.78    1.12
   3  -1   0   38.96    1.12
   3  -1   0   37.14    1.21
  -3   1   0   39.20    1.21
  -3   1   0   38.84    1.12
   2  -1   0    6.71    0.21
   2  -1   0    6.54    0.21
   2  -1   0    6.68    0.22
   2  -1   0    6.43    0.23
  -2   1   0    6.69    0.20
  -2   1   0    6.54    0.21
  -2   1   0    6.35    0.23
   1  -1   0   61.73    2.39
  -1   1   0   64.28    1.95
  -1   1   0   62.60    1.81
  -1   1   0   59.56    1.79
   0   1   0    6.44    0.20
  -1  -1   0  322.81    9.95
  -4  -1   0    1.76    0.11
   4   1   0    1.95    0.12
  -5  -1   0   32.37    1.06
  -6  -1   0   35.26    1.16
  -7  -1   0   31.65    1.06
  -8  -1   0    7.61    0.34
   8   1   0    7.47    0.32
  -9  -1   0    5.44    0.29
   9   1   0    5.20    0.27
 -10  -1   0    0.11    0.09
  10   1   0    0.20    0.09
 -11  -1   0    0.18    0.10
  11   1   0    0.17    0.09
 -12  -1   0    0.31    0.12
  12   1   0    0.65    0.14
 -13  -1   0   -0.04    0.11
  13   1   0   -0.01    0.10
 -14  -1   0    0.77    0.17
  15  -2   0   -0.09    0.15
 -15   2   0   -0.01    0.12
  14  -2   0    0.11    0.15
  14  -2   0    0.05    0.09
 -14   2   0    0.00    0.11
  13  -2   0    0.55    0.17
  13  -2   0    0.35    0.11
 -13   2   0    0.47    0.14
  12  -2   0    4.66    0.26
 -12   2   0    4.51    0.30
  11  -2   0    0.46    0.10
 -11   2   0    0.51    0.12
  10  -2   0   10.01    0.39
 -10   2   0   10.01    0.44
   9  -2   0    3.19    0.18
  -9   2   0    2.86    0.20
   8  -2   0    0.90    0.10
  -8   2   0    1.30    0.13
   7  -2   0    0.63    0.08
  -7   2   0    0.59    0.09
   6  -2   0   19.02    0.61
   6  -2   0   19.15    0.59
   6  -2   0   20.42    0.68
  -6   2   0   19.67    0.67
   5  -2   0   52.12    1.56
   5  -2   0   52.34    1.58
   5  -2   0   55.77    1.69
   5  -2   0   53.12    1.55
  -5   2   0   54.02    1.69
  -5   2   0   52.80    1.56
   4  -2   0   73.78    2.11
   4  -2   0   69.79    2.26
   4  -2   0   71.33    2.09
   4  -2   0   74.41    2.10
  -4   2   0   72.82    2.10
  -4   2   0   73.32    2.26
  -4   2   0   72.34    2.09
   3  -2   0   20.84    0.64
   3  -2   0   20.39    0.68
   3  -2   0   20.52    0.63
   3  -2   0   20.65    0.63
  -3   2   0   21.68    0.63
  -3   2   0   21.71    0.68
  -3   2   0   20.94    0.63
   2  -2   0   93.40    2.99
   2  -2   0  101.45    2.82
   2  -2   0   94.24    2.78
  -2   2   0   95.92    2.81
  -2   2   0   94.81    2.78
  -2   2   0  104.63    3.03
   1  -2   0  514.78   15.03
   1  -2   0  524.92   16.19
   1  -2   0  516.13   15.08
  -1   2   0  546.37   15.10
  -1   2   0  531.62   16.20
   0  -2   0    0.07    0.02
   0  -2   0    0.03    0.03
   0  -2   0    0.08    0.04
   0   2   0    0.04    0.03
   0   2   0    0.07    0.03
  -1  -2   0    3.40    0.14
  -1  -2   0    3.78    0.16
   1   2   0    3.24    0.15
  -2  -2   0   92.95    2.84
   2   2   0   95.32    2.67
   2   2   0   87.91    2.84
  -3  -2   0    0.25    0.05
  -4  -2   0   40.43    1.30
  -5  -2   0    0.10    0.05
  -6  -2   0   26.44    0.89
  -7  -2   0   18.22    0.66
  -8  -2   0    2.13    0.17
   8   2   0    2.05    0.09
  -9  -2   0    0.92    0.13
   9   2   0    1.20    0.15
 -10  -2   0    0.47    0.12
  10   2   0    0.48    0.12
 -11  -2   0    0.08    0.10
  11   2   0    0.07    0.10
 -12  -2   0    0.64    0.15
  12   2   0    0.95    0.16
 -13  -2   0    0.06    0.12
  13   2   0    0.15    0.11
  15  -3   0    0.09    0.14
 -15   3   0   -0.04    0.12
  14  -3   0    1.20    0.21
  14  -3   0    1.53    0.18
 -14   3   0    1.53    0.21
  13  -3   0    3.24    0.23
  13  -3   0    2.52    0.27
 -13   3   0    3.21    0.26
  12  -3   0    0.65    0.12
  12  -3   0    0.59    0.16
 -12   3   0    0.51    0.13
  11  -3   0   22.65    0.79
  11  -3   0   25.05    0.87
 -11   3   0   23.49    0.88
  10  -3   0    7.08    0.31
  10  -3   0    7.27    0.36
 -10   3   0    7.10    0.35
   9  -3   0   46.92    1.46
   9  -3   0   46.22    1.41
  -9   3   0   45.88    1.54
   8  -3   0    1.08    0.10
   8  -3   0    1.04    0.13
  -8   3   0    1.07    0.13
   7  -3   0    1.49    0.12
   7  -3   0    1.29    0.13
   7  -3   0    1.34    0.10
  -7   3   0    1.49    0.13
  -7   3   0    1.44    0.11
   6  -3   0    1.02    0.11
   6  -3   0    0.96    0.08
  -6   3   0    0.87    0.06
  -6   3   0    1.08    0.10
   5  -3   0   26.92    0.92
   5  -3   0   27.43    0.87
   5  -3   0   27.87    0.85
  -5   3   0   28.86    0.85
  -5   3   0   29.48    0.92
  -5   3   0   27.68    0.84
   4  -3   0   12.44    0.42
   4  -3   0   13.17    0.44
   4  -3   0   12.23    0.40
  -4   3   0   12.39    0.40
  -4   3   0   12.29    0.40
  -4   3   0   12.96    0.44
   3  -3   0   17.19    0.56
   3  -3   0   18.30    0.59
   3  -3   0   18.49    0.56
  -3   3   0   18.25    0.60
  -3   3   0   18.15    0.55
  -3   3   0   17.67    0.56
   2  -3   0  183.96    5.50
   2  -3   0  171.15    5.06
   2  -3   0  176.77    5.06
  -2   3   0  175.58    5.43
  -2   3   0  167.43    5.07
  -2   3   0  181.13    5.02
   1  -3   0    2.04    0.10
   1  -3   0    2.06    0.11
   1  -3   0    2.01    0.12
  -1   3   0    2.05    0.10
   0  -3   0   13.25    0.44
   0  -3   0   13.35    0.44
   0   3   0   13.14    0.44
   0   3   0   13.66    0.44
  -1  -3   0   13.71    0.47
   1   3   0   14.08    0.47
  -2  -3   0   55.38    1.78
   2   3   0   58.03    1.69
  -3  -3   0  129.34    4.00
  -4  -3   0   17.61    0.61
  -5  -3   0   45.50    1.47
  -6  -3   0    3.26    0.19
  -7  -3   0    0.63    0.10
   7   3   0    0.66    0.07
  -8  -3   0   12.83    0.51
  -9  -3   0    7.91    0.37
 -10  -3   0    2.85    0.22
  10   3   0    2.76    0.23
 -11  -3   0    5.92    0.34
  11   3   0    5.09    0.32
 -12  -3   0   -0.03    0.10
  12   3   0   -0.10    0.09
 -13  -3   0    0.54    0.15
  15  -4   0    0.45    0.17
 -15   4   0    0.52    0.16
  14  -4   0    0.04    0.14
  14  -4   0   -0.09    0.09
 -14   4   0    0.10    0.11
  13  -4   0    3.67    0.24
  13  -4   0    3.74    0.31
 -13   4   0    3.79    0.29
  12  -4   0   -0.03    0.07
  12  -4   0    0.03    0.10
 -12   4   0   -0.01    0.09
  11  -4   0    4.92    0.26
  11  -4   0    4.99    0.31
 -11   4   0    5.23    0.31
  10  -4   0    1.06    0.15
  10  -4   0    1.16    0.13
 -10   4   0    1.10    0.15
   9  -4   0   15.24    0.52
   9  -4   0   14.75    0.56
  -9   4   0   14.56    0.57
   8  -4   0   10.12    0.38
   8  -4   0   10.69    0.42
  -8   4   0   10.54    0.42
   7  -4   0   14.58    0.53
   7  -4   0   15.72    0.55
   7  -4   0   14.79    0.50
  -7   4   0   15.44    0.55
  -7   4   0   14.57    0.48
  -7   4   0   14.50    0.49
   6  -4   0   25.40    0.79
   6  -4   0   25.87    0.82
   6  -4   0   24.77    0.86
  -6   4   0   24.53    0.86
  -6   4   0   26.75    0.79
  -6   4   0   26.60    0.79
   5  -4   0    7.19    0.28
   5  -4   0    6.51    0.26
   5  -4   0    7.13    0.28
  -5   4   0    7.10    0.29
  -5   4   0    7.15    0.25
   4  -4   0    4.69    0.19
   4  -4   0    4.93    0.20
   4  -4   0    4.96    0.20
  -4   4   0    4.77    0.19
  -4   4   0    4.73    0.20
  -4   4   0    4.32    0.19
   3  -4   0  624.47   18.23
   3  -4   0  658.10   18.18
   3  -4   0  612.99   19.49
  -3   4   0  630.34   18.12
  -3   4   0  618.01   19.54
  -3   4   0  656.15   18.39
   2  -4   0  369.20   11.70
   2  -4   0  399.81   10.96
   2  -4   0  394.77   10.91
  -2   4   0  349.24   10.75
  -2   4   0  373.73   11.69
   1  -4   0  121.07    3.45
   1  -4   0  119.79    3.45
   1  -4   0  118.09    3.68
  -1   4   0  118.91    3.68
   0  -4   0    3.11    0.14
   0  -4   0    3.07    0.17
   0   4   0    2.84    0.16
   0   4   0    3.00    0.16
  -1  -4   0   82.09    2.42
   1   4   0   82.57    2.42
   1   4   0   82.24    2.42
  -2  -4   0    6.03    0.25
  -3  -4   0    0.45    0.07
  -4  -4   0   21.04    0.72
  -5  -4   0    3.89    0.21
  -6  -4   0   53.69    1.70
   6   4   0   50.91    1.56
  -7  -4   0    8.18    0.36
  -8  -4   0    8.13    0.37
  -9  -4   0    0.40    0.11
 -10  -4   0   -0.05    0.08
 -11  -4   0    6.45    0.37
  11   4   0    6.23    0.36
 -12  -4   0    1.49    0.20
  12   4   0    1.95    0.23
  16  -5   0    3.16    0.34
 -16   5   0    3.11    0.35
  15  -5   0    0.67    0.19
 -15   5   0    0.82    0.19
  14  -5   0    3.95    0.26
  14  -5   0    4.27    0.34
 -14   5   0    4.38    0.33
  13  -5   0    2.87    0.21
  13  -5   0    3.15    0.27
 -13   5   0    3.26    0.26
  12  -5   0    8.32    0.43
  12  -5   0    8.01    0.36
 -12   5   0    8.50    0.42
  11  -5   0    0.15    0.11
  11  -5   0    0.22    0.09
 -11   5   0    0.32    0.11
  10  -5   0   21.59    0.72
  10  -5   0   20.23    0.75
 -10   5   0   22.03    0.80
   9  -5   0   11.60    0.43
   9  -5   0   11.95    0.47
  -9   5   0   11.85    0.49
  -9   5   0   12.35    0.40
   8  -5   0    1.29    0.12
   8  -5   0    1.38    0.12
   8  -5   0    1.21    0.14
  -8   5   0    1.01    0.12
  -8   5   0    1.04    0.09
   7  -5   0    4.32    0.21
   7  -5   0    4.38    0.23
  -7   5   0    4.89    0.24
  -7   5   0    4.49    0.19
   6  -5   0   10.60    0.40
   6  -5   0   10.77    0.38
   6  -5   0   10.89    0.41
  -6   5   0   10.65    0.38
  -6   5   0   10.82    0.41
  -6   5   0   10.80    0.37
   5  -5   0   80.57    2.33
   5  -5   0   78.05    2.33
   5  -5   0   82.16    2.49
  -5   5   0   78.79    2.32
  -5   5   0   79.07    2.50
  -5   5   0   78.05    2.34
   4  -5   0  149.18    4.28
   4  -5   0  142.35    4.59
   4  -5   0  157.47    4.29
  -4   5   0  145.90    4.60
  -4   5   0  150.09    4.32
  -4   5   0  147.53    4.27
   3  -5   0   47.36    1.53
   3  -5   0   49.03    1.45
   3  -5   0   48.22    1.45
  -3   5   0   49.63    1.54
   2  -5   0   75.40    2.15
   2  -5   0   73.01    2.16
   2  -5   0   73.62    2.28
  -2   5   0   70.61    2.28
   1  -5   0    7.95    0.29
   1  -5   0    7.53    0.31
   1  -5   0    7.27    0.31
  -1   5   0    7.50    0.30
  -1   5   0    8.01    0.28
   0  -5   0   10.36    0.40
   0  -5   0   10.73    0.38
   0   5   0   11.09    0.40
   0   5   0    9.85    0.39
  -1  -5   0    0.15    0.08
  -2  -5   0   43.17    1.37
  -2  -5   0   41.64    1.33
  -3  -5   0   43.31    1.40
  -4  -5   0    7.80    0.33
  -5  -5   0    0.48    0.09
   5   5   0    0.46    0.07
  -6  -5   0   11.96    0.48
   6   5   0   11.78    0.42
  -7  -5   0    2.43    0.19
  -8  -5   0    3.06    0.22
  -9  -5   0   16.65    0.66
 -10  -5   0    0.06    0.09
 -11  -5   0    0.22    0.11
  11   5   0    0.05    0.12
  16  -6   0    6.15    0.42
  15  -6   0    1.13    0.21
  15  -6   0    0.68    0.16
 -15   6   0    1.16    0.21
  14  -6   0    2.60    0.27
  14  -6   0    2.52    0.22
 -14   6   0    2.16    0.24
  13  -6   0    6.12    0.38
  13  -6   0    6.20    0.32
 -13   6   0    6.02    0.37
  12  -6   0   28.16    1.00
  12  -6   0   27.88    0.94
 -12   6   0   29.04    1.05
  11  -6   0   12.68    0.49
  11  -6   0   13.31    0.55
 -11   6   0   13.09    0.56
  10  -6   0   13.42    0.49
  10  -6   0   11.77    0.52
 -10   6   0   14.24    0.55
   9  -6   0   12.26    0.49
   9  -6   0   11.72    0.45
  -9   6   0   12.93    0.51
   8  -6   0   12.24    0.45
   8  -6   0   12.03    0.48
   8  -6   0   12.37    0.49
  -8   6   0   13.29    0.50
   7  -6   0    0.04    0.06
   7  -6   0   -0.01    0.06
   7  -6   0    0.06    0.05
  -7   6   0    0.02    0.05
   6  -6   0   37.38    1.23
   6  -6   0   38.79    1.16
  -6   6   0   36.20    1.23
   5  -6   0   95.10    2.72
   5  -6   0   92.64    2.72
   5  -6   0   97.35    2.91
  -5   6   0   90.39    2.76
  -5   6   0   88.29    2.91
   4  -6   0    4.52    0.21
   4  -6   0    4.78    0.23
   4  -6   0    4.86    0.23
  -4   6   0    4.81    0.21
  -4   6   0    3.90    0.22
  -4   6   0    4.74    0.22
   3  -6   0   31.97    1.04
   3  -6   0   35.27    1.05
   3  -6   0   33.18    1.08
  -3   6   0   34.41    1.09
  -3   6   0   32.46    1.03
   2  -6   0   42.06    1.35
   2  -6   0   42.25    1.30
   2  -6   0   40.47    1.29
  -2   6   0   43.47    1.35
   1  -6   0    2.40    0.17
   1  -6   0    2.28    0.16
   1  -6   0    2.48    0.14
   0  -6   0   52.97    1.66
   0  -6   0   55.59    1.72
  -1  -6   0    0.28    0.06
  -1  -6   0    0.34    0.09
  -2  -6   0   39.66    1.30
  -2  -6   0   41.23    1.32
  -3  -6   0   23.36    0.81
  -4  -6   0    7.55    0.33
  -5  -6   0    5.91    0.29
  -6  -6   0   15.55    0.60
  -7  -6   0    0.06    0.07
  -8  -6   0    0.05    0.08
  -9  -6   0    2.20    0.21
 -10  -6   0    0.69    0.14
  16  -7   0    3.65    0.35
  15  -7   0    2.77    0.29
  15  -7   0    2.72    0.24
  14  -7   0    1.20    0.20
  14  -7   0    1.10    0.16
 -14   7   0    0.92    0.18
  13  -7   0   -0.06    0.09
  13  -7   0    0.15    0.12
 -13   7   0   -0.09    0.10
  12  -7   0    3.83    0.29
  12  -7   0    3.48    0.23
 -12   7   0    3.51    0.27
  11  -7   0    0.22    0.09
  11  -7   0    0.15    0.11
 -11   7   0    0.22    0.11
  10  -7   0    2.25    0.22
  10  -7   0    2.08    0.17
 -10   7   0    1.78    0.18
   9  -7   0    5.52    0.27
   9  -7   0    6.62    0.32
   9  -7   0    5.86    0.30
  -9   7   0    6.07    0.31
   8  -7   0    0.68    0.10
   8  -7   0    0.67    0.12
  -8   7   0    0.68    0.11
   7  -7   0   15.05    0.57
   7  -7   0   16.15    0.59
   7  -7   0   15.45    0.56
  -7   7   0   17.55    0.61
   6  -7   0   14.13    0.52
   6  -7   0   14.61    0.53
   6  -7   0   14.36    0.53
  -6   7   0   14.75    0.54
   5  -7   0    8.23    0.33
   5  -7   0    8.19    0.34
   5  -7   0    8.23    0.35
  -5   7   0    8.39    0.34
   4  -7   0    0.58    0.08
   4  -7   0    0.37    0.09
   4  -7   0    0.57    0.10
  -4   7   0    0.50    0.08
   3  -7   0   22.38    0.77
   3  -7   0   23.81    0.78
   3  -7   0   22.41    0.77
   2  -7   0   42.78    1.39
   2  -7   0   45.32    1.40
   2  -7   0   46.13    1.44
  -2   7   0   44.80    1.43
   1  -7   0   16.86    0.59
   1  -7   0   16.94    0.61
   0  -7   0    7.43    0.35
   0  -7   0    7.09    0.30
  -1  -7   0   25.31    0.91
  -1  -7   0   27.20    0.89
  -2  -7   0   22.38    0.83
  -2  -7   0   23.86    0.81
  -3  -7   0   22.48    0.79
  -4  -7   0   17.16    0.64
  -5  -7   0    0.01    0.07
  -6  -7   0    0.66    0.12
  -7  -7   0    8.13    0.39
  -8  -7   0   -0.05    0.08
  -9  -7   0    0.14    0.10
 -10  -7   0    1.11    0.17
  16  -8   0   -0.21    0.13
  15  -8   0    0.89    0.16
  15  -8   0    1.17    0.24
  14  -8   0    3.48    0.31
  14  -8   0    3.36    0.25
  13  -8   0    6.60    0.40
  13  -8   0    7.43    0.36
 -13   8   0    7.52    0.41
  12  -8   0    3.48    0.24
  12  -8   0    3.72    0.28
 -12   8   0    3.81    0.28
  11  -8   0    2.42    0.24
  11  -8   0    2.46    0.20
 -11   8   0    2.00    0.21
  10  -8   0   12.20    0.48
  10  -8   0   11.40    0.50
 -10   8   0   12.07    0.52
   9  -8   0    0.52    0.10
   9  -8   0    0.60    0.11
   9  -8   0    0.59    0.12
  -9   8   0    0.42    0.10
   8  -8   0    0.18    0.09
   8  -8   0    0.26    0.08
   8  -8   0    0.38    0.09
  -8   8   0    0.22    0.08
   7  -8   0   70.85    2.30
   7  -8   0   74.90    2.19
   7  -8   0   70.74    2.17
  -7   8   0   71.91    2.32
   6  -8   0    0.90    0.13
   6  -8   0    1.27    0.14
   6  -8   0    1.34    0.12
  -6   8   0    1.13    0.12
   5  -8   0   12.54    0.49
   5  -8   0   13.50    0.49
   5  -8   0   12.98    0.50
  -5   8   0   12.82    0.49
   4  -8   0    5.47    0.25
   4  -8   0    5.86    0.30
   4  -8   0    5.85    0.29
  -4   8   0    5.77    0.26
   3  -8   0    2.41    0.19
   3  -8   0    2.67    0.20
   3  -8   0    2.43    0.15
  -3   8   0    2.42    0.15
   2  -8   0    1.00    0.15
   2  -8   0    0.85    0.10
   2  -8   0    0.95    0.14
   1  -8   0    0.85    0.10
   1  -8   0    0.97    0.15
   0  -8   0   26.58    0.91
   0  -8   0   25.43    0.88
  -1  -8   0    0.24    0.07
  -1  -8   0    0.30    0.13
  -2  -8   0    9.57    0.46
  -2  -8   0    9.09    0.39
  -2  -8   0    9.42    0.40
  -3  -8   0   39.14    1.31
  -4  -8   0   14.35    0.56
  -5  -8   0    7.78    0.36
  -6  -8   0    2.75    0.22
  -7  -8   0    3.05    0.23
  -8  -8   0    5.62    0.32
  -9  -8   0    0.27    0.11
  16  -9   0    1.14    0.23
  15  -9   0    0.70    0.18
  15  -9   0    0.78    0.16
  14  -9   0    9.02    0.48
  14  -9   0    8.91    0.43
  13  -9   0    4.75    0.33
  13  -9   0    4.37    0.28
  12  -9   0   18.43    0.68
  12  -9   0   17.94    0.72
  11  -9   0   24.68    0.86
  11  -9   0   24.52    0.90
 -11   9   0   24.60    0.92
  10  -9   0    6.87    0.34
  10  -9   0    6.88    0.36
 -10   9   0    6.42    0.35
   9  -9   0   23.29    0.81
   9  -9   0   23.53    0.84
  -9   9   0   23.09    0.86
   8  -9   0    2.42    0.20
   8  -9   0    2.86    0.19
   8  -9   0    2.28    0.20
  -8   9   0    2.71    0.20
   7  -9   0    9.78    0.40
   7  -9   0    8.52    0.40
   7  -9   0    9.63    0.42
  -7   9   0    9.07    0.40
   6  -9   0    0.63    0.10
   6  -9   0    0.44    0.11
   6  -9   0    0.61    0.11
  -6   9   0    0.64    0.10
   5  -9   0   11.92    0.50
   5  -9   0   12.61    0.47
   5  -9   0   12.04    0.49
  -5   9   0   11.85    0.47
   4  -9   0   12.60    0.47
   4  -9   0   11.97    0.50
   4  -9   0   12.09    0.50
  -4   9   0   12.20    0.47
   3  -9   0    0.04    0.05
   3  -9   0    0.21    0.10
   3  -9   0    0.25    0.10
  -3   9   0    0.17    0.06
   2  -9   0   46.09    1.49
   2  -9   0   46.58    1.51
   1  -9   0    1.53    0.19
   1  -9   0    1.69    0.14
   0  -9   0   19.96    0.72
   0  -9   0   20.28    0.76
  -1  -9   0   38.21    1.28
  -1  -9   0   38.74    1.29
  -1  -9   0   37.07    1.27
  -2  -9   0    8.17    0.38
  -2  -9   0    8.71    0.38
  -3  -9   0   43.20    1.45
  -3  -9   0   43.40    1.45
  -4  -9   0    0.32    0.10
  -5  -9   0    8.65    0.40
  -6  -9   0    2.71    0.22
  -7  -9   0    0.10    0.10
  -8  -9   0    6.63    0.36
  16 -10   0    7.25    0.46
  15 -10   0    0.49    0.19
  15 -10   0    0.57    0.15
  14 -10   0    0.55    0.18
  14 -10   0    0.90    0.17
  13 -10   0    0.26    0.12
  13 -10   0    0.08    0.13
  12 -10   0    0.01    0.10
  12 -10   0   -0.05    0.09
  11 -10   0    5.07    0.32
  11 -10   0    4.25    0.28
  10 -10   0    1.53    0.20
  10 -10   0    1.43    0.18
   9 -10   0    5.91    0.30
   9 -10   0    4.72    0.31
  -9  10   0    4.69    0.29
   8 -10   0    6.53    0.35
   8 -10   0    7.40    0.34
   8 -10   0    7.02    0.36
  -8  10   0    6.66    0.34
   7 -10   0   -0.09    0.10
   7 -10   0    0.03    0.09
   7 -10   0   -0.11    0.05
  -7  10   0   -0.02    0.07
   6 -10   0    1.52    0.19
   6 -10   0    2.07    0.16
   6 -10   0    1.70    0.19
  -6  10   0    1.77    0.16
   5 -10   0   27.01    0.94
   5 -10   0   26.75    0.94
   5 -10   0   28.15    0.94
  -5  10   0   26.01    0.94
   4 -10   0   22.79    0.83
   4 -10   0   23.28    0.83
   4 -10   0   22.77    0.80
  -4  10   0   22.50    0.80
   3 -10   0    2.02    0.22
   3 -10   0    2.03    0.22
   3 -10   0    2.19    0.16
   2 -10   0    3.53    0.29
   2 -10   0    4.02    0.22
   1 -10   0    2.72    0.18
   1 -10   0    2.54    0.25
   0 -10   0   14.02    0.62
   0 -10   0   14.40    0.55
  -1 -10   0   35.54    1.25
  -1 -10   0   34.88    1.22
  -1 -10   0   36.15    1.21
  -2 -10   0    0.86    0.13
  -2 -10   0    0.90    0.13
  -3 -10   0    0.66    0.12
  -4 -10   0    7.10    0.36
  -5 -10   0    3.09    0.24
  -6 -10   0   15.63    0.64
  -7 -10   0    0.47    0.12
  16 -11   0    0.20    0.16
  15 -11   0   11.89    0.55
  15 -11   0   12.57    0.63
  14 -11   0    0.52    0.19
  14 -11   0    0.76    0.18
  13 -11   0    0.37    0.14
  13 -11   0    0.32    0.16
  12 -11   0    0.06    0.14
  12 -11   0    0.38    0.13
  11 -11   0    0.53    0.14
  11 -11   0    0.35    0.15
  10 -11   0    2.43    0.26
  10 -11   0    2.53    0.25
   9 -11   0    1.86    0.23
   9 -11   0    1.29    0.18
   8 -11   0   15.43    0.62
   8 -11   0   15.21    0.63
   7 -11   0    0.48    0.14
   7 -11   0    0.43    0.13
   6 -11   0    7.88    0.41
   6 -11   0    8.18    0.36
   6 -11   0    7.65    0.40
   5 -11   0   15.89    0.65
   5 -11   0   15.35    0.59
   5 -11   0   16.27    0.65
  -5  11   0   15.47    0.61
   4 -11   0    6.77    0.39
   4 -11   0    7.21    0.40
   4 -11   0    7.22    0.32
  -4  11   0    6.65    0.31
   3 -11   0   31.43    1.09
   3 -11   0   32.80    1.13
   2 -11   0   11.33    0.53
   2 -11   0   10.22    0.43
   1 -11   0   11.23    0.54
   1 -11   0   10.18    0.44
   0 -11   0    0.12    0.13
   0 -11   0    0.18    0.08
  -1 -11   0    0.34    0.15
  -1 -11   0    0.23    0.10
  -2 -11   0    3.66    0.26
  -3 -11   0    8.04    0.39
  -4 -11   0    4.83    0.30
  -5 -11   0    0.01    0.09
  -6 -11   0    2.08    0.21
  15 -12   0    2.13    0.25
  15 -12   0    2.16    0.29
  14 -12   0    3.76    0.31
  14 -12   0    4.32    0.38
  13 -12   0    0.29    0.15
  13 -12   0    0.40    0.15
  12 -12   0    0.12    0.13
  12 -12   0    0.39    0.17
  11 -12   0    3.90    0.30
  11 -12   0    4.45    0.34
  10 -12   0    8.88    0.47
  10 -12   0    8.12    0.43
   9 -12   0   20.52    0.79
   9 -12   0   20.13    0.80
   8 -12   0   23.86    0.91
   8 -12   0   24.93    0.91
   7 -12   0    1.83    0.22
   7 -12   0    2.16    0.25
   6 -12   0   14.73    0.65
   6 -12   0   15.25    0.65
   5 -12   0    7.64    0.44
   5 -12   0    8.27    0.45
   4 -12   0    1.36    0.21
   4 -12   0    1.21    0.20
   3 -12   0    0.83    0.18
   2 -12   0    0.09    0.12
   1 -12   0    4.60    0.35
   0 -12   0    4.14    0.34
  -1 -12   0    5.26    0.32
  -1 -12   0    5.57    0.40
  -2 -12   0    0.08    0.10
  -3 -12   0    6.79    0.37
  -4 -12   0    1.97    0.20
  15 -13   0    0.25    0.16
  15 -13   0    0.31    0.19
  14 -13   0    6.72    0.42
  14 -13   0    8.34    0.50
  13 -13   0    4.73    0.35
  13 -13   0    4.74    0.39
  12 -13   0    4.70    0.36
  12 -13   0    4.99    0.35
  11 -13   0    7.87    0.45
  11 -13   0    7.82    0.46
  10 -13   0    4.57    0.35
  10 -13   0    4.71    0.37
   9 -13   0    2.11    0.26
   9 -13   0    2.38    0.28
   8 -13   0    0.61    0.18
   8 -13   0    1.12    0.21
   7 -13   0   -0.01    0.13
   7 -13   0    0.04    0.14
   6 -13   0    1.36    0.23
   6 -13   0    1.67    0.24
   5 -13   0    7.05    0.43
   5 -13   0    6.70    0.42
   4 -13   0    8.70    0.49
   3 -13   0    0.06    0.15
   2 -13   0   27.49    1.06
   1 -13   0    0.33    0.19
   0 -13   0    0.88    0.22
   0 -13   0    0.81    0.15
  -1 -13   0    0.97    0.16
  -2 -13   0    7.82    0.41
  -3 -13   0    0.48    0.13
  14 -14   0    3.30    0.33
  14 -14   0    3.65    0.38
  13 -14   0    1.96    0.26
  13 -14   0    2.62    0.32
  12 -14   0    4.82    0.38
  12 -14   0    5.13    0.38
  11 -14   0    7.90    0.47
  11 -14   0    8.29    0.50
  10 -14   0    3.89    0.37
  10 -14   0    3.58    0.35
   9 -14   0   11.64    0.58
   9 -14   0   11.92    0.60
   8 -14   0    0.88    0.19
   8 -14   0    0.69    0.19
   7 -14   0    2.61    0.30
   7 -14   0    3.07    0.32
   6 -14   0    3.40    0.34
   6 -14   0    3.98    0.38
   5 -14   0    2.29    0.29
   4 -14   0    1.65    0.25
   3 -14   0    1.93    0.28
   2 -14   0    0.78    0.21
   1 -14   0   11.12    0.61
   0 -14   0    8.68    0.56
   0 -14   0    9.06    0.46
  -1 -14   0    0.60    0.14
  -2 -14   0    7.17    0.42
  13 -15   0    0.93    0.24
  13 -15   0    1.37    0.24
  12 -15   0    0.49    0.19
  12 -15   0    0.67    0.22
  11 -15   0    8.53    0.51
  11 -15   0    7.95    0.50
  10 -15   0    2.60    0.31
  10 -15   0    1.89    0.27
   9 -15   0    1.34    0.23
   9 -15   0    1.18    0.23
   8 -15   0    2.95    0.33
   8 -15   0    2.81    0.32
   7 -15   0    0.18    0.15
   7 -15   0    0.19    0.18
   6 -15   0    0.20    0.18
   5 -15   0    0.16    0.16
   4 -15   0    0.09    0.16
   3 -15   0    0.15    0.19
   2 -15   0    3.00    0.35
   1 -15   0    3.73    0.40
   1 -15   0    4.40    0.33
   0 -15   0    0.54    0.15
   0 -15   0    0.79    0.23
  12 -16   0    1.09    0.25
  12 -16   0    1.12    0.25
  11 -16   0    0.97    0.22
  11 -16   0    0.82    0.24
  10 -16   0    0.01    0.17
  10 -16   0    0.12    0.18
   9 -16   0    0.23    0.18
   9 -16   0    0.69    0.22
   8 -16   0    0.73    0.23
   8 -16   0    0.56    0.21
   7 -16   0    3.32    0.37
   6 -16   0    1.58    0.29
   5 -16   0    2.28    0.32
   4 -16   0    8.63    0.55
   3 -16   0   -0.05    0.17
   9 -17   0    3.24    0.38
   8 -17   0    3.18    0.39
   7 -17   0   -0.18    0.14
   6 -17   1   10.75    0.65
   7 -17   1    2.29    0.34
   8 -17   1    3.63    0.42
   8 -17   1    4.24    0.44
   9 -17   1    0.99    0.25
   9 -17   1    0.18    0.17
  10 -17   1    2.06    0.30
   2 -16   1    2.27    0.35
   3 -16   1    5.61    0.47
   4 -16   1    0.31    0.21
   5 -16   1    0.09    0.18
   6 -16   1    0.51    0.20
   7 -16   1    2.20    0.32
   7 -16   1    2.43    0.32
   8 -16   1    1.54    0.26
   8 -16   1    1.44    0.26
   9 -16   1    1.53    0.26
   9 -16   1    1.06    0.25
  10 -16   1    0.11    0.17
  10 -16   1    0.15    0.19
  11 -16   1    1.62    0.29
  11 -16   1    1.26    0.27
  12 -16   1    1.16    0.25
  12 -16   1    1.24    0.27
   0 -15   1    0.68    0.15
   0 -15   1    0.86    0.24
   1 -15   1   -0.01    0.11
   1 -15   1    0.17    0.17
   2 -15   1    4.82    0.45
   3 -15   1    1.14    0.25
   4 -15   1    0.21    0.17
   5 -15   1   -0.04    0.16
   6 -15   1    6.92    0.46
   6 -15   1    6.47    0.45
   7 -15   1    1.91    0.29
   7 -15   1    1.81    0.27
   8 -15   1    3.74    0.37
   8 -15   1    3.05    0.34
   9 -15   1    0.08    0.15
   9 -15   1    0.15    0.15
  10 -15   1    0.37    0.19
  10 -15   1    0.54    0.18
  11 -15   1    5.51    0.41
  11 -15   1    5.69    0.42
  12 -15   1    0.14    0.16
  12 -15   1    0.03    0.12
  13 -15   1    0.18    0.16
  13 -15   1    0.31    0.18
  -2 -14   1    1.58    0.19
  -1 -14   1    4.73    0.31
   0 -14   1    6.06    0.35
   0 -14   1    5.78    0.46
   1 -14   1    2.11    0.31
   2 -14   1    1.55    0.26
   3 -14   1   13.16    0.66
   4 -14   1    5.61    0.42
   5 -14   1    0.18    0.17
   5 -14   1    0.29    0.15
   6 -14   1    2.33    0.29
   6 -14   1    2.63    0.31
   7 -14   1    2.92    0.32
   7 -14   1    2.16    0.27
   8 -14   1    5.33    0.38
   8 -14   1    5.39    0.38
   9 -14   1    1.67    0.26
   9 -14   1    1.26    0.22
  10 -14   1    1.31    0.25
  10 -14   1    1.87    0.26
  11 -14   1   11.10    0.58
  11 -14   1   10.73    0.56
  12 -14   1    0.31    0.16
  12 -14   1    0.04    0.12
  13 -14   1    3.37    0.34
  13 -14   1    3.79    0.37
  14 -14   1    1.38    0.23
  14 -14   1    1.47    0.27
  -3 -13   1    0.06    0.09
  -2 -13   1   12.81    0.55
  -1 -13   1   -0.07    0.09
  -1 -13   1    0.03    0.16
   0 -13   1   13.18    0.58
   0 -13   1   14.18    0.68
   1 -13   1    0.75    0.19
   2 -13   1   49.25    1.68
   3 -13   1    2.12    0.27
   4 -13   1   16.47    0.72
   5 -13   1    0.71    0.20
   5 -13   1    0.85    0.20
   6 -13   1    0.45    0.17
   6 -13   1    0.30    0.15
   7 -13   1   14.73    0.65
   7 -13   1   14.18    0.64
   8 -13   1    9.78    0.51
   8 -13   1   10.48    0.53
   9 -13   1    9.00    0.49
   9 -13   1    8.08    0.45
  10 -13   1    1.50    0.23
  10 -13   1    2.11    0.26
  11 -13   1   -0.13    0.12
  11 -13   1    0.05    0.13
  12 -13   1    3.82    0.32
  12 -13   1    3.52    0.31
  13 -13   1    0.44    0.15
  13 -13   1    0.44    0.18
  14 -13   1    0.67    0.20
  14 -13   1    0.52    0.17
  15 -13   1    3.18    0.35
  15 -13   1    3.57    0.34
  -5 -12   1   -0.03    0.09
  -4 -12   1    0.84    0.14
  -3 -12   1    0.10    0.09
  -2 -12   1    2.51    0.21
  -1 -12   1    0.22    0.10
  -1 -12   1    0.15    0.15
   0 -12   1    0.45    0.18
   1 -12   1    8.75    0.49
   2 -12   1    0.00    0.13
   3 -12   1    8.16    0.46
   3 -12   1    9.04    0.41
   4 -12   1    0.38    0.14
   4 -12   1    0.09    0.12
   5 -12   1   16.84    0.69
   5 -12   1   16.14    0.69
   6 -12   1   10.44    0.50
   6 -12   1    9.88    0.50
   7 -12   1    3.89    0.31
   7 -12   1    3.44    0.31
   8 -12   1    2.55    0.26
   8 -12   1    3.50    0.30
   9 -12   1    2.03    0.25
   9 -12   1    1.70    0.22
  10 -12   1    0.06    0.14
  10 -12   1    0.13    0.13
  11 -12   1    2.13    0.26
  11 -12   1    2.19    0.25
  12 -12   1    2.48    0.28
  12 -12   1    2.44    0.26
  13 -12   1    0.03    0.12
  13 -12   1   -0.03    0.13
  14 -12   1    1.35    0.21
  14 -12   1    1.28    0.23
  15 -12   1    6.72    0.45
  15 -12   1    5.86    0.39
  -6 -11   1    0.86    0.14
  -5 -11   1    8.36    0.40
  -4 -11   1    1.61    0.18
  -3 -11   1    2.04    0.19
  -2 -11   1    4.66    0.27
  -1 -11   1    0.00    0.12
  -1 -11   1    0.01    0.08
  -1 -11   1    0.15    0.08
   0 -11   1   16.99    0.73
   0 -11   1   17.83    0.65
   1 -11   1    0.34    0.14
   1 -11   1    0.38    0.09
   2 -11   1    6.30    0.30
   2 -11   1    6.49    0.38
   3 -11   1    9.40    0.47
   3 -11   1    9.94    0.40
   3 -11   1    9.57    0.47
  -4  11  -1    0.68    0.10
   4 -11   1    0.44    0.15
   4 -11   1    0.62    0.15
   4 -11   1    0.64    0.10
  -5  11  -1    1.97    0.17
   5 -11   1    2.18    0.23
   5 -11   1    1.87    0.16
   5 -11   1    1.98    0.22
  -6  11  -1    1.01    0.13
   6 -11   1    0.98    0.16
   6 -11   1    0.96    0.13
   6 -11   1    1.02    0.17
   7 -11   1    1.55    0.20
   7 -11   1    1.36    0.18
   8 -11   1    2.98    0.27
   8 -11   1    2.45    0.24
   9 -11   1    2.50    0.25
   9 -11   1    2.86    0.23
  10 -11   1   14.06    0.58
  10 -11   1   13.65    0.59
  11 -11   1    1.05    0.19
  11 -11   1    1.55    0.20
  12 -11   1    0.72    0.19
  12 -11   1    0.52    0.14
  13 -11   1   19.78    0.78
  13 -11   1   21.76    0.84
  14 -11   1    0.00    0.11
  14 -11   1    0.08    0.16
  15 -11   1    2.01    0.29
  15 -11   1    2.10    0.25
  16 -11   1    0.20    0.20
  -7 -10   1    0.55    0.13
  -6 -10   1    0.06    0.09
  -5 -10   1    2.40    0.20
  -4 -10   1   16.19    0.63
  -3 -10   1    3.26    0.22
  -2 -10   1   15.80    0.59
  -2 -10   1   14.92    0.59
  -1 -10   1    5.95    0.38
  -1 -10   1    5.81    0.30
  -1 -10   1    5.55    0.28
   0 -10   1   11.80    0.55
   0 -10   1   13.00    0.49
   1 -10   1    1.64    0.14
   1 -10   1    1.71    0.21
   2 -10   1    8.84    0.43
   2 -10   1    8.50    0.36
   3 -10   1   11.67    0.50
   3 -10   1   11.39    0.50
   3 -10   1   11.28    0.44
  -4  10  -1   33.57    1.11
   4 -10   1   33.66    1.11
   4 -10   1   32.70    1.12
   4 -10   1   33.23    1.13
  -5  10  -1    8.47    0.36
   5 -10   1    8.57    0.41
   5 -10   1    8.38    0.41
   5 -10   1    8.16    0.36
  -6  10  -1   11.69    0.46
   6 -10   1   10.95    0.48
   6 -10   1   11.68    0.49
   6 -10   1   10.85    0.45
  -7  10  -1    2.01    0.18
   7 -10   1    2.42    0.20
   7 -10   1    2.29    0.17
   7 -10   1    2.32    0.22
  -8  10  -1   10.21    0.43
   8 -10   1    9.99    0.44
   8 -10   1    9.60    0.44
   8 -10   1    9.23    0.42
  -9  10  -1    4.27    0.27
   9 -10   1    4.58    0.29
   9 -10   1    4.13    0.26
  10 -10   1    2.17    0.21
  10 -10   1    1.92    0.21
  11 -10   1    0.46    0.13
  11 -10   1    0.42    0.15
  12 -10   1    0.20    0.11
  12 -10   1    0.07    0.12
  13 -10   1    0.14    0.13
  13 -10   1    0.27    0.12
  14 -10   1   15.36    0.68
  14 -10   1   14.77    0.62
  15 -10   1    4.89    0.33
  15 -10   1    5.22    0.39
  16 -10   1    7.11    0.48
  -8  -9   1    6.83    0.36
  -7  -9   1   11.34    0.49
  -6  -9   1    6.99    0.35
  -5  -9   1    0.14    0.09
  -4  -9   1    0.63    0.11
  -3  -9   1    2.06    0.18
  -3  -9   1    1.76    0.17
  -2  -9   1    1.40    0.14
  -2  -9   1    1.11    0.18
  -2  -9   1    1.32    0.14
  -1  -9   1    1.75    0.21
  -1  -9   1    1.78    0.16
  -1  -9   1    1.65    0.15
   0  -9   1    0.26    0.07
   0  -9   1    0.24    0.12
   1  -9   1    3.30    0.24
   1  -9   1    2.98    0.18
   2  -9   1    0.34    0.12
   2  -9   1    0.37    0.07
   2  -9   1    0.27    0.12
  -3   9  -1   21.66    0.74
   3  -9   1   21.63    0.74
   3  -9   1   22.36    0.78
   3  -9   1   20.52    0.77
  -4   9  -1    4.65    0.23
   4  -9   1    4.56    0.28
   4  -9   1    4.55    0.22
   4  -9   1    4.62    0.27
  -5   9  -1   26.38    0.92
   5  -9   1   26.67    0.92
   5  -9   1   26.49    0.91
   5  -9   1   28.15    0.92
  -6   9  -1   11.66    0.47
   6  -9   1   12.28    0.49
   6  -9   1   12.12    0.48
   6  -9   1   11.98    0.47
  -7   9  -1    7.07    0.32
   7  -9   1    7.02    0.34
   7  -9   1    6.77    0.34
   7  -9   1    6.64    0.31
  -8   9  -1    4.38    0.26
   8  -9   1    4.73    0.26
   8  -9   1    4.81    0.27
   8  -9   1    4.86    0.28
  -9   9  -1    6.57    0.33
   9  -9   1    6.35    0.32
   9  -9   1    6.03    0.33
 -10   9  -1    1.37    0.18
  10  -9   1    1.61    0.18
  10  -9   1    1.45    0.19
 -11   9  -1    1.94    0.21
  11  -9   1    1.99    0.22
  11  -9   1    1.99    0.20
  12  -9   1    0.02    0.12
  12  -9   1   -0.02    0.09
  13  -9   1    0.84    0.17
  13  -9   1    1.07    0.17
  14  -9   1    4.80    0.35
  14  -9   1    4.60    0.30
  15  -9   1   -0.02    0.11
  15  -9   1    0.25    0.17
  16  -9   1    1.51    0.26
  -9  -8   1    0.08    0.09
  -8  -8   1    5.68    0.32
  -7  -8   1    0.14    0.09
  -6  -8   1    4.05    0.25
  -5  -8   1   35.09    1.19
  -4  -8   1    0.67    0.11
  -3  -8   1   13.72    0.52
  -2  -8   1    1.67    0.15
  -2  -8   1    1.81    0.21
  -2  -8   1    1.84    0.15
  -1  -8   1    0.39    0.13
  -1  -8   1    0.24    0.07
   0  -8   1    5.47    0.31
   0  -8   1    6.11    0.26
   1  -8   1    9.63    0.36
   1  -8   1    8.60    0.40
   2  -8   1    1.64    0.17
   2  -8   1    1.35    0.11
   2  -8   1    1.37    0.15
  -3   8  -1    8.95    0.35
   3  -8   1    8.85    0.38
   3  -8   1    9.01    0.39
   3  -8   1    8.89    0.35
  -4   8  -1   26.95    0.90
   4  -8   1   26.71    0.89
   4  -8   1   27.54    0.90
   4  -8   1   25.25    0.88
  -5   8  -1   45.50    1.50
   5  -8   1   46.54    1.44
   5  -8   1   47.71    1.44
   5  -8   1   44.95    1.49
  -6   8  -1    3.94    0.21
   6  -8   1    3.81    0.23
   6  -8   1    3.55    0.20
   6  -8   1    4.02    0.23
  -7   8  -1    8.01    0.35
   7  -8   1    8.52    0.35
   7  -8   1    7.26    0.35
   7  -8   1    7.39    0.34
  -8   8  -1    2.35    0.18
   8  -8   1    2.08    0.18
   8  -8   1    1.82    0.17
   8  -8   1    1.89    0.16
  -9   8  -1    9.65    0.42
   9  -8   1    8.82    0.40
   9  -8   1    9.53    0.40
   9  -8   1    9.63    0.42
 -10   8  -1   15.93    0.63
  10  -8   1   15.06    0.61
  10  -8   1   16.01    0.59
 -11   8  -1   -0.03    0.09
  11  -8   1    0.20    0.10
  11  -8   1    0.07    0.10
 -12   8  -1    4.81    0.31
  12  -8   1    4.99    0.28
  12  -8   1    4.66    0.31
 -13   8  -1    0.12    0.11
  13  -8   1    0.14    0.12
  13  -8   1    0.00    0.09
  14  -8   1    0.81    0.16
  14  -8   1    0.86    0.19
  15  -8   1    1.35    0.23
  15  -8   1    1.25    0.18
  16  -8   1    4.34    0.38
 -10  -7   1    0.16    0.11
  -9  -7   1   16.67    0.66
  -8  -7   1    2.57    0.21
  -7  -7   1    0.05    0.08
  -6  -7   1    1.79    0.17
  -5  -7   1    8.47    0.37
  -4  -7   1    0.50    0.10
  -3  -7   1   -0.04    0.05
  -2  -7   1   21.80    0.77
  -2  -7   1   20.70    0.73
  -1  -7   1   12.12    0.50
  -1  -7   1   12.10    0.44
   0  -7   1    1.86    0.12
   0  -7   1    1.62    0.17
   1  -7   1    4.66    0.26
   1  -7   1    4.74    0.21
   1  -7   1    4.54    0.25
  -2   7  -1    0.58    0.07
   2  -7   1    0.68    0.08
   2  -7   1    0.55    0.10
   2  -7   1    0.41    0.09
  -3   7  -1    0.75    0.08
   3  -7   1    0.52    0.10
   3  -7   1    0.65    0.07
   3  -7   1    0.47    0.10
  -4   7  -1   12.11    0.45
   4  -7   1   12.72    0.46
   4  -7   1   12.15    0.46
   4  -7   1   12.05    0.44
  -5   7  -1    3.42    0.18
   5  -7   1    3.44    0.18
   5  -7   1    3.60    0.20
   5  -7   1    3.30    0.21
  -6   7  -1    4.51    0.22
   6  -7   1    4.31    0.22
   6  -7   1    4.27    0.23
   6  -7   1    4.11    0.23
  -7   7  -1    1.42    0.13
   7  -7   1    1.36    0.13
   7  -7   1    1.15    0.14
   7  -7   1    1.29    0.13
  -8   7  -1   10.27    0.42
   8  -7   1    9.79    0.41
   8  -7   1    9.80    0.39
  -9   7  -1    0.19    0.09
   9  -7   1    0.11    0.07
   9  -7   1    0.17    0.09
   9  -7   1    0.23    0.08
 -10   7  -1   16.74    0.64
  10  -7   1   16.01    0.62
  10  -7   1   15.67    0.58
 -11   7  -1   48.08    1.64
  11  -7   1   46.44    1.50
  11  -7   1   50.41    1.56
 -12   7  -1   -0.05    0.09
  12  -7   1    0.17    0.13
  12  -7   1   -0.10    0.08
 -13   7  -1   10.18    0.50
  13  -7   1   10.16    0.50
  13  -7   1    9.61    0.43
 -14   7  -1    0.85    0.17
  14  -7   1    0.96    0.19
  14  -7   1    1.05    0.16
  15  -7   1    0.42    0.18
  15  -7   1    0.49    0.13
  16  -7   1    0.62    0.19
 -11  -6   1    0.93    0.18
 -10  -6   1    3.94    0.28
  -9  -6   1    0.19    0.10
  -8  -6   1    0.35    0.10
  -7  -6   1    0.35    0.09
  -6  -6   1   25.13    0.88
  -5  -6   1   22.98    0.80
  -4  -6   1   34.19    1.13
  -3  -6   1   24.00    0.81
  -2  -6   1    0.11    0.08
  -2  -6   1    0.13    0.06
  -1  -6   1   13.50    0.47
  -1  -6   1   13.29    0.51
   0  -6   1   18.99    0.67
   0  -6   1   19.83    0.65
  -1   6  -1   12.03    0.46
   1  -6   1   11.70    0.42
   1  -6   1   11.65    0.44
   1  -6   1   12.50    0.45
  -2   6  -1    0.26    0.08
  -2   6  -1    0.38    0.06
   2  -6   1    0.35    0.05
   2  -6   1    0.23    0.07
   2  -6   1    0.38    0.09
  -3   6  -1   18.75    0.61
  -3   6  -1   17.67    0.59
  -3   6  -1   17.74    0.60
   3  -6   1   17.82    0.61
   3  -6   1   18.19    0.61
  -4   6  -1   35.16    1.09
  -4   6  -1   35.20    1.10
  -4   6  -1   35.01    1.15
   4  -6   1   34.90    1.10
   4  -6   1   35.34    1.15
   4  -6   1   37.15    1.10
  -5   6  -1  130.56    3.90
  -5   6  -1  132.05    4.13
   5  -6   1  131.13    3.86
   5  -6   1  137.10    4.13
   5  -6   1  134.35    3.86
  -6   6  -1    9.86    0.39
   6  -6   1   10.13    0.39
   6  -6   1    9.48    0.37
   6  -6   1    9.63    0.38
  -7   6  -1   11.08    0.45
   7  -6   1   11.40    0.44
   7  -6   1   11.22    0.42
   7  -6   1   12.42    0.45
  -8   6  -1    0.82    0.12
   8  -6   1    0.91    0.11
   8  -6   1    0.88    0.12
   8  -6   1    0.94    0.12
  -9   6  -1   26.77    0.91
   9  -6   1   23.89    0.82
   9  -6   1   25.10    0.86
 -10   6  -1    5.50    0.31
  10  -6   1    5.66    0.27
  10  -6   1    5.67    0.31
 -11   6  -1   15.29    0.62
  11  -6   1   14.28    0.59
  11  -6   1   14.53    0.55
 -12   6  -1    3.98    0.29
  12  -6   1    3.74    0.24
  12  -6   1    4.37    0.29
 -13   6  -1    1.57    0.20
  13  -6   1    1.44    0.21
  13  -6   1    1.45    0.17
 -14   6  -1    0.96    0.18
  14  -6   1    1.13    0.16
  14  -6   1    1.19    0.21
 -15   6  -1    0.10    0.15
  15  -6   1    0.35    0.18
  15  -6   1    0.18    0.11
  16  -6   1    0.46    0.19
  11   5  -1    2.08    0.23
 -11  -5   1    1.82    0.21
 -10  -5   1    0.07    0.09
  -9  -5   1    0.36    0.10
  -8  -5   1   22.82    0.83
  -7  -5   1   17.16    0.64
   6   5  -1    3.04    0.16
  -6  -5   1    3.46    0.20
   5   5  -1   16.10    0.53
  -5  -5   1   16.09    0.58
   4   5  -1    0.10    0.05
  -4  -5   1    0.07    0.06
   3   5  -1   10.25    0.36
  -3  -5   1    9.94    0.38
   2   5  -1    0.15    0.05
  -2  -5   1    0.16    0.05
  -2  -5   1    0.14    0.08
   1   5  -1   63.81    1.87
   1   5  -1   59.90    1.85
  -1  -5   1   62.91    1.87
   0   5  -1    9.27    0.36
   0   5  -1    9.62    0.35
   0   5  -1    9.46    0.36
   0  -5   1    9.67    0.37
   0  -5   1    9.32    0.34
   0  -5   1    9.89    0.37
  -1   5  -1   55.04    1.64
  -1   5  -1   59.11    1.64
  -1   5  -1   54.61    1.64
  -1   5  -1   55.26    1.71
   1  -5   1   55.31    1.72
   1  -5   1   52.91    1.64
   1  -5   1   53.10    1.64
  -2   5  -1    1.08    0.08
  -2   5  -1    1.26    0.10
   2  -5   1    1.14    0.11
   2  -5   1    1.03    0.08
   2  -5   1    1.13    0.11
  -3   5  -1    3.87    0.18
  -3   5  -1    3.76    0.17
   3  -5   1    3.79    0.18
   3  -5   1    3.94    0.17
   3  -5   1    3.45    0.17
  -4   5  -1   56.11    1.76
  -4   5  -1   48.83    1.65
  -4   5  -1   56.84    1.65
  -4   5  -1   58.23    1.65
   4  -5   1   56.47    1.76
   4  -5   1   57.01    1.66
   4  -5   1   56.60    1.65
  -5   5  -1    0.04    0.04
  -5   5  -1    0.01    0.04
  -5   5  -1    0.12    0.05
   5  -5   1    0.06    0.05
   5  -5   1    0.05    0.06
   5  -5   1    0.07    0.05
  -6   5  -1    2.61    0.14
  -6   5  -1    2.63    0.16
  -6   5  -1    2.50    0.13
   6  -5   1    2.77    0.15
   6  -5   1    2.39    0.16
   6  -5   1    2.49    0.15
  -7   5  -1    3.06    0.18
  -7   5  -1    2.74    0.14
   7  -5   1    3.34    0.19
   7  -5   1    2.73    0.16
  -8   5  -1    0.50    0.07
  -8   5  -1    0.43    0.09
   8  -5   1    0.41    0.08
   8  -5   1    0.36    0.09
   8  -5   1    0.64    0.10
  -9   5  -1    2.81    0.19
   9  -5   1    2.44    0.17
   9  -5   1    2.73    0.20
 -10   5  -1   17.26    0.65
  10  -5   1   16.08    0.58
  10  -5   1   16.28    0.63
 -11   5  -1   20.36    0.77
  11  -5   1   20.34    0.75
  11  -5   1   19.19    0.69
 -12   5  -1    2.74    0.23
  12  -5   1    2.87    0.27
  12  -5   1    2.86    0.20
 -13   5  -1   20.08    0.80
  13  -5   1   19.74    0.78
  13  -5   1   19.45    0.71
 -14   5  -1    0.98    0.18
  14  -5   1    0.45    0.16
  14  -5   1    0.60    0.13
 -15   5  -1    5.19    0.38
  15  -5   1    6.06    0.40
  15  -5   1    5.79    0.33
  16  -5   1    0.40    0.18
  12   4  -1   12.50    0.55
 -12  -4   1   12.48    0.57
  11   4  -1    2.42    0.24
 -11  -4   1    2.74    0.24
 -10  -4   1    9.42    0.44
  -9  -4   1    1.06    0.14
  -8  -4   1   16.43    0.62
   7   4  -1   43.78    1.32
  -7  -4   1   45.27    1.47
   6   4  -1    2.24    0.12
  -6  -4   1    2.32    0.16
   5   4  -1    7.73    0.28
  -5  -4   1    7.72    0.32
   4   4  -1   28.05    0.84
  -4  -4   1   26.49    0.90
   3   4  -1   19.64    0.62
  -3  -4   1   19.39    0.66
   2   4  -1    9.15    0.34
   2   4  -1    8.17    0.34
   2   4  -1    8.80    0.31
  -2  -4   1    8.30    0.31
   1   4  -1    1.03    0.08
   1   4  -1    1.13    0.11
   1   4  -1    1.09    0.10
  -1  -4   1    0.85    0.10
   0   4  -1    6.68    0.25
   0   4  -1    6.53    0.26
   0   4  -1    7.24    0.26
   0  -4   1    6.61    0.27
   0  -4   1    6.58    0.24
   0  -4   1    6.57    0.27
  -1   4  -1   19.99    0.62
  -1   4  -1   20.82    0.63
  -1   4  -1   20.00    0.62
  -1   4  -1   19.68    0.62
   1  -4   1   19.36    0.62
   1  -4   1   19.00    0.62
   1  -4   1   18.51    0.63
  -2   4  -1  514.49   14.29
  -2   4  -1  507.41   15.33
   2  -4   1  487.27   15.35
   2  -4   1  486.42   14.25
   2  -4   1  488.48   14.24
  -3   4  -1  184.44    5.34
  -3   4  -1  176.77    5.74
  -3   4  -1  183.79    5.33
  -3   4  -1  189.22    5.39
   3  -4   1  200.49    5.79
   3  -4   1  192.25    5.40
   3  -4   1  181.93    5.34
   3  -4   1  186.78    5.34
  -4   4  -1    1.03    0.08
  -4   4  -1    1.27    0.09
  -4   4  -1    1.02    0.08
  -4   4  -1    0.96    0.09
   4  -4   1    1.02    0.09
   4  -4   1    1.28    0.10
   4  -4   1    1.02    0.09
   4  -4   1    1.23    0.09
  -5   4  -1    0.03    0.04
  -5   4  -1    0.04    0.04
  -5   4  -1    0.01    0.03
  -5   4  -1    0.01    0.03
   5  -4   1   -0.04    0.04
   5  -4   1    0.09    0.05
   5  -4   1    0.02    0.04
   5  -4   1    0.00    0.05
  -6   4  -1    3.71    0.16
  -6   4  -1    4.04    0.20
  -6   4  -1    4.02    0.18
   6  -4   1    3.80    0.18
   6  -4   1    3.82    0.19
   6  -4   1    3.83    0.17
   6  -4   1    3.70    0.19
  -7   4  -1    6.53    0.29
  -7   4  -1    6.63    0.24
   7  -4   1    6.65    0.29
   7  -4   1    6.62    0.25
   7  -4   1    5.91    0.28
   7  -4   1    6.39    0.26
  -8   4  -1    0.17    0.07
   8  -4   1    0.13    0.07
   8  -4   1    0.15    0.06
  -9   4  -1    1.37    0.14
   9  -4   1    1.67    0.17
   9  -4   1    1.34    0.13
 -10   4  -1    0.02    0.08
  10  -4   1    0.15    0.11
  10  -4   1    0.02    0.07
 -11   4  -1    2.63    0.22
  11  -4   1    2.27    0.18
  11  -4   1    2.71    0.23
 -12   4  -1   23.31    0.87
  12  -4   1   22.35    0.78
  12  -4   1   22.42    0.84
 -13   4  -1    2.00    0.22
  13  -4   1    1.42    0.17
  13  -4   1    1.28    0.20
 -14   4  -1    0.30    0.13
  14  -4   1    0.29    0.14
  14  -4   1    0.35    0.11
 -15   4  -1   -0.10    0.12
  15  -4   1    0.13    0.14
 -13  -3   1    0.59    0.15
  12   3  -1    3.37    0.25
 -12  -3   1    2.80    0.26
  11   3  -1    0.60    0.13
 -11  -3   1    0.39    0.12
  10   3  -1   34.53    1.15
 -10  -3   1   34.97    1.22
  -9  -3   1    1.83    0.18
  -8  -3   1   25.18    0.89
   7   3  -1   16.06    0.50
  -7  -3   1   15.99    0.59
   6   3  -1    2.13    0.10
  -6  -3   1    2.00    0.14
   5   3  -1   15.45    0.49
  -5  -3   1   15.85    0.55
   4   3  -1   11.16    0.37
  -4  -3   1   11.35    0.41
   3   3  -1    0.53    0.06
   3   3  -1    0.62    0.09
  -3  -3   1    0.58    0.07
   2   3  -1    4.76    0.21
  -2  -3   1    4.68    0.19
   1   3  -1   11.05    0.38
   1   3  -1   10.55    0.35
   1   3  -1   10.88    0.37
  -1  -3   1   10.96    0.38
   0   3  -1  104.71    3.02
   0   3  -1  107.80    3.02
   0   3  -1  104.44    3.04
   0  -3   1  104.50    3.02
   0  -3   1  106.63    3.23
   0  -3   1  101.90    3.02
  -1   3  -1    6.36    0.23
  -1   3  -1    6.67    0.23
  -1   3  -1    6.40    0.23
   1  -3   1    6.53    0.23
   1  -3   1    6.97    0.24
   1  -3   1    6.38    0.23
  -2   3  -1   99.90    2.84
  -2   3  -1  101.57    2.84
  -2   3  -1  100.27    2.87
  -2   3  -1  100.80    3.05
   2  -3   1   98.90    2.84
   2  -3   1   97.91    2.87
   2  -3   1   94.14    3.05
   2  -3   1   97.86    2.84
  -3   3  -1    3.75    0.18
  -3   3  -1    4.26    0.18
  -3   3  -1    4.06    0.17
  -3   3  -1    4.37    0.17
   3  -3   1    4.34    0.17
   3  -3   1    4.07    0.17
   3  -3   1    4.40    0.18
   3  -3   1    4.59    0.18
  -4   3  -1   13.96    0.49
  -4   3  -1   15.13    0.45
  -4   3  -1   13.85    0.45
  -4   3  -1   14.25    0.47
   4  -3   1   14.18    0.45
   4  -3   1   14.94    0.49
   4  -3   1   14.23    0.47
   4  -3   1   13.88    0.46
  -5   3  -1    2.96    0.16
  -5   3  -1    2.77    0.12
   5  -3   1    2.88    0.16
   5  -3   1    3.24    0.16
   5  -3   1    3.11    0.13
   5  -3   1    3.18    0.14
  -6   3  -1    1.39    0.10
  -6   3  -1    1.21    0.11
   6  -3   1    1.29    0.08
   6  -3   1    1.26    0.09
   6  -3   1    0.89    0.10
  -7   3  -1   14.74    0.53
   7  -3   1   13.93    0.53
   7  -3   1   14.46    0.46
   7  -3   1   14.55    0.49
   7  -3   1   14.09    0.51
  -8   3  -1   54.72    1.78
   8  -3   1   56.26    1.68
   8  -3   1   53.93    1.64
   8  -3   1   54.61    1.61
  -9   3  -1    2.30    0.18
   9  -3   1    2.67    0.16
   9  -3   1    2.44    0.19
 -10   3  -1    0.77    0.13
  10  -3   1    0.60    0.11
  10  -3   1    0.38    0.12
 -11   3  -1    0.05    0.09
  11  -3   1   -0.03    0.10
  11  -3   1   -0.04    0.07
 -12   3  -1    8.13    0.41
  12  -3   1    8.71    0.43
  12  -3   1    7.64    0.36
 -13   3  -1   -0.07    0.09
  13  -3   1   -0.09    0.10
  13  -3   1    0.04    0.08
 -14   3  -1    0.41    0.14
  14  -3   1    0.48    0.12
  14  -3   1    0.41    0.15
 -15   3  -1   -0.16    0.11
  15  -3   1    0.28    0.17
 -13  -2   1    1.81    0.22
  12   2  -1    1.79    0.20
 -12  -2   1    1.70    0.21
  11   2  -1    3.91    0.25
 -11  -2   1    3.55    0.26
  10   2  -1    6.84    0.34
 -10  -2   1    7.15    0.35
   9   2  -1   -0.09    0.07
  -9  -2   1    0.07    0.08
  -8  -2   1    2.20    0.17
   7   2  -1    6.22    0.20
  -7  -2   1    5.94    0.28
   6   2  -1   93.23    2.65
  -6  -2   1   90.71    2.88
   5   2  -1   19.46    0.58
  -5  -2   1   18.93    0.65
  -4  -2   1   13.17    0.46
   3   2  -1    4.70    0.19
  -3  -2   1    4.93    0.19
   2   2  -1   47.77    1.49
   2   2  -1   49.51    1.42
  -2  -2   1   46.54    1.49
   1   2  -1  114.13    3.30
   1   2  -1  116.24    3.28
   1   2  -1  116.81    3.28
  -1  -2   1  114.33    3.52
  -1  -2   1  110.61    3.28
   0   2  -1  292.31    8.18
   0   2  -1  281.22    8.05
   0   2  -1  267.36    8.06
   0  -2   1  286.74    8.19
   0  -2   1  284.29    8.07
   0  -2   1  273.49    8.09
  -1   2  -1   44.71    1.36
  -1   2  -1   42.31    1.27
   1  -2   1   41.43    1.36
   1  -2   1   46.52    1.29
   1  -2   1   45.25    1.27
   1  -2   1   42.80    1.28
  -2   2  -1   57.40    1.85
  -2   2  -1   61.25    1.73
  -2   2  -1   62.29    1.74
  -2   2  -1   61.04    1.73
   2  -2   1   60.52    1.73
   2  -2   1   59.48    1.85
   2  -2   1   58.39    1.74
   2  -2   1   58.69    1.73
  -3   2  -1  126.45    3.47
  -3   2  -1  120.11    3.42
  -3   2  -1  122.40    3.69
   3  -2   1  116.51    3.42
   3  -2   1  116.78    3.45
   3  -2   1  116.45    3.42
  -4   2  -1  112.03    3.33
  -4   2  -1  116.52    3.59
   4  -2   1  123.19    3.34
   4  -2   1  117.42    3.33
   4  -2   1  117.16    3.59
   4  -2   1  110.42    3.34
  -5   2  -1   35.76    1.11
   5  -2   1   33.14    1.10
   5  -2   1   32.83    1.02
   5  -2   1   34.50    1.01
  -6   2  -1   26.30    0.85
   6  -2   1   24.96    0.76
   6  -2   1   25.03    0.79
   6  -2   1   25.14    0.85
  -7   2  -1   38.50    1.25
   7  -2   1   37.37    1.11
   7  -2   1   37.68    1.15
  -8   2  -1    5.97    0.28
   8  -2   1    6.01    0.26
   8  -2   1    5.68    0.20
  -9   2  -1    3.30    0.21
   9  -2   1    3.57    0.20
 -10   2  -1    0.44    0.12
  10  -2   1    0.71    0.11
 -11   2  -1    0.12    0.10
  11  -2   1    0.19    0.09
 -12   2  -1    3.03    0.25
  12  -2   1    2.86    0.22
 -13   2  -1   15.18    0.67
  13  -2   1   16.22    0.61
 -14   2  -1    7.52    0.43
  14  -2   1    7.42    0.37
  14  -2   1    7.62    0.46
 -15   2  -1    0.10    0.14
  15  -2   1    0.05    0.16
 -14  -1   1    2.51    0.27
  13   1  -1    2.97    0.24
 -13  -1   1    3.46    0.28
  12   1  -1    1.56    0.18
 -12  -1   1    1.58    0.19
  11   1  -1    7.10    0.34
 -11  -1   1    6.82    0.36
  10   1  -1    0.21    0.09
 -10  -1   1    0.14    0.09
   9   1  -1    3.62    0.22
  -9  -1   1    3.46    0.22
   8   1  -1    1.46    0.14
  -8  -1   1    1.52    0.14
   7   1  -1    9.99    0.38
  -7  -1   1   10.69    0.41
  -6  -1   1   10.28    0.39
   5   1  -1   16.21    0.47
  -5  -1   1   16.03    0.56
  -4  -1   1   31.64    1.02
   2   1  -1    1.17    0.05
  -2  -1   1    1.24    0.07
   1   1  -1   22.90    0.74
   1   1  -1   25.41    0.70
  -1  -1   1   23.21    0.74
  -1  -1   1   23.86    0.70
   0   1  -1    5.00    0.16
   0   1  -1    4.89    0.16
   0   1  -1    4.86    0.16
  -1   1  -1   68.75    2.03
  -1   1  -1   72.82    2.08
  -1   1  -1   70.41    2.22
   1  -1   1   76.67    2.24
   1  -1   1   68.71    2.08
   1  -1   1   75.99    2.07
   1  -1   1   65.71    2.06
  -2   1  -1    8.17    0.25
  -2   1  -1    7.51    0.27
   2  -1   1    7.99    0.25
   2  -1   1    7.51    0.24
   2  -1   1    8.28    0.27
  -3   1  -1   79.00    2.27
  -3   1  -1   80.46    2.44
   3  -1   1   78.12    2.28
   3  -1   1   77.51    2.27
  -4   1  -1   10.24    0.36
   4  -1   1   10.06    0.33
   4  -1   1    9.19    0.35
   4  -1   1    9.85    0.30
  -5   1  -1    0.09    0.04
   5  -1   1    0.28    0.06
   5  -1   1    0.09    0.05
   5  -1   1    0.20    0.03
  -6   1  -1   20.28    0.70
   6  -1   1   20.53    0.60
   6  -1   1   19.87    0.65
  -7   1  -1    4.36    0.22
   7  -1   1    4.17    0.15
   7  -1   1    4.06    0.20
  -8   1  -1   16.29    0.60
   8  -1   1   16.37    0.56
   8  -1   1   15.94    0.49
  -9   1  -1    3.46    0.22
   9  -1   1    3.90    0.21
 -10   1  -1    0.40    0.11
  10  -1   1    0.37    0.10
 -11   1  -1   27.76    1.02
  11  -1   1   28.38    0.94
 -12   1  -1   -0.02    0.09
  12  -1   1    0.05    0.09
 -13   1  -1    1.50    0.21
  13  -1   1    1.30    0.17
 -14   1  -1    1.29    0.20
  14  -1   1    1.53    0.19
 -14   0   1    2.52    0.26
  13   0  -1    2.62    0.21
 -13   0   1    2.34    0.24
  12   0  -1    0.89    0.14
 -12   0   1    0.84    0.15
  11   0  -1    0.43    0.10
 -11   0   1    0.29    0.11
  10   0  -1    0.44    0.10
 -10   0   1    0.42    0.11
   9   0  -1    5.26    0.25
  -9   0   1    4.53    0.26
   8   0  -1   16.24    0.55
  -8   0   1   15.77    0.59
   7   0  -1    3.59    0.18
  -7   0   1    3.76    0.20
   6   0  -1   11.33    0.39
  -6   0   1   11.43    0.43
   5   0  -1    3.81    0.16
   5   0  -1    4.00    0.18
  -5   0   1    3.84    0.18
   4   0  -1   -0.01    0.03
   4   0  -1   -0.03    0.02
  -4   0   1    0.02    0.03
   3   0  -1   58.73    1.80
  -3   0   1   57.31    1.80
   2   0  -1  150.45    4.67
  -2   0   1  150.59    4.65
  -1   0   1    3.35    0.11
  -1   0  -1   32.15    1.09
   1   0   1   37.85    1.09
  -2   0  -1   42.84    1.44
   2   0   1   49.99    1.45
  -3   0  -1   22.40    0.71
   3   0   1   21.16    0.71
  -5   0  -1  119.72    3.83
   5   0   1  128.02    3.84
   5   0   1  123.02    3.57
  -6   0  -1    8.61    0.35
   6   0   1    9.04    0.34
  -7   0  -1   20.63    0.72
   7   0   1   20.16    0.67
  -8   0  -1    0.02    0.06
   8   0   1    0.02    0.06
   8   0   1    0.06    0.02
  -9   0  -1   10.99    0.47
   9   0   1   11.78    0.45
 -10   0  -1   10.32    0.46
  10   0   1   10.30    0.43
 -11   0  -1    4.98    0.31
  11   0   1    4.93    0.28
 -12   0  -1    5.80    0.35
  12   0   1    6.00    0.32
 -13   0  -1    1.71    0.21
  13   0   1    2.08    0.21
 -14   0  -1    0.23    0.14
  14   0   1    0.42    0.15
  15  -1  -1    0.26    0.15
 -15   1   1    0.04    0.13
 -14   1   1   12.59    0.60
  13  -1  -1   16.30    0.60
 -13   1   1   15.41    0.67
  12  -1  -1    3.66    0.23
 -12   1   1    3.59    0.26
  11  -1  -1    5.05    0.26
 -11   1   1    4.95    0.30
  10  -1  -1    1.45    0.14
 -10   1   1    1.61    0.17
   9  -1  -1   34.14    1.06
  -9   1   1   33.79    1.16
   8  -1  -1    5.03    0.23
  -8   1   1    5.05    0.25
   7  -1  -1   28.75    0.87
  -7   1   1   27.12    0.94
   6  -1  -1    0.54    0.07
  -6   1   1    0.61    0.08
   5  -1  -1    9.48    0.31
   5  -1  -1    8.17    0.33
  -5   1   1    9.93    0.35
   4  -1  -1   76.10    2.43
   4  -1  -1   78.17    2.25
  -4   1   1   79.52    2.24
  -4   1   1   77.56    2.25
  -4   1   1   79.01    2.43
   3  -1  -1   38.55    1.22
   3  -1  -1   38.13    1.12
  -3   1   1   41.00    1.12
  -3   1   1   36.61    1.22
  -3   1   1   38.87    1.12
   2  -1  -1  187.50    5.36
   2  -1  -1  185.10    5.40
   2  -1  -1  194.00    5.83
  -2   1   1  189.79    5.39
  -2   1   1  178.79    5.36
  -2   1   1  186.35    7.24
   1  -1  -1    0.17    0.02
   1  -1  -1    0.14    0.02
   1  -1  -1    0.11    0.02
  -1   1   1    0.13    0.02
  -1   1   1    0.13    0.02
  -1   1   1    0.11    0.02
   0  -1  -1   24.96    0.78
   0  -1  -1   24.45    0.73
   0   1   1   25.22    0.73
  -1  -1  -1   17.89    0.56
   1   1   1   16.84    0.56
  -2  -1  -1    0.58    0.06
   2   1   1    0.62    0.06
  -3  -1  -1    0.10    0.04
   3   1   1   -0.01    0.03
  -4  -1  -1    1.87    0.12
   4   1   1    1.74    0.12
  -5  -1  -1    0.24    0.06
  -6  -1  -1   79.82    2.52
  -7  -1  -1    4.62    0.24
  -8  -1  -1   12.11    0.49
   8   1   1   12.79    0.48
  -9  -1  -1    0.36    0.10
   9   1   1    0.39    0.10
 -10  -1  -1    1.45    0.17
  10   1   1    1.48    0.17
 -11  -1  -1    3.50    0.26
  11   1   1    3.15    0.23
 -12  -1  -1    6.79    0.39
  12   1   1    7.52    0.37
 -13  -1  -1    1.32    0.20
  13   1   1    1.36    0.19
  15  -2  -1    3.01    0.33
 -15   2   1    2.46    0.28
  14  -2  -1    0.07    0.14
 -14   2   1    0.02    0.11
  13  -2  -1    6.47    0.32
  13  -2  -1    6.46    0.39
 -13   2   1    6.02    0.37
  12  -2  -1    6.42    0.30
  12  -2  -1    6.42    0.37
 -12   2   1    6.92    0.37
  11  -2  -1    7.10    0.30
 -11   2   1    6.23    0.35
  10  -2  -1   34.69    1.09
 -10   2   1   35.05    1.20
   9  -2  -1    1.44    0.13
  -9   2   1    1.42    0.14
   8  -2  -1   19.27    0.62
  -8   2   1   18.60    0.68
   7  -2  -1    1.11    0.09
  -7   2   1    1.23    0.12
   6  -2  -1   18.20    0.59
   6  -2  -1   19.59    0.65
  -6   2   1   18.43    0.65
   5  -2  -1   -0.08    0.04
   5  -2  -1    0.02    0.04
   5  -2  -1   -0.03    0.05
  -5   2   1   -0.07    0.04
  -5   2   1   -0.09    0.04
  -5   2   1   -0.05    0.03
   4  -2  -1   11.12    0.39
   4  -2  -1   10.96    0.37
   4  -2  -1   11.01    0.35
  -4   2   1   10.48    0.35
  -4   2   1   11.36    0.39
  -4   2   1   11.14    0.34
   3  -2  -1   92.63    2.76
   3  -2  -1   95.70    2.77
   3  -2  -1   95.47    2.98
  -3   2   1   98.66    2.99
  -3   2   1   98.02    2.77
  -3   2   1   96.62    2.76
  -3   2   1   99.47    2.79
   2  -2  -1    1.59    0.08
   2  -2  -1    1.53    0.08
   2  -2  -1    1.60    0.09
  -2   2   1    1.49    0.07
  -2   2   1    1.58    0.08
  -2   2   1    1.44    0.08
   1  -2  -1  753.88   21.82
   1  -2  -1  770.35   21.92
   1  -2  -1  748.11   23.53
  -1   2   1  789.73   21.82
  -1   2   1  791.93   21.90
  -1   2   1  743.14   23.52
   0  -2  -1   61.72    1.70
   0  -2  -1   59.51    1.81
   0   2   1   53.22    1.69
  -1  -2  -1  398.85   11.82
  -1  -2  -1  421.91   12.68
  -3  -2  -1   -0.05    0.04
   3   2   1   -0.01    0.02
  -4  -2  -1   53.19    1.69
  -5  -2  -1   34.27    1.13
  -6  -2  -1    0.60    0.09
  -7  -2  -1    7.81    0.35
  -8  -2  -1    2.34    0.19
  -9  -2  -1    1.21    0.15
   9   2   1    1.29    0.16
 -10  -2  -1    0.06    0.08
  10   2   1    0.03    0.09
 -11  -2  -1   14.70    0.62
  11   2   1   14.83    0.59
 -12  -2  -1    5.12    0.33
  12   2   1    5.30    0.32
 -13  -2  -1    0.18    0.12
  13   2   1    0.21    0.12
  15  -3  -1   14.62    0.66
 -15   3   1   13.69    0.66
  14  -3  -1   21.60    0.77
  14  -3  -1   22.25    0.87
 -14   3   1   21.13    0.87
  13  -3  -1    3.04    0.29
  13  -3  -1    3.29    0.22
 -13   3   1    2.74    0.26
  12  -3  -1    0.32    0.13
  12  -3  -1    0.51    0.11
 -12   3   1    0.60    0.14
  11  -3  -1   -0.05    0.07
  11  -3  -1   -0.03    0.11
 -11   3   1   -0.12    0.08
  10  -3  -1   65.49    2.01
  10  -3  -1   64.90    1.95
 -10   3   1   65.09    2.13
   9  -3  -1    6.49    0.31
   9  -3  -1    6.65    0.27
  -9   3   1    6.25    0.31
   8  -3  -1   11.19    0.44
   8  -3  -1   11.82    0.41
  -8   3   1   11.47    0.46
   7  -3  -1   62.15    1.93
   7  -3  -1   65.77    1.90
   7  -3  -1   69.63    2.07
  -7   3   1   61.95    2.06
  -7   3   1   64.21    1.90
  -7   3   1   64.73    1.88
   6  -3  -1    2.12    0.12
   6  -3  -1    1.96    0.14
  -6   3   1    1.95    0.13
  -6   3   1    2.03    0.10
   5  -3  -1    2.89    0.16
   5  -3  -1    3.05    0.14
   5  -3  -1    3.19    0.15
  -5   3   1    3.32    0.16
  -5   3   1    3.16    0.13
  -5   3   1    3.10    0.13
   4  -3  -1  103.32    3.23
   4  -3  -1  108.07    3.01
   4  -3  -1  102.59    3.00
  -4   3   1  101.59    3.00
  -4   3   1  107.55    3.03
  -4   3   1  103.70    3.24
   3  -3  -1   45.38    1.34
   3  -3  -1   44.77    1.34
   3  -3  -1   46.07    1.44
  -3   3   1   46.48    1.34
  -3   3   1   45.94    1.34
  -3   3   1   45.69    1.44
   2  -3  -1    2.39    0.12
   2  -3  -1    2.54    0.13
   2  -3  -1    2.56    0.12
  -2   3   1    2.39    0.12
  -2   3   1    2.50    0.12
  -2   3   1    2.29    0.12
   1  -3  -1   31.56    1.01
   1  -3  -1   31.39    0.96
   1  -3  -1   31.65    0.96
  -1   3   1   32.10    0.96
  -1   3   1   32.95    1.02
   0  -3  -1    6.65    0.26
   0  -3  -1    6.34    0.24
  -1  -3  -1    0.08    0.06
  -3  -3  -1    1.30    0.11
  -4  -3  -1    8.55    0.34
  -5  -3  -1   38.59    1.27
  -6  -3  -1   23.94    0.83
  -7  -3  -1    0.60    0.11
  -8  -3  -1    0.17    0.09
  -9  -3  -1    2.43    0.21
 -10  -3  -1    0.75    0.14
  10   3   1    0.58    0.14
 -11  -3  -1    0.85    0.15
  11   3   1    0.92    0.16
 -12  -3  -1    0.35    0.13
  12   3   1    0.12    0.12
  16  -4  -1    3.08    0.37
 -16   4   1    2.73    0.31
  15  -4  -1    1.37    0.24
 -15   4   1    1.03    0.19
  14  -4  -1    1.36    0.16
  14  -4  -1    1.42    0.21
 -14   4   1    1.38    0.20
  13  -4  -1    2.25    0.25
  13  -4  -1    2.62    0.19
 -13   4   1    2.73    0.25
  12  -4  -1    5.26    0.26
  12  -4  -1    4.54    0.31
 -12   4   1    5.15    0.32
  11  -4  -1   71.73    2.21
  11  -4  -1   71.83    2.15
 -11   4   1   71.84    2.35
  10  -4  -1   27.70    0.95
  10  -4  -1   28.11    0.89
 -10   4   1   27.72    0.99
   9  -4  -1    0.43    0.08
   9  -4  -1    0.32    0.10
  -9   4   1    0.49    0.10
   8  -4  -1   25.00    0.84
   8  -4  -1   25.02    0.79
  -8   4   1   25.24    0.77
  -8   4   1   25.36    0.88
   7  -4  -1    0.96    0.11
   7  -4  -1    1.06    0.09
   7  -4  -1    1.18    0.11
  -7   4   1    1.03    0.08
  -7   4   1    1.24    0.12
  -7   4   1    1.09    0.09
   6  -4  -1   50.81    1.50
   6  -4  -1   51.64    1.63
   6  -4  -1   50.40    1.53
  -6   4   1   51.09    1.63
  -6   4   1   49.68    1.50
   5  -4  -1   53.76    1.59
   5  -4  -1   50.59    1.48
   5  -4  -1   51.47    1.47
  -5   4   1   51.01    1.48
  -5   4   1   47.77    1.58
  -5   4   1   48.81    1.47
  -5   4   1   43.93    1.45
   4  -4  -1  204.22    5.97
   4  -4  -1  205.25    5.97
   4  -4  -1  217.56    6.42
  -4   4   1  209.21    5.96
  -4   4   1  206.35    6.43
  -4   4   1  210.95    6.03
   3  -4  -1   28.28    0.92
   3  -4  -1   28.77    0.87
   3  -4  -1   27.82    0.87
  -3   4   1   28.94    0.92
  -3   4   1   28.00    0.86
   2  -4  -1    6.57    0.25
   2  -4  -1    6.59    0.26
   2  -4  -1    6.22    0.25
  -2   4   1    6.79    0.25
  -2   4   1    6.12    0.25
   1  -4  -1  141.01    4.42
   1  -4  -1  144.04    4.14
   1  -4  -1  146.09    4.13
  -1   4   1  142.74    4.42
   0  -4  -1  276.85    8.40
   0  -4  -1  286.64    7.79
   0   4   1  254.96    7.79
  -1  -4  -1    0.25    0.08
   1   4   1    0.15    0.06
  -2  -4  -1   29.99    0.99
  -3  -4  -1    0.44    0.07
  -4  -4  -1   12.93    0.48
  -5  -4  -1    1.11    0.12
  -6  -4  -1    7.85    0.35
  -7  -4  -1   22.17    0.80
  -8  -4  -1   21.98    0.81
  -9  -4  -1    2.32    0.21
 -10  -4  -1    5.25    0.32
 -11  -4  -1    8.06    0.42
  11   4   1    7.83    0.42
 -12  -4  -1   -0.09    0.11
  12   4   1   -0.05    0.12
  16  -5  -1    6.60    0.44
 -16   5   1    5.92    0.42
  15  -5  -1    0.08    0.13
 -15   5   1    0.51    0.16
  14  -5  -1    1.22    0.22
  14  -5  -1    1.55    0.17
 -14   5   1    1.35    0.20
  13  -5  -1    0.91    0.14
  13  -5  -1    1.17    0.19
 -13   5   1    0.94    0.17
  12  -5  -1   13.72    0.53
  12  -5  -1   15.05    0.61
 -12   5   1   14.31    0.61
  11  -5  -1    2.49    0.18
  11  -5  -1    2.70    0.23
 -11   5   1    3.00    0.24
  10  -5  -1    4.72    0.27
  10  -5  -1    4.36    0.23
 -10   5   1    4.61    0.28
   9  -5  -1   28.68    0.98
   9  -5  -1   30.93    0.94
  -9   5   1   28.97    0.91
  -9   5   1   30.33    1.04
   8  -5  -1    4.61    0.21
   8  -5  -1    4.72    0.25
   8  -5  -1    4.85    0.24
  -8   5   1    4.79    0.20
  -8   5   1    4.28    0.24
   7  -5  -1   58.95    1.74
   7  -5  -1   56.68    1.71
  -7   5   1   56.60    1.71
  -7   5   1   58.39    1.71
  -7   5   1   57.15    1.86
   6  -5  -1    0.11    0.06
   6  -5  -1    0.12    0.05
   6  -5  -1    0.13    0.06
  -6   5   1    0.10    0.05
  -6   5   1    0.09    0.05
  -6   5   1    0.10    0.05
   5  -5  -1   44.21    1.42
   5  -5  -1   43.87    1.32
  -5   5   1   42.87    1.42
  -5   5   1   43.60    1.31
  -5   5   1   45.59    1.33
   4  -5  -1   11.02    0.39
   4  -5  -1   11.41    0.38
   4  -5  -1   10.90    0.39
  -4   5   1   11.01    0.40
  -4   5   1    8.83    0.36
  -4   5   1   11.04    0.38
   3  -5  -1    3.92    0.19
   3  -5  -1    4.26    0.20
   3  -5  -1    4.70    0.21
  -3   5   1    4.68    0.20
   2  -5  -1    1.59    0.13
   2  -5  -1    1.67    0.12
   2  -5  -1    1.63    0.11
  -2   5   1    1.41    0.11
  -2   5   1    1.63    0.11
   1  -5  -1   46.86    1.47
   1  -5  -1   44.65    1.40
   1  -5  -1   46.47    1.41
  -1   5   1   46.94    1.47
   0  -5  -1   22.94    0.75
   0  -5  -1   21.31    0.74
   0   5   1   22.24    0.73
  -1  -5  -1   23.50    0.79
  -2  -5  -1   19.29    0.68
  -3  -5  -1    0.59    0.09
  -4  -5  -1    5.11    0.25
  -5  -5  -1    4.56    0.25
  -6  -5  -1    4.20    0.25
  -7  -5  -1   22.91    0.83
  -8  -5  -1    3.49    0.24
  -9  -5  -1    0.06    0.09
 -10  -5  -1    1.56    0.19
 -11  -5  -1    1.06    0.18
  11   5   1    1.14    0.19
  16  -6  -1    3.69    0.37
  15  -6  -1   -0.05    0.13
 -15   6   1    0.08    0.13
  14  -6  -1    0.33    0.11
  14  -6  -1    0.15    0.13
 -14   6   1    0.26    0.13
  13  -6  -1    0.41    0.11
  13  -6  -1    0.52    0.16
 -13   6   1    0.59    0.15
  12  -6  -1    0.82    0.16
  12  -6  -1    0.94    0.13
 -12   6   1    1.17    0.17
  11  -6  -1   51.59    1.63
  11  -6  -1   51.75    1.57
 -11   6   1   50.07    1.72
  10  -6  -1    5.26    0.26
  10  -6  -1    4.84    0.29
 -10   6   1    4.88    0.29
   9  -6  -1   18.28    0.61
   9  -6  -1   17.65    0.65
  -9   6   1   17.67    0.67
   8  -6  -1    0.22    0.07
   8  -6  -1    0.23    0.07
   8  -6  -1    0.20    0.08
  -8   6   1    0.20    0.07
   7  -6  -1   27.91    0.93
   7  -6  -1   25.46    0.88
   7  -6  -1   25.63    0.86
  -7   6   1   29.21    0.94
   6  -6  -1    6.71    0.30
   6  -6  -1    6.45    0.29
   6  -6  -1    6.63    0.28
  -6   6   1    7.49    0.31
   5  -6  -1    5.44    0.24
   5  -6  -1    4.63    0.24
   5  -6  -1    5.13    0.24
  -5   6   1    4.93    0.24
  -5   6   1    5.33    0.23
   4  -6  -1  224.79    7.03
   4  -6  -1  232.46    6.55
   4  -6  -1  230.41    6.56
  -4   6   1  233.65    6.55
  -4   6   1  221.49    7.04
   3  -6  -1    0.37    0.08
   3  -6  -1    0.40    0.08
   3  -6  -1    0.26    0.06
  -3   6   1    0.28    0.07
  -3   6   1    0.38    0.07
   2  -6  -1    1.23    0.10
   2  -6  -1    0.88    0.11
   2  -6  -1    0.84    0.11
  -2   6   1    1.02    0.10
   1  -6  -1   31.43    1.01
   1  -6  -1   30.04    0.99
   0  -6  -1   13.71    0.49
   0  -6  -1   12.77    0.50
  -1  -6  -1    0.03    0.05
  -1  -6  -1    0.09    0.09
  -2  -6  -1   10.83    0.42
  -2  -6  -1   10.49    0.45
  -3  -6  -1   -0.01    0.06
  -4  -6  -1    1.27    0.14
  -5  -6  -1    4.63    0.26
  -6  -6  -1    2.85    0.21
  -7  -6  -1    2.64    0.21
  -8  -6  -1    1.02    0.15
  -9  -6  -1    0.14    0.10
 -10  -6  -1    0.34    0.12
  16  -7  -1    0.00    0.14
  15  -7  -1    1.57    0.24
  14  -7  -1    2.94    0.30
  14  -7  -1    2.56    0.21
 -14   7   1    2.49    0.27
  13  -7  -1   11.11    0.51
  13  -7  -1   10.47    0.44
 -13   7   1    9.77    0.50
  12  -7  -1    2.31    0.24
  12  -7  -1    1.99    0.19
 -12   7   1    1.82    0.20
  11  -7  -1    0.37    0.10
  11  -7  -1    0.58    0.14
 -11   7   1    0.34    0.12
  10  -7  -1    1.75    0.19
  10  -7  -1    1.72    0.17
 -10   7   1    1.32    0.16
   9  -7  -1    0.05    0.09
   9  -7  -1    0.02    0.07
   9  -7  -1   -0.03    0.06
  -9   7   1   -0.04    0.07
   8  -7  -1    1.92    0.17
   8  -7  -1    1.71    0.14
  -8   7   1    1.63    0.16
   7  -7  -1   11.79    0.47
   7  -7  -1   12.18    0.45
   7  -7  -1   12.17    0.47
  -7   7   1   12.61    0.49
   6  -7  -1   41.44    1.37
   6  -7  -1   42.49    1.31
   6  -7  -1   40.47    1.29
  -6   7   1   43.29    1.39
   5  -7  -1   34.73    1.09
   5  -7  -1   33.14    1.08
   5  -7  -1   33.24    1.13
  -5   7   1   36.07    1.15
   4  -7  -1    6.42    0.28
   4  -7  -1    6.19    0.29
  -4   7   1    7.18    0.29
   3  -7  -1    0.04    0.08
   3  -7  -1   -0.02    0.04
   3  -7  -1   -0.04    0.06
  -3   7   1    0.03    0.05
   2  -7  -1    0.81    0.13
   2  -7  -1    0.81    0.09
   2  -7  -1    0.83    0.12
  -2   7   1    0.89    0.10
   1  -7  -1   -0.03    0.07
   1  -7  -1   -0.01    0.04
   0  -7  -1    6.90    0.29
   0  -7  -1    6.14    0.32
  -1  -7  -1    0.30    0.10
  -1  -7  -1    0.18    0.07
  -2  -7  -1   99.97    3.12
  -2  -7  -1   97.03    2.97
  -2  -7  -1   99.06    3.12
  -3  -7  -1   17.56    0.65
  -4  -7  -1   39.20    1.32
  -5  -7  -1    9.66    0.42
  -6  -7  -1    2.71    0.21
  -7  -7  -1    0.51    0.12
  -8  -7  -1    2.87    0.24
  -9  -7  -1    2.74    0.24
  16  -8  -1    3.37    0.35
  15  -8  -1    2.66    0.31
  14  -8  -1    5.31    0.37
  14  -8  -1    5.40    0.32
  13  -8  -1    1.73    0.23
  13  -8  -1    2.15    0.21
 -13   8   1    2.22    0.23
  12  -8  -1    0.03    0.08
  12  -8  -1    0.03    0.12
 -12   8   1    0.02    0.10
  11  -8  -1    3.71    0.23
  11  -8  -1    3.56    0.26
 -11   8   1    2.65    0.24
  10  -8  -1    3.60    0.23
  10  -8  -1    3.72    0.27
 -10   8   1    3.91    0.26
   9  -8  -1    1.88    0.17
   9  -8  -1    2.22    0.17
   9  -8  -1    1.61    0.18
  -9   8   1    1.95    0.18
   8  -8  -1    9.12    0.40
   8  -8  -1    9.41    0.41
   8  -8  -1    9.44    0.39
  -8   8   1    9.74    0.42
   7  -8  -1    0.43    0.09
   7  -8  -1    0.28    0.10
   7  -8  -1    0.49    0.11
  -7   8   1    0.35    0.09
   6  -8  -1    9.96    0.43
   6  -8  -1   10.33    0.42
   6  -8  -1   10.04    0.41
  -6   8   1   10.87    0.43
   5  -8  -1    9.38    0.41
   5  -8  -1    9.79    0.41
   5  -8  -1   10.52    0.40
  -5   8   1   10.24    0.41
   4  -8  -1    2.71    0.21
   4  -8  -1    2.55    0.19
   4  -8  -1    2.92    0.17
  -4   8   1    2.89    0.18
   3  -8  -1   99.09    2.91
   3  -8  -1  101.87    3.07
   3  -8  -1   97.28    2.90
  -3   8   1   91.87    3.06
   2  -8  -1   18.07    0.67
   2  -8  -1   18.36    0.65
   1  -8  -1    3.61    0.20
   1  -8  -1    3.62    0.25
   0  -8  -1   24.08    0.85
   0  -8  -1   22.91    0.82
  -1  -8  -1    2.19    0.18
  -1  -8  -1    2.21    0.17
  -1  -8  -1    2.67    0.25
  -2  -8  -1    1.08    0.14
  -2  -8  -1    1.12    0.13
  -3  -8  -1    5.58    0.29
  -3  -8  -1    5.41    0.29
  -4  -8  -1    5.22    0.29
  -5  -8  -1    1.20    0.15
  -6  -8  -1    1.36    0.17
  -7  -8  -1    3.10    0.25
  -8  -8  -1    0.12    0.10
  -9  -8  -1   11.47    0.53
  16  -9  -1    2.67    0.32
  15  -9  -1   11.64    0.58
  15  -9  -1   11.68    0.53
  14  -9  -1    4.23    0.34
  14  -9  -1    4.66    0.30
  13  -9  -1   11.23    0.49
  13  -9  -1   11.43    0.54
  12  -9  -1    0.15    0.10
  12  -9  -1    0.13    0.11
  11  -9  -1   12.91    0.57
  11  -9  -1   13.79    0.54
 -11   9   1   14.05    0.59
  10  -9  -1   10.76    0.45
  10  -9  -1   10.58    0.48
 -10   9   1   10.22    0.48
   9  -9  -1    0.10    0.07
   9  -9  -1    0.06    0.11
   9  -9  -1    0.20    0.10
  -9   9   1    0.04    0.08
   8  -9  -1    4.97    0.29
   8  -9  -1    5.15    0.27
   8  -9  -1    5.15    0.28
  -8   9   1    4.78    0.28
   7  -9  -1    9.93    0.44
   7  -9  -1    9.71    0.41
   7  -9  -1    9.49    0.42
  -7   9   1   10.13    0.43
   6  -9  -1   37.11    1.19
   6  -9  -1   35.67    1.18
   6  -9  -1   37.00    1.22
  -6   9   1   35.56    1.23
   5  -9  -1   23.00    0.81
   5  -9  -1   23.18    0.81
   5  -9  -1   22.62    0.80
  -5   9   1   22.91    0.81
   4  -9  -1   15.87    0.62
   4  -9  -1   16.50    0.63
   4  -9  -1   16.11    0.60
  -4   9   1   17.14    0.61
   3  -9  -1   10.50    0.42
   3  -9  -1   10.82    0.47
   3  -9  -1   10.06    0.46
  -3   9   1    9.93    0.41
   2  -9  -1   10.62    0.47
   2  -9  -1   10.89    0.43
   1  -9  -1    0.03    0.10
   1  -9  -1   -0.03    0.05
   0  -9  -1   21.86    0.81
   0  -9  -1   21.28    0.77
  -1  -9  -1   24.57    0.89
  -1  -9  -1   25.48    0.91
  -1  -9  -1   25.73    0.93
  -2  -9  -1    7.09    0.35
  -2  -9  -1    6.57    0.33
  -3  -9  -1    1.25    0.16
  -4  -9  -1   18.66    0.72
  -5  -9  -1   -0.12    0.07
  -6  -9  -1   -0.08    0.09
  -7  -9  -1    1.34    0.18
  -8  -9  -1    5.05    0.33
  16 -10  -1    0.32    0.18
  15 -10  -1    1.31    0.20
  15 -10  -1    1.48    0.26
  14 -10  -1    0.68    0.16
  14 -10  -1    0.73    0.20
  13 -10  -1    7.93    0.39
  13 -10  -1    6.98    0.42
  12 -10  -1    3.99    0.29
  12 -10  -1    4.60    0.33
  11 -10  -1    3.08    0.26
  11 -10  -1    3.13    0.24
  10 -10  -1   13.76    0.57
  10 -10  -1   13.06    0.54
   9 -10  -1    3.73    0.27
   9 -10  -1    3.92    0.26
  -9  10   1    3.80    0.26
   8 -10  -1    5.33    0.29
   8 -10  -1    5.70    0.33
   8 -10  -1    5.45    0.30
  -8  10   1    4.98    0.30
   7 -10  -1    6.92    0.33
   7 -10  -1    6.47    0.34
   7 -10  -1    6.55    0.35
  -7  10   1    6.47    0.33
   6 -10  -1    4.54    0.29
   6 -10  -1    4.76    0.29
   6 -10  -1    5.49    0.27
  -6  10   1    5.17    0.28
   5 -10  -1   20.66    0.75
   5 -10  -1   20.11    0.72
   5 -10  -1   18.65    0.73
  -5  10   1   19.33    0.72
   4 -10  -1    2.89    0.25
   4 -10  -1    3.04    0.19
   4 -10  -1    2.83    0.24
  -4  10   1    2.37    0.18
   3 -10  -1   41.06    1.38
   3 -10  -1   42.23    1.39
   2 -10  -1    0.07    0.06
   2 -10  -1    0.16    0.12
   1 -10  -1    9.95    0.42
   1 -10  -1    9.87    0.48
   0 -10  -1    3.29    0.22
   0 -10  -1    3.42    0.30
  -1 -10  -1    0.36    0.16
  -1 -10  -1    0.37    0.11
  -1 -10  -1    0.19    0.09
  -2 -10  -1    0.12    0.09
  -3 -10  -1   19.79    0.76
  -4 -10  -1    1.50    0.18
  -5 -10  -1   13.81    0.58
  -6 -10  -1    0.24    0.11
  -7 -10  -1    4.91    0.32
  16 -11  -1    1.32    0.25
  15 -11  -1    1.12    0.20
  15 -11  -1    1.06    0.23
  14 -11  -1    0.50    0.19
  14 -11  -1    0.30    0.14
  13 -11  -1    0.57    0.15
  13 -11  -1    0.71    0.19
  12 -11  -1    0.32    0.16
  12 -11  -1    0.73    0.16
  11 -11  -1   -0.06    0.10
  11 -11  -1    0.03    0.12
  10 -11  -1    2.24    0.23
  10 -11  -1    2.25    0.24
   9 -11  -1    7.71    0.40
   9 -11  -1    7.30    0.38
   8 -11  -1   28.86    1.02
   8 -11  -1   29.10    1.02
   7 -11  -1   38.59    1.28
   7 -11  -1   37.05    1.27
   6 -11  -1    2.61    0.26
   6 -11  -1    2.45    0.24
   5 -11  -1    0.21    0.12
   5 -11  -1    0.25    0.13
   5 -11  -1    0.11    0.07
   4 -11  -1    6.76    0.39
   4 -11  -1    6.85    0.38
   4 -11  -1    6.24    0.31
   3 -11  -1    6.71    0.38
   3 -11  -1    5.98    0.30
   2 -11  -1    8.28    0.37
   2 -11  -1    7.61    0.43
   1 -11  -1    5.16    0.30
   1 -11  -1    5.48    0.36
   0 -11  -1    3.44    0.30
  -1 -11  -1    2.34    0.22
  -1 -11  -1    2.25    0.27
  -2 -11  -1   27.43    1.00
  -3 -11  -1    4.68    0.30
  -4 -11  -1    4.36    0.29
  -5 -11  -1   -0.01    0.09
  15 -12  -1    1.92    0.25
  15 -12  -1    2.45    0.30
  14 -12  -1    7.31    0.42
  14 -12  -1    7.74    0.48
  13 -12  -1    7.93    0.46
  13 -12  -1    7.87    0.43
  12 -12  -1   -0.09    0.14
  12 -12  -1   -0.03    0.12
  11 -12  -1   -0.20    0.10
  11 -12  -1   -0.16    0.11
  10 -12  -1    0.39    0.15
  10 -12  -1    0.36    0.15
   9 -12  -1    0.52    0.15
   9 -12  -1    0.40    0.15
   8 -12  -1    5.85    0.37
   8 -12  -1    5.49    0.36
   7 -12  -1   16.77    0.70
   7 -12  -1   17.22    0.71
   6 -12  -1    9.48    0.48
   6 -12  -1    8.15    0.45
   5 -12  -1   11.67    0.55
   5 -12  -1   10.71    0.53
   4 -12  -1    5.39    0.36
   3 -12  -1    4.04    0.32
   2 -12  -1   14.33    0.66
   1 -12  -1    5.67    0.40
   0 -12  -1    1.33    0.22
   0 -12  -1    1.38    0.18
  -1 -12  -1    2.96    0.25
  -1 -12  -1    3.15    0.33
  -2 -12  -1   15.26    0.64
  -3 -12  -1    5.33    0.33
  -4 -12  -1    0.32    0.12
  15 -13  -1    1.95    0.26
  15 -13  -1    2.29    0.31
  14 -13  -1    7.87    0.50
  14 -13  -1    7.98    0.46
  13 -13  -1    2.00    0.29
  13 -13  -1    2.19    0.26
  12 -13  -1    4.51    0.35
  12 -13  -1    3.98    0.33
  11 -13  -1    5.92    0.41
  11 -13  -1    5.55    0.38
  10 -13  -1    3.94    0.37
  10 -13  -1    3.69    0.34
   9 -13  -1    4.26    0.35
   9 -13  -1    4.47    0.37
   8 -13  -1    3.50    0.34
   8 -13  -1    3.39    0.32
   7 -13  -1    0.57    0.17
   7 -13  -1    0.79    0.19
   6 -13  -1    6.07    0.41
   6 -13  -1    6.04    0.40
   5 -13  -1    8.43    0.48
   4 -13  -1   26.89    1.04
   3 -13  -1    0.08    0.14
   2 -13  -1    6.08    0.43
   1 -13  -1    3.74    0.38
   0 -13  -1    2.84    0.26
   0 -13  -1    3.17    0.36
  -1 -13  -1    3.72    0.29
  -2 -13  -1    0.22    0.12
  -3 -13  -1    1.36    0.19
  14 -14  -1    1.90    0.26
  14 -14  -1    1.86    0.29
  13 -14  -1    0.44    0.17
  13 -14  -1    0.42    0.19
  12 -14  -1    0.04    0.15
  12 -14  -1    0.29    0.15
  11 -14  -1   -0.11    0.15
  11 -14  -1   -0.09    0.14
  10 -14  -1    0.16    0.17
  10 -14  -1    0.06    0.15
   9 -14  -1    0.85    0.21
   9 -14  -1    1.25    0.24
   8 -14  -1    5.09    0.38
   8 -14  -1    5.01    0.39
   7 -14  -1    0.13    0.15
   7 -14  -1    0.32    0.16
   6 -14  -1    2.41    0.31
   5 -14  -1   -0.01    0.13
   4 -14  -1    9.85    0.55
   3 -14  -1    0.04    0.17
   2 -14  -1    7.73    0.51
   1 -14  -1   12.11    0.64
   0 -14  -1    1.40    0.27
   0 -14  -1    1.26    0.19
  -1 -14  -1    0.05    0.11
  13 -15  -1    2.62    0.31
  13 -15  -1    3.36    0.37
  12 -15  -1    0.05    0.15
  12 -15  -1    0.07    0.18
  11 -15  -1   -0.10    0.14
  11 -15  -1   -0.05    0.14
  10 -15  -1    0.21    0.17
  10 -15  -1    0.06    0.15
   9 -15  -1   -0.12    0.13
   9 -15  -1    0.11    0.16
   8 -15  -1   -0.15    0.12
   8 -15  -1    0.23    0.16
   7 -15  -1    0.33    0.19
   6 -15  -1    3.93    0.40
   5 -15  -1    0.99    0.25
   4 -15  -1    3.72    0.39
   3 -15  -1    8.66    0.54
   2 -15  -1    0.06    0.18
   1 -15  -1   24.44    1.05
   1 -15  -1   25.28    0.99
  12 -16  -1    3.25    0.37
  11 -16  -1    0.09    0.17
  11 -16  -1    0.10    0.18
  10 -16  -1    0.27    0.18
  10 -16  -1    0.83    0.21
   9 -16  -1    9.36    0.56
   9 -16  -1   11.60    0.63
   8 -16  -1    1.31    0.28
   7 -16  -1    2.22    0.33
   6 -16  -1    3.64    0.39
   5 -16  -1   -0.08    0.16
   4 -16  -1    1.02    0.27
   3 -16  -1    0.06    0.20
   5 -17   2    3.49    0.42
   6 -17   2   14.50    0.75
   7 -17   2    1.16    0.26
   8 -17   2    2.04    0.32
   8 -17   2    2.22    0.32
   9 -17   2    2.83    0.35
   9 -17   2    2.31    0.33
  10 -17   2   -0.05    0.16
  10 -17   2    0.06    0.16
   2 -16   2    4.11    0.44
   3 -16   2    9.25    0.59
   4 -16   2    2.59    0.35
   5 -16   2    1.98    0.31
   6 -16   2    0.35    0.20
   7 -16   2   11.77    0.62
   7 -16   2   10.32    0.60
   8 -16   2    0.42    0.18
   8 -16   2    0.31    0.20
   9 -16   2    3.11    0.36
   9 -16   2    3.96    0.40
  10 -16   2   10.99    0.61
  10 -16   2   11.32    0.61
  11 -16   2   11.45    0.63
  11 -16   2   12.12    0.64
  12 -16   2    2.10    0.33
  12 -16   2    1.79    0.26
   0 -15   2    0.52    0.14
   0 -15   2    0.43    0.22
   1 -15   2    6.94    0.49
   2 -15   2    0.68    0.23
   3 -15   2   15.62    0.74
   4 -15   2   -0.11    0.16
   5 -15   2    1.29    0.25
   6 -15   2    8.87    0.54
   6 -15   2    8.80    0.52
   7 -15   2    1.41    0.26
   7 -15   2    1.81    0.27
   8 -15   2    1.93    0.26
   8 -15   2    1.48    0.26
   9 -15   2   -0.26    0.13
   9 -15   2   -0.07    0.13
  10 -15   2    1.14    0.24
  10 -15   2    1.11    0.23
  11 -15   2    2.35    0.31
  11 -15   2    2.31    0.30
  12 -15   2    0.20    0.16
  12 -15   2    0.34    0.17
  13 -15   2    7.94    0.49
  13 -15   2    9.16    0.55
  14 -15   2    0.02    0.15
  -2 -14   2    0.13    0.10
  -1 -14   2    0.19    0.10
   0 -14   2    4.11    0.42
   0 -14   2    4.49    0.29
   1 -14   2    1.24    0.25
   2 -14   2   15.36    0.73
   3 -14   2    6.42    0.45
   4 -14   2    4.17    0.35
   5 -14   2    0.16    0.15
   5 -14   2    0.46    0.19
   6 -14   2    3.08    0.32
   6 -14   2    3.77    0.32
   7 -14   2   -0.10    0.14
   7 -14   2    0.03    0.13
   8 -14   2    0.01    0.14
   8 -14   2   -0.05    0.13
   9 -14   2    2.54    0.31
   9 -14   2    2.45    0.29
  10 -14   2    2.57    0.29
  10 -14   2    1.71    0.26
  11 -14   2    2.40    0.28
  11 -14   2    2.70    0.32
  12 -14   2    2.05    0.27
  12 -14   2    2.24    0.28
  13 -14   2    1.30    0.25
  13 -14   2    1.46    0.24
  14 -14   2    0.13    0.16
  14 -14   2    0.38    0.18
  -4 -13   2    2.72    0.23
  -3 -13   2    0.74    0.13
  -2 -13   2    2.74    0.22
  -1 -13   2    0.84    0.22
  -1 -13   2    1.28    0.16
   0 -13   2    7.61    0.38
   0 -13   2    8.20    0.50
   1 -13   2    5.38    0.39
   2 -13   2    0.62    0.21
   3 -13   2    2.24    0.29
   4 -13   2   12.54    0.59
   4 -13   2   11.15    0.57
   5 -13   2   31.26    1.14
   5 -13   2   30.72    1.13
   6 -13   2    4.20    0.33
   6 -13   2    4.72    0.34
   7 -13   2    0.27    0.15
   7 -13   2   -0.19    0.11
   8 -13   2    3.29    0.32
   8 -13   2    4.12    0.33
   9 -13   2    2.13    0.25
   9 -13   2    2.03    0.26
  10 -13   2   -0.04    0.13
  10 -13   2    0.05    0.14
  11 -13   2    0.61    0.17
  11 -13   2    0.45    0.17
  12 -13   2    9.99    0.50
  12 -13   2   10.39    0.53
  13 -13   2    3.49    0.35
  13 -13   2    3.58    0.31
  14 -13   2    7.68    0.45
  14 -13   2    7.77    0.48
  15 -13   2    4.38    0.37
  15 -13   2    5.25    0.42
  -5 -12   2    0.65    0.12
  -4 -12   2    1.78    0.17
  -3 -12   2    0.25    0.10
  -2 -12   2    2.99    0.22
  -1 -12   2   -0.03    0.15
  -1 -12   2    0.31    0.10
   0 -12   2   31.57    1.16
   1 -12   2   14.14    0.54
   1 -12   2   14.39    0.65
   2 -12   2    0.06    0.06
   2 -12   2    0.04    0.12
   3 -12   2    1.85    0.24
   3 -12   2    2.27    0.26
   3 -12   2    2.47    0.17
   4 -12   2    9.25    0.39
   4 -12   2    9.41    0.49
   4 -12   2    9.80    0.48
   5 -12   2    0.19    0.13
   5 -12   2    0.29    0.15
   6 -12   2    0.30    0.15
   6 -12   2    0.34    0.14
   7 -12   2    9.12    0.47
   7 -12   2    9.94    0.49
   8 -12   2    6.15    0.36
   8 -12   2    6.47    0.39
   9 -12   2    0.06    0.13
   9 -12   2   -0.02    0.12
  10 -12   2    0.44    0.15
  10 -12   2    0.79    0.18
  11 -12   2    0.06    0.12
  11 -12   2    0.03    0.13
  12 -12   2    0.03    0.11
  12 -12   2    0.04    0.13
  13 -12   2    5.92    0.38
  13 -12   2    6.14    0.42
  14 -12   2   -0.02    0.13
  14 -12   2   -0.20    0.12
  15 -12   2    0.61    0.18
  15 -12   2    0.58    0.19
  -6 -11   2    0.34    0.10
  -5 -11   2    0.44    0.11
  -4 -11   2    0.02    0.08
  -3 -11   2    1.98    0.17
  -2 -11   2    0.33    0.10
  -1 -11   2    3.24    0.22
  -1 -11   2    3.49    0.33
  -1 -11   2    3.30    0.20
   0 -11   2    2.25    0.26
   0 -11   2    2.58    0.17
   1 -11   2   18.17    0.74
   1 -11   2   18.89    0.67
   2 -11   2    1.15    0.20
   2 -11   2    0.82    0.11
   3 -11   2    3.28    0.30
   3 -11   2    3.05    0.19
   3 -11   2    3.14    0.27
  -4  11  -2    0.27    0.08
   4 -11   2    0.16    0.07
   4 -11   2    0.42    0.13
   4 -11   2    0.13    0.11
  -5  11  -2   16.74    0.61
   5 -11   2   16.56    0.67
   5 -11   2   15.95    0.61
   5 -11   2   17.60    0.67
  -6  11  -2    3.78    0.23
   6 -11   2    4.43    0.29
   6 -11   2    4.23    0.30
   6 -11   2    4.26    0.23
   7 -11   2   39.41    1.34
   7 -11   2   39.33    1.32
   7 -11   2   41.33    1.34
   8 -11   2    8.42    0.41
   8 -11   2    6.91    0.39
   9 -11   2    0.52    0.14
   9 -11   2    0.44    0.14
  10 -11   2    2.09    0.23
  10 -11   2    2.55    0.25
  11 -11   2    0.00    0.10
  11 -11   2   -0.08    0.10
  12 -11   2    2.61    0.26
  12 -11   2    2.06    0.25
  13 -11   2    0.14    0.15
  13 -11   2    0.08    0.11
  14 -11   2    0.06    0.13
  14 -11   2    0.15    0.14
  15 -11   2    0.27    0.16
  15 -11   2    0.04    0.13
  16 -11   2    0.25    0.15
  -7 -10   2    2.25    0.20
  -6 -10   2    0.16    0.09
  -5 -10   2    0.95    0.13
  -4 -10   2    0.74    0.11
  -3 -10   2    6.90    0.32
  -3 -10   2    6.78    0.32
  -2 -10   2    2.34    0.17
  -2 -10   2    2.08    0.17
  -1 -10   2    7.82    0.43
  -1 -10   2    7.21    0.32
  -1 -10   2    7.18    0.34
   0 -10   2   37.87    1.30
   0 -10   2   38.55    1.26
   1 -10   2   27.32    0.94
   1 -10   2   28.62    1.00
   2 -10   2    6.45    0.27
   2 -10   2    5.39    0.34
   2 -10   2    5.91    0.34
   3 -10   2   57.82    1.84
   3 -10   2   59.10    1.87
   3 -10   2   58.14    1.84
  -4  10  -2    1.40    0.13
   4 -10   2    1.11    0.16
   4 -10   2    1.28    0.12
   4 -10   2    1.39    0.17
  -5  10  -2   20.24    0.71
   5 -10   2   19.53    0.71
   5 -10   2   19.78    0.74
   5 -10   2   20.69    0.75
  -6  10  -2    0.66    0.11
   6 -10   2    0.67    0.13
   6 -10   2    0.53    0.14
   6 -10   2    0.75    0.11
  -7  10  -2    3.89    0.23
   7 -10   2    3.95    0.23
   7 -10   2    3.98    0.26
   7 -10   2    4.10    0.28
  -8  10  -2   -0.04    0.06
   8 -10   2   -0.09    0.06
   8 -10   2    0.10    0.10
   8 -10   2   -0.04    0.08
  -9  10  -2    7.47    0.36
   9 -10   2    7.29    0.36
   9 -10   2    7.04    0.37
  10 -10   2    5.78    0.34
  10 -10   2    6.21    0.33
  11 -10   2    0.48    0.15
  11 -10   2    0.17    0.10
  12 -10   2    6.65    0.36
  12 -10   2    7.50    0.40
  13 -10   2    3.30    0.25
  13 -10   2    2.63    0.27
  14 -10   2    3.91    0.32
  14 -10   2    3.86    0.29
  15 -10   2    0.65    0.17
  15 -10   2    0.32    0.18
  16 -10   2    0.58    0.19
  16 -10   2    0.83    0.18
  -8  -9   2    3.93    0.26
  -7  -9   2    2.80    0.21
  -6  -9   2    1.07    0.14
  -5  -9   2    1.28    0.15
  -4  -9   2    1.47    0.15
  -3  -9   2    1.09    0.12
  -3  -9   2    1.32    0.13
  -2  -9   2    2.26    0.25
  -2  -9   2    2.34    0.17
  -2  -9   2    2.64    0.17
  -1  -9   2    4.68    0.23
  -1  -9   2    4.82    0.31
   0  -9   2    0.27    0.12
   0  -9   2    0.09    0.06
   1  -9   2   78.42    2.50
   1  -9   2   80.71    2.43
   2  -9   2   21.66    0.79
   2  -9   2   21.66    0.74
   2  -9   2   22.51    0.79
  -3   9  -2   18.79    0.63
   3  -9   2   18.36    0.68
   3  -9   2   17.77    0.63
   3  -9   2   18.25    0.67
  -4   9  -2   62.85    2.04
   4  -9   2   63.56    1.97
   4  -9   2   67.33    1.98
   4  -9   2   63.15    2.04
  -5   9  -2   44.39    1.41
   5  -9   2   41.21    1.40
   5  -9   2   43.00    1.37
   5  -9   2   43.49    1.37
  -6   9  -2   52.85    1.70
   6  -9   2   52.72    1.63
   6  -9   2   51.64    1.69
   6  -9   2   52.44    1.64
  -7   9  -2    0.91    0.12
   7  -9   2    1.10    0.15
   7  -9   2    1.15    0.13
   7  -9   2    0.92    0.13
  -8   9  -2   34.62    1.21
   8  -9   2   36.45    1.17
   8  -9   2   35.41    1.16
   8  -9   2   36.10    1.21
  -9   9  -2    0.40    0.10
   9  -9   2    0.31    0.09
   9  -9   2    0.35    0.11
   9  -9   2    0.56    0.14
 -10   9  -2    6.88    0.36
  10  -9   2    7.40    0.36
  10  -9   2    7.47    0.38
 -11   9  -2    1.45    0.18
  11  -9   2    1.73    0.21
  11  -9   2    1.67    0.18
  12  -9   2    9.23    0.47
  12  -9   2    9.55    0.43
  13  -9   2   10.36    0.46
  13  -9   2   10.09    0.50
  14  -9   2    0.01    0.11
  14  -9   2   -0.07    0.14
  15  -9   2   26.68    1.02
  15  -9   2   26.29    0.95
  16  -9   2    0.01    0.15
  16  -9   2    0.10    0.12
  -9  -8   2    0.27    0.11
  -8  -8   2    0.19    0.10
  -7  -8   2    2.04    0.18
  -6  -8   2    6.14    0.30
  -5  -8   2    0.06    0.07
  -4  -8   2    3.32    0.20
  -3  -8   2    4.12    0.22
  -2  -8   2   16.06    0.57
  -2  -8   2   15.41    0.57
  -2  -8   2   16.52    0.64
  -1  -8   2   25.59    0.89
  -1  -8   2   24.31    0.83
   0  -8   2    4.38    0.27
   0  -8   2    3.99    0.19
   1  -8   2    1.21    0.10
   1  -8   2    1.40    0.16
   1  -8   2    1.18    0.15
   2  -8   2    2.97    0.15
   2  -8   2    2.68    0.20
   2  -8   2    2.71    0.20
  -3   8  -2    1.47    0.11
   3  -8   2    1.80    0.17
   3  -8   2    1.45    0.11
   3  -8   2    1.71    0.17
  -4   8  -2  139.23    4.14
   4  -8   2  124.87    4.13
   4  -8   2  132.82    3.90
   4  -8   2  136.61    3.91
  -5   8  -2   24.15    0.84
   5  -8   2   24.58    0.84
   5  -8   2   26.06    0.83
   5  -8   2   24.01    0.82
  -6   8  -2   20.27    0.74
   6  -8   2   21.71    0.73
   6  -8   2   22.34    0.75
   6  -8   2   20.60    0.73
  -7   8  -2    2.95    0.19
   7  -8   2    3.18    0.21
   7  -8   2    3.25    0.21
   7  -8   2    3.61    0.20
  -8   8  -2    0.34    0.09
   8  -8   2    0.33    0.09
   8  -8   2    0.38    0.09
   8  -8   2    0.13    0.09
  -9   8  -2   15.16    0.59
   9  -8   2   14.61    0.56
   9  -8   2   15.46    0.58
 -10   8  -2   20.37    0.76
  10  -8   2   18.71    0.72
  10  -8   2   20.77    0.72
 -11   8  -2    5.66    0.33
  11  -8   2    4.64    0.28
  11  -8   2    5.77    0.33
 -12   8  -2   15.78    0.66
  12  -8   2   15.91    0.61
  12  -8   2   15.80    0.65
  13  -8   2    1.51    0.22
  13  -8   2    1.25    0.17
  14  -8   2   10.26    0.47
  14  -8   2   10.59    0.54
  15  -8   2    9.50    0.53
  15  -8   2    9.80    0.46
  16  -8   2    1.54    0.24
  16  -8   2    1.60    0.25
 -10  -7   2    0.43    0.12
  -9  -7   2    0.66    0.13
  -8  -7   2   -0.05    0.07
  -7  -7   2   12.09    0.49
  -6  -7   2    9.20    0.39
  -5  -7   2    3.22    0.20
  -4  -7   2   20.24    0.71
  -3  -7   2    3.28    0.18
  -2  -7   2    0.16    0.09
  -2  -7   2    0.04    0.05
  -1  -7   2   23.90    0.84
  -1  -7   2   24.90    0.81
   0  -7   2    0.21    0.05
   0  -7   2    0.12    0.08
   1  -7   2    2.13    0.17
   1  -7   2    2.07    0.18
   1  -7   2    2.17    0.12
  -2   7  -2    7.21    0.27
   2  -7   2    7.21    0.32
   2  -7   2    6.72    0.31
   2  -7   2    7.35    0.28
  -3   7  -2   11.69    0.42
   3  -7   2   11.81    0.42
   3  -7   2   12.47    0.46
   3  -7   2   11.99    0.45
  -4   7  -2    0.08    0.05
   4  -7   2    0.30    0.08
   4  -7   2    0.14    0.05
   4  -7   2    0.06    0.06
  -5   7  -2   25.42    0.85
   5  -7   2   24.02    0.82
   5  -7   2   24.99    0.84
   5  -7   2   26.02    0.83
  -6   7  -2   48.02    1.58
   6  -7   2   49.29    1.58
   6  -7   2   51.14    1.50
   6  -7   2   47.82    1.50
  -7   7  -2   22.40    0.77
   7  -7   2   20.91    0.74
   7  -7   2   22.78    0.73
   7  -7   2   20.96    0.76
  -8   7  -2    2.57    0.18
   8  -7   2    2.38    0.18
   8  -7   2    2.47    0.17
   8  -7   2    2.38    0.17
  -9   7  -2    6.06    0.31
   9  -7   2    6.33    0.32
   9  -7   2    6.05    0.29
   9  -7   2    5.98    0.30
 -10   7  -2    5.49    0.31
  10  -7   2    4.81    0.27
  10  -7   2    5.45    0.31
 -11   7  -2    6.37    0.36
  11  -7   2    6.69    0.33
  11  -7   2    6.91    0.37
 -12   7  -2    1.35    0.19
  12  -7   2    1.41    0.20
  12  -7   2    1.59    0.18
 -13   7  -2   19.45    0.81
  13  -7   2   21.15    0.81
  13  -7   2   20.48    0.74
  14  -7   2    3.29    0.25
  14  -7   2    3.71    0.34
  15  -7   2    1.92    0.21
  15  -7   2    1.88    0.25
  16  -7   2    0.62    0.20
 -11  -6   2    7.32    0.40
 -10  -6   2    3.91    0.27
  -9  -6   2    0.86    0.14
  -8  -6   2    0.03    0.07
  -7  -6   2    1.25    0.14
  -6  -6   2   10.93    0.44
  -5  -6   2    4.45    0.23
  -4  -6   2   13.93    0.50
  -3  -6   2    4.28    0.20
  -2  -6   2   30.27    0.99
  -2  -6   2   30.19    1.00
   1   6  -2   60.19    1.83
  -1  -6   2   59.95    1.83
   0   6  -2    1.02    0.11
   0  -6   2    0.96    0.12
   0  -6   2    0.70    0.11
   0  -6   2    1.08    0.08
   1  -6   2  159.52    4.51
   1  -6   2  152.54    4.49
   1  -6   2  154.10    4.77
  -2   6  -2   43.34    1.29
  -2   6  -2   43.20    1.28
  -2   6  -2   41.42    1.33
  -2   6  -2   39.42    1.28
   2  -6   2   43.53    1.30
   2  -6   2   42.48    1.29
   2  -6   2   41.83    1.33
  -3   6  -2   54.80    1.67
  -3   6  -2   52.48    1.58
   3  -6   2   54.51    1.67
   3  -6   2   51.73    1.59
   3  -6   2   50.42    1.59
  -4   6  -2  108.20    3.12
  -4   6  -2  107.74    3.30
   4  -6   2  108.61    3.10
   4  -6   2  108.08    3.30
   4  -6   2   98.71    3.09
  -5   6  -2    2.35    0.14
   5  -6   2    2.38    0.14
   5  -6   2    2.01    0.15
   5  -6   2    2.24    0.15
   5  -6   2    2.33    0.15
  -6   6  -2  169.86    5.08
   6  -6   2  159.67    4.78
   6  -6   2  158.60    4.73
   6  -6   2  158.54    4.73
   6  -6   2  173.41    5.08
  -7   6  -2    0.05    0.06
   7  -6   2    0.01    0.06
   7  -6   2    0.03    0.05
   7  -6   2    0.00    0.05
   7  -6   2    0.00    0.07
  -8   6  -2   13.33    0.52
   8  -6   2   13.40    0.47
   8  -6   2   13.56    0.48
   8  -6   2   13.16    0.50
  -9   6  -2   31.32    1.09
   9  -6   2   32.14    1.05
   9  -6   2   31.57    1.01
 -10   6  -2    0.58    0.12
  10  -6   2    0.37    0.10
  10  -6   2    0.31    0.11
 -11   6  -2   33.35    1.22
  11  -6   2   35.40    1.17
  11  -6   2   35.93    1.13
 -12   6  -2   -0.08    0.09
  12  -6   2   -0.01    0.08
  12  -6   2    0.08    0.11
 -13   6  -2   -0.01    0.10
  13  -6   2    0.01    0.11
  13  -6   2    0.10    0.10
 -14   6  -2    0.65    0.16
  14  -6   2    0.51    0.13
  14  -6   2    0.79    0.18
  15  -6   2    0.81    0.16
  15  -6   2    1.14    0.23
  16  -6   2    0.78    0.21
  11   5  -2    1.23    0.19
 -11  -5   2    1.16    0.17
 -10  -5   2    0.10    0.09
  -9  -5   2    0.85    0.13
  -8  -5   2    0.24    0.09
  -7  -5   2   12.54    0.49
   6   5  -2    0.09    0.05
  -6  -5   2    0.09    0.06
   5   5  -2    0.54    0.07
  -5  -5   2    0.41    0.08
   4   5  -2   14.60    0.49
  -4  -5   2   14.70    0.52
   3   5  -2   47.38    1.39
  -3  -5   2   44.91    1.46
   2   5  -2   20.89    0.66
  -2  -5   2   20.09    0.68
  -2  -5   2   20.64    0.71
   1   5  -2  112.83    3.34
   1   5  -2  111.50    3.34
   1   5  -2  117.81    3.35
  -1  -5   2  116.47    3.35
   0   5  -2   10.38    0.36
   0   5  -2   10.06    0.38
   0  -5   2   10.34    0.35
   0  -5   2   10.11    0.38
   0  -5   2   10.27    0.38
  -1   5  -2   17.12    0.57
  -1   5  -2   17.82    0.58
  -1   5  -2   16.60    0.58
  -1   5  -2   18.17    0.57
   1  -5   2   18.18    0.59
   1  -5   2   18.07    0.59
   1  -5   2   18.00    0.58
  -2   5  -2   40.61    1.21
  -2   5  -2   39.56    1.26
   2  -5   2   39.80    1.21
   2  -5   2   40.44    1.26
   2  -5   2   39.91    1.22
   2  -5   2   39.96    1.21
  -3   5  -2    0.59    0.07
  -3   5  -2    0.48    0.08
   3  -5   2    0.38    0.08
   3  -5   2    0.56    0.09
   3  -5   2    0.67    0.07
   3  -5   2    0.43    0.09
  -4   5  -2    0.23    0.05
  -4   5  -2    0.35    0.07
  -4   5  -2    0.18    0.05
  -4   5  -2    0.24    0.06
   4  -5   2    0.17    0.05
   4  -5   2    0.22    0.06
   4  -5   2    0.13    0.06
   4  -5   2    0.69    0.09
  -5   5  -2    1.34    0.11
  -5   5  -2    1.36    0.10
  -5   5  -2    1.46    0.11
   5  -5   2    1.18    0.10
   5  -5   2    1.41    0.11
   5  -5   2    1.08    0.11
   5  -5   2    1.42    0.11
  -6   5  -2    9.67    0.34
  -6   5  -2    9.56    0.38
   6  -5   2    9.92    0.37
   6  -5   2    9.86    0.36
   6  -5   2    9.62    0.35
   6  -5   2    9.94    0.38
  -7   5  -2   70.36    2.36
  -7   5  -2   75.46    2.19
   7  -5   2   74.70    2.22
   7  -5   2   76.42    2.20
   7  -5   2   75.57    2.21
  -8   5  -2   22.71    0.80
   8  -5   2   22.10    0.73
   8  -5   2   22.10    0.74
   8  -5   2   23.64    0.81
   8  -5   2   23.27    0.77
  -9   5  -2   29.31    0.98
   9  -5   2   27.30    0.87
   9  -5   2   26.81    0.93
   9  -5   2   27.78    0.90
 -10   5  -2    7.42    0.36
  10  -5   2    7.02    0.32
  10  -5   2    7.16    0.36
 -11   5  -2   -0.09    0.08
  11  -5   2   -0.05    0.10
  11  -5   2    0.04    0.08
 -12   5  -2    1.83    0.20
  12  -5   2    2.11    0.19
  12  -5   2    1.81    0.21
 -13   5  -2    0.12    0.10
  13  -5   2    0.06    0.11
  13  -5   2   -0.05    0.08
 -14   5  -2    4.56    0.33
  14  -5   2    5.29    0.37
  14  -5   2    4.59    0.29
 -15   5  -2   12.85    0.61
  15  -5   2   11.86    0.59
  15  -5   2   12.31    0.53
 -12  -4   2    0.07    0.10
  11   4  -2    1.15    0.17
 -11  -4   2    1.03    0.16
 -10  -4   2    7.53    0.38
  -9  -4   2    0.07    0.08
  -8  -4   2    4.08    0.24
   7   4  -2    2.19    0.11
  -7  -4   2    2.11    0.16
   6   4  -2    0.62    0.06
  -6  -4   2    0.56    0.08
   5   4  -2   27.08    0.83
  -5  -4   2   27.29    0.90
   4   4  -2    0.26    0.05
  -4  -4   2    0.13    0.05
   3   4  -2  204.95    5.74
   3   4  -2  197.74    5.73
  -3  -4   2  194.38    6.11
   2   4  -2   44.83    1.40
   2   4  -2   47.51    1.37
   2   4  -2   46.74    1.39
  -2  -4   2   44.92    1.44
   1   4  -2    0.23    0.06
   1   4  -2    0.22    0.07
   1   4  -2    0.24    0.05
  -1  -4   2    0.28    0.08
   0   4  -2  153.35    4.37
   0   4  -2  150.88    4.37
   0  -4   2  153.12    4.69
   0  -4   2  145.32    4.38
   0  -4   2  159.44    4.38
  -1   4  -2  126.06    3.40
  -1   4  -2  113.64    3.43
  -1   4  -2  119.70    3.62
  -1   4  -2  123.95    3.40
   1  -4   2  119.62    3.66
   1  -4   2  113.16    3.43
   1  -4   2  116.34    3.40
   1  -4   2  113.01    3.40
  -2   4  -2  182.07    5.00
  -2   4  -2  181.48    5.42
   2  -4   2  155.54    5.37
   2  -4   2  177.99    5.06
   2  -4   2  176.52    5.02
   2  -4   2  178.40    5.01
  -3   4  -2  350.51   10.16
  -3   4  -2  355.94   10.30
  -3   4  -2  370.41   11.00
   3  -4   2  367.61   10.40
   3  -4   2  351.59   10.28
   3  -4   2  349.32   11.02
   3  -4   2  342.80   10.25
  -4   4  -2   89.13    2.74
  -4   4  -2   89.71    2.56
  -4   4  -2   93.26    2.57
   4  -4   2   85.59    2.55
   4  -4   2   82.76    2.73
   4  -4   2   88.38    2.56
   4  -4   2   87.55    2.57
  -5   4  -2   29.85    0.90
  -5   4  -2   29.22    0.97
  -5   4  -2   30.23    0.90
  -5   4  -2   29.63    0.92
   5  -4   2   30.79    0.91
   5  -4   2   29.16    0.91
   5  -4   2   29.41    0.92
   5  -4   2   28.24    0.97
  -6   4  -2    1.72    0.12
  -6   4  -2    1.75    0.12
  -6   4  -2    1.58    0.09
   6  -4   2    1.95    0.12
   6  -4   2    1.92    0.13
   6  -4   2    1.52    0.12
   6  -4   2    1.82    0.11
  -7   4  -2    1.04    0.12
   7  -4   2    0.89    0.10
   7  -4   2    0.72    0.09
   7  -4   2    0.92    0.12
   7  -4   2    1.04    0.08
  -8   4  -2    0.35    0.08
   8  -4   2    0.32    0.05
   8  -4   2    0.34    0.08
   8  -4   2    0.35    0.09
  -9   4  -2    0.04    0.07
   9  -4   2    0.03    0.06
   9  -4   2   -0.09    0.06
   9  -4   2    0.12    0.04
 -10   4  -2   26.08    0.92
  10  -4   2   26.17    0.88
  10  -4   2   23.57    0.83
 -11   4  -2   43.74    1.51
  11  -4   2   44.98    1.44
  11  -4   2   44.27    1.39
 -12   4  -2    1.39    0.18
  12  -4   2    1.24    0.16
  12  -4   2    1.47    0.21
 -13   4  -2    0.81    0.16
  13  -4   2    1.10    0.15
  13  -4   2    1.21    0.21
 -14   4  -2    0.87    0.16
  14  -4   2    0.95    0.16
  14  -4   2    0.71    0.18
 -15   4  -2   -0.13    0.11
  15  -4   2    0.10    0.14
  15  -4   2   -0.17    0.09
 -13  -3   2    3.87    0.31
  12   3  -2   20.82    0.77
 -12  -3   2   21.16    0.82
  11   3  -2    3.57    0.24
 -11  -3   2    3.34    0.25
  10   3  -2    0.47    0.12
 -10  -3   2    0.65    0.13
  -9  -3   2    1.13    0.14
  -8  -3   2    4.46    0.24
   7   3  -2    2.18    0.09
  -7  -3   2    2.05    0.15
   6   3  -2    5.39    0.19
  -6  -3   2    5.59    0.25
   5   3  -2    0.22    0.04
  -5  -3   2    0.16    0.05
   4   3  -2    4.56    0.17
  -4  -3   2    4.35    0.19
   3   3  -2    4.20    0.16
   3   3  -2    4.05    0.20
   3   3  -2    4.13    0.17
  -3  -3   2    4.05    0.17
   2   3  -2   12.08    0.40
   2   3  -2   11.86    0.37
   2   3  -2   11.52    0.41
  -2  -3   2   10.92    0.38
   1   3  -2    3.54    0.16
   1   3  -2    3.66    0.17
   1   3  -2    3.54    0.14
  -1  -3   2    3.30    0.17
   0   3  -2  228.90    6.61
   0   3  -2  229.62    6.44
   0   3  -2  205.93    6.44
   0  -3   2  224.69    6.44
   0  -3   2  229.30    6.45
   0  -3   2  235.24    6.94
   0  -3   2  229.91    6.56
  -1   3  -2    1.83    0.08
  -1   3  -2    1.83    0.09
  -1   3  -2    1.70    0.09
   1  -3   2    1.77    0.10
   1  -3   2    1.72    0.08
   1  -3   2    1.66    0.10
   1  -3   2    1.69    0.09
  -2   3  -2  173.63    4.88
  -2   3  -2  162.38    5.28
  -2   3  -2  177.84    4.98
   2  -3   2  174.36    5.02
   2  -3   2  165.08    4.90
   2  -3   2  178.48    4.93
   2  -3   2  170.03    5.25
  -3   3  -2    4.65    0.18
  -3   3  -2    4.29    0.18
  -3   3  -2    4.22    0.17
  -3   3  -2    4.33    0.17
   3  -3   2    4.57    0.17
   3  -3   2    4.17    0.18
   3  -3   2    4.55    0.18
   3  -3   2    4.56    0.18
  -4   3  -2   55.81    1.59
  -4   3  -2   53.34    1.71
  -4   3  -2   55.33    1.59
  -4   3  -2   54.35    1.59
   4  -3   2   54.33    1.71
   4  -3   2   55.17    1.60
   4  -3   2   52.32    1.59
   4  -3   2   53.53    1.59
  -5   3  -2    0.68    0.08
   5  -3   2    0.65    0.07
   5  -3   2    0.66    0.08
   5  -3   2    0.70    0.06
   5  -3   2    0.53    0.08
  -6   3  -2   32.56    1.07
  -6   3  -2   32.51    1.00
   6  -3   2   32.33    0.99
   6  -3   2   32.29    0.98
   6  -3   2   32.54    1.01
  -7   3  -2    2.45    0.16
   7  -3   2    2.51    0.17
   7  -3   2    2.62    0.12
   7  -3   2    2.57    0.15
   7  -3   2    2.45    0.16
  -8   3  -2    1.37    0.13
   8  -3   2    1.05    0.11
   8  -3   2    1.29    0.09
   8  -3   2    1.16    0.13
  -9   3  -2   16.43    0.61
   9  -3   2   16.09    0.59
   9  -3   2   15.33    0.50
   9  -3   2   15.82    0.56
 -10   3  -2   43.95    1.51
  10  -3   2   45.64    1.45
  10  -3   2   45.41    1.34
  10  -3   2   44.96    1.40
 -11   3  -2   22.29    0.82
  11  -3   2   20.75    0.80
  11  -3   2   21.91    0.75
 -12   3  -2    5.10    0.33
  12  -3   2    5.48    0.29
  12  -3   2    5.68    0.34
 -13   3  -2    8.54    0.45
  13  -3   2    8.77    0.47
  13  -3   2    8.61    0.40
 -14   3  -2    3.04    0.28
  14  -3   2    3.23    0.31
  14  -3   2    3.13    0.24
 -15   3  -2   -0.05    0.12
  15  -3   2    0.05    0.15
  15  -3   2   -0.08    0.10
 -13  -2   2    4.59    0.33
  12   2  -2    3.12    0.23
 -12  -2   2    2.93    0.25
  11   2  -2    3.22    0.23
 -11  -2   2    2.96    0.23
  10   2  -2    2.61    0.19
 -10  -2   2    2.50    0.20
   9   2  -2   19.13    0.68
  -9  -2   2   19.85    0.72
  -8  -2   2    1.47    0.14
  -7  -2   2    2.87    0.17
   6   2  -2    2.08    0.08
  -6  -2   2    2.08    0.14
   5   2  -2   28.61    0.84
  -5  -2   2   28.63    0.94
   4   2  -2    9.59    0.30
  -4  -2   2    9.30    0.34
   3   2  -2    0.42    0.05
   3   2  -2    0.31    0.03
  -3  -2   2    0.34    0.04
   2   2  -2   88.82    2.54
   2   2  -2   87.55    2.55
   2   2  -2   84.54    2.70
  -2  -2   2   91.04    2.70
   1   2  -2   50.46    1.41
   1   2  -2   48.81    1.41
   1   2  -2   49.22    1.41
  -1  -2   2   45.39    1.48
  -1  -2   2   48.25    1.41
  -1  -2   2   48.29    1.41
   0   2  -2  161.82    4.90
   0   2  -2  166.21    4.81
   0   2  -2  171.99    4.86
   0  -2   2  169.11    4.81
   0  -2   2  171.03    4.95
   0  -2   2  173.67    4.91
  -1   2  -2  190.69    6.71
  -1   2  -2  229.97    6.33
  -1   2  -2  225.66    6.26
   1  -2   2  220.15    6.73
   1  -2   2  223.32    6.27
   1  -2   2  220.45    6.31
   1  -2   2  217.57    6.32
  -2   2  -2   96.37    2.68
  -2   2  -2   93.84    2.85
  -2   2  -2   97.71    2.65
   2  -2   2   85.78    2.85
   2  -2   2   87.25    2.65
   2  -2   2   92.10    2.68
   2  -2   2   94.69    2.65
  -3   2  -2   31.93    0.95
  -3   2  -2   30.91    1.02
   3  -2   2   32.51    1.02
   3  -2   2   33.38    0.95
   3  -2   2   31.86    0.96
   3  -2   2   32.49    0.95
  -4   2  -2   37.68    1.09
  -4   2  -2   33.91    1.16
   4  -2   2   38.99    1.17
   4  -2   2   37.62    1.09
   4  -2   2   34.56    1.07
  -5   2  -2    1.90    0.12
   5  -2   2    1.88    0.09
   5  -2   2    2.03    0.11
   5  -2   2    1.63    0.12
  -6   2  -2   39.70    1.34
   6  -2   2   42.56    1.25
   6  -2   2   40.93    1.35
   6  -2   2   42.11    1.22
  -7   2  -2    0.52    0.09
   7  -2   2    0.31    0.07
   7  -2   2    0.48    0.05
  -8   2  -2    2.19    0.17
   8  -2   2    2.14    0.15
   8  -2   2    2.20    0.10
  -9   2  -2    9.81    0.42
   9  -2   2    9.56    0.32
   9  -2   2   10.01    0.39
 -10   2  -2   33.50    1.17
  10  -2   2   33.38    1.08
  10  -2   2   34.12    1.00
 -11   2  -2    0.45    0.12
  11  -2   2    0.19    0.09
 -12   2  -2   11.64    0.52
  12  -2   2   11.16    0.47
 -13   2  -2    0.41    0.14
  13  -2   2    0.35    0.12
 -14   2  -2    0.30    0.15
  14  -2   2    0.53    0.18
  14  -2   2    0.40    0.13
 -15   2  -2   -0.07    0.12
  15  -2   2    0.10    0.15
 -14  -1   2    0.35    0.14
 -13  -1   2    2.10    0.23
  12   1  -2    1.34    0.16
 -12  -1   2    1.46    0.19
  11   1  -2    8.32    0.37
 -11  -1   2    8.51    0.41
  10   1  -2    0.46    0.10
 -10  -1   2    0.62    0.12
   9   1  -2   37.67    1.16
  -9  -1   2   35.76    1.24
   8   1  -2    3.21    0.18
  -8  -1   2    3.18    0.20
   7   1  -2    0.00    0.05
  -7  -1   2    0.02    0.05
  -6  -1   2    9.66    0.37
  -5  -1   2    4.05    0.19
   3   1  -2   16.37    0.47
  -3  -1   2   15.25    0.52
   2   1  -2    2.26    0.09
   2   1  -2    2.34    0.08
  -2  -1   2    2.27    0.08
  -2  -1   2    2.30    0.09
   1   1  -2  179.72    5.56
   1   1  -2  190.90    5.21
  -1  -1   2  180.00    5.20
  -1  -1   2  178.05    5.58
  -1  -1   2  177.97    5.25
   0   1  -2  112.81    3.43
   0   1  -2  112.75    3.20
   0   1  -2  110.67    3.21
   0   1  -2  109.98    3.44
   0  -1   2  114.83    3.44
   0  -1   2  107.97    3.45
   0  -1   2  115.68    3.21
   0  -1   2  109.38    3.19
  -1   1  -2   36.73    1.18
  -1   1  -2   37.36    1.09
  -1   1  -2   35.39    1.10
   1  -1   2   37.12    1.09
   1  -1   2   43.02    1.18
   1  -1   2   37.97    1.10
  -2   1  -2   62.64    1.89
  -2   1  -2   63.47    1.75
   2  -1   2   60.41    1.75
   2  -1   2   56.64    1.88
  -3   1  -2  202.80    6.18
  -3   1  -2  196.68    5.74
   3  -1   2  208.89    6.22
   3  -1   2  191.40    5.70
  -4   1  -2    0.92    0.08
   4  -1   2    1.12    0.08
   4  -1   2    0.95    0.08
  -5   1  -2   13.14    0.45
   5  -1   2   11.08    0.45
   5  -1   2   12.68    0.42
  -6   1  -2   15.37    0.55
   6  -1   2   15.09    0.51
  -7   1  -2    1.70    0.13
   7  -1   2    1.60    0.08
   7  -1   2    1.57    0.13
  -8   1  -2    0.44    0.09
   8  -1   2    0.38    0.04
   8  -1   2    0.24    0.07
  -9   1  -2    6.57    0.32
   9  -1   2    6.71    0.22
   9  -1   2    5.91    0.29
 -10   1  -2    5.21    0.29
  10  -1   2    4.31    0.26
 -11   1  -2    0.82    0.14
  11  -1   2    1.20    0.15
 -12   1  -2    7.81    0.40
  12  -1   2    7.27    0.36
 -13   1  -2    3.48    0.28
  13  -1   2    3.61    0.26
 -14   1  -2    3.32    0.32
  14  -1   2    3.29    0.26
 -14   0   2    0.72    0.17
  13   0  -2    0.90    0.16
 -13   0   2    0.93    0.17
  12   0  -2    1.23    0.15
 -12   0   2    1.62    0.19
  11   0  -2    0.26    0.09
 -11   0   2    0.14    0.10
  10   0  -2    0.04    0.07
 -10   0   2    0.03    0.08
   9   0  -2    2.44    0.16
  -9   0   2    2.51    0.18
   8   0  -2   19.48    0.65
  -8   0   2   20.00    0.71
   7   0  -2  118.58    3.48
  -7   0   2  122.14    3.76
   6   0  -2    8.03    0.29
  -6   0   2    7.91    0.32
   5   0  -2    0.08    0.04
   5   0  -2    0.17    0.05
  -5   0   2    0.15    0.05
   4   0  -2   15.44    0.46
  -4   0   2   14.54    0.50
   3   0  -2    0.16    0.03
   3   0  -2    0.21    0.03
  -3   0   2    0.15    0.03
   2   0  -2   11.34    0.37
   2   0  -2   11.11    0.33
  -2   0   2   11.53    0.37
   1   0  -2   15.23    0.48
  -1   0   2   14.94    0.48
   0   0  -2   42.60    1.26
   0   0  -2   46.47    1.37
   0   0  -2   44.63    1.37
   0   0   2   43.36    1.26
  -1   0  -2  406.51   12.05
   1   0   2  373.78   12.02
  -2   0  -2  122.41    3.59
   2   0   2  110.84    3.59
  -3   0  -2  317.61    9.89
   3   0   2  320.85    9.80
  -5   0  -2   30.95    1.06
   5   0   2   32.25    1.07
   5   0   2   34.04    1.00
  -6   0  -2   12.28    0.46
   6   0   2   11.93    0.43
  -7   0  -2    6.86    0.31
   7   0   2    7.03    0.30
  -8   0  -2    3.85    0.22
   8   0   2    3.53    0.21
  -9   0  -2    2.24    0.18
   9   0   2    1.79    0.09
   9   0   2    2.03    0.17
 -10   0  -2   18.65    0.72
  10   0   2   18.41    0.67
 -11   0  -2   20.15    0.77
  11   0   2   18.71    0.70
 -12   0  -2    0.19    0.11
  12   0   2    0.14    0.10
 -13   0  -2    0.55    0.15
  13   0   2    0.51    0.14
 -14   0  -2    1.48    0.22
  14   0   2    1.87    0.22
  15  -1  -2    4.14    0.34
 -15   1   2    3.25    0.31
 -14   1   2    5.70    0.37
  13  -1  -2    0.09    0.09
 -13   1   2    0.12    0.11
  12  -1  -2    4.57    0.24
 -12   1   2    4.20    0.29
  11  -1  -2    1.57    0.15
 -11   1   2    1.38    0.17
  10  -1  -2    1.66    0.15
 -10   1   2    1.18    0.15
   9  -1  -2    0.10    0.06
  -9   1   2    0.04    0.07
   8  -1  -2    1.01    0.10
  -8   1   2    0.84    0.11
   7  -1  -2   14.30    0.48
  -7   1   2   14.79    0.54
   6  -1  -2    4.74    0.19
  -6   1   2    4.62    0.22
   5  -1  -2    7.20    0.27
   5  -1  -2    6.99    0.24
  -5   1   2    7.13    0.28
   4  -1  -2    3.35    0.13
   4  -1  -2    3.38    0.15
  -4   1   2    3.33    0.11
  -4   1   2    3.17    0.13
  -4   1   2    3.12    0.15
   3  -1  -2  103.98    3.03
   3  -1  -2  106.08    3.27
   3  -1  -2  106.82    3.03
  -3   1   2  105.37    3.02
  -3   1   2  107.84    3.27
   2  -1  -2   73.93    2.11
   2  -1  -2   70.52    2.09
   2  -1  -2   72.52    2.26
  -2   1   2   74.61    2.09
  -2   1   2   74.47    2.10
   1  -1  -2  221.14    6.85
   1  -1  -2  217.68    6.31
  -1   1   2  216.08    6.33
  -1   1   2  227.18    6.32
   0  -1  -2   68.95    2.05
   0  -1  -2   64.40    1.90
   0   1   2   64.40    1.89
  -1  -1  -2  120.90    3.78
   1   1   2  124.28    3.78
   1   1   2  122.76    3.51
  -2  -1  -2   69.39    2.13
   2   1   2   67.31    2.13
  -3  -1  -2   67.81    2.13
  -4  -1  -2   60.36    1.84
   4   1   2   55.17    1.83
  -5  -1  -2    0.41    0.08
  -6  -1  -2    1.52    0.13
  -7  -1  -2   18.97    0.69
  -8  -1  -2   11.68    0.47
   8   1   2   11.27    0.45
  -9  -1  -2    7.05    0.34
   9   1   2    6.83    0.33
 -10  -1  -2    0.02    0.08
  10   1   2    0.00    0.08
 -11  -1  -2    0.16    0.11
  11   1   2    0.19    0.10
 -12  -1  -2    2.16    0.23
  12   1   2    2.30    0.23
 -13  -1  -2   -0.10    0.10
  13   1   2    0.06    0.11
  15  -2  -2    9.17    0.51
 -15   2   2    9.67    0.52
  14  -2  -2    1.73    0.24
 -14   2   2    1.88    0.23
  13  -2  -2    1.06    0.20
  13  -2  -2    1.15    0.15
 -13   2   2    1.07    0.18
  12  -2  -2    2.75    0.19
  12  -2  -2    3.15    0.27
 -12   2   2    2.89    0.24
  11  -2  -2   -0.04    0.06
  11  -2  -2    0.05    0.10
 -11   2   2    0.06    0.09
  10  -2  -2   15.27    0.54
 -10   2   2   15.61    0.61
   9  -2  -2   52.56    1.54
  -9   2   2   49.84    1.68
   8  -2  -2   24.44    0.75
  -8   2   2   23.42    0.83
   7  -2  -2    1.12    0.12
   7  -2  -2    1.39    0.09
  -7   2   2    1.35    0.11
   6  -2  -2   53.33    1.73
   6  -2  -2   55.55    1.63
   6  -2  -2   54.14    1.59
  -6   2   2   54.39    1.74
  -6   2   2   53.14    1.59
  -6   2   2   55.60    1.58
   5  -2  -2    4.49    0.20
   5  -2  -2    4.77    0.17
  -5   2   2    4.58    0.17
  -5   2   2    4.42    0.16
  -5   2   2    4.78    0.21
   4  -2  -2   28.38    0.86
   4  -2  -2   29.20    0.95
   4  -2  -2   28.71    0.89
  -4   2   2   30.56    0.95
  -4   2   2   29.57    0.86
   3  -2  -2   72.58    2.15
   3  -2  -2   70.47    2.00
   3  -2  -2   65.02    1.98
  -3   2   2   70.11    1.99
  -3   2   2   68.64    2.15
  -3   2   2   67.46    1.98
   2  -2  -2    3.29    0.12
   2  -2  -2    2.89    0.12
  -2   2   2    2.88    0.12
  -2   2   2    3.18    0.12
   1  -2  -2    0.72    0.06
   1  -2  -2    0.60    0.06
  -1   2   2    0.56    0.06
  -1   2   2    0.69    0.06
  -1   2   2    0.64    0.06
   0  -2  -2   76.06    2.38
   0  -2  -2   75.26    2.21
   0   2   2   78.26    2.21
  -1  -2  -2  188.50    5.72
  -1  -2  -2  185.87    5.31
   1   2   2  183.00    5.31
  -3  -2  -2   26.22    0.89
   3   2   2   27.44    0.90
  -4  -2  -2    5.67    0.25
  -5  -2  -2    0.38    0.08
  -6  -2  -2   13.28    0.51
  -7  -2  -2   30.45    1.04
  -8  -2  -2    1.04    0.14
  -9  -2  -2    1.18    0.15
   9   2   2    1.28    0.16
 -10  -2  -2    7.11    0.36
  10   2   2    6.77    0.35
 -11  -2  -2    1.39    0.18
  11   2   2    1.51    0.19
 -12  -2  -2   -0.12    0.09
  12   2   2   -0.02    0.11
 -13  -2  -2    4.97    0.35
  13   2   2    4.23    0.31
  15  -3  -2    8.75    0.50
 -15   3   2    8.84    0.50
  14  -3  -2    3.92    0.33
 -14   3   2    3.49    0.30
  13  -3  -2    7.99    0.35
  13  -3  -2    8.03    0.44
 -13   3   2    7.54    0.42
  12  -3  -2    1.15    0.18
  12  -3  -2    0.71    0.12
 -12   3   2    0.83    0.15
  11  -3  -2    8.83    0.42
  11  -3  -2    9.29    0.37
 -11   3   2    9.06    0.43
  10  -3  -2   60.58    1.88
  10  -3  -2   61.25    1.82
 -10   3   2   60.88    2.00
   9  -3  -2    0.24    0.09
   9  -3  -2    0.22    0.06
  -9   3   2    0.27    0.08
   8  -3  -2   67.10    2.04
   8  -3  -2   68.83    2.00
  -8   3   2   64.60    2.00
  -8   3   2   71.25    2.19
   7  -3  -2    4.67    0.23
   7  -3  -2    4.56    0.19
  -7   3   2    4.62    0.17
  -7   3   2    4.28    0.22
   6  -3  -2   18.73    0.61
   6  -3  -2   19.10    0.58
   6  -3  -2   15.81    0.63
  -6   3   2   19.95    0.65
  -6   3   2   18.96    0.57
  -6   3   2   18.69    0.58
   5  -3  -2   52.31    1.59
   5  -3  -2   54.13    1.57
   5  -3  -2   56.73    1.71
  -5   3   2   53.82    1.57
  -5   3   2   54.45    1.59
  -5   3   2   53.60    1.58
  -5   3   2   51.39    1.71
   4  -3  -2   65.95    1.96
   4  -3  -2   64.31    1.83
   4  -3  -2   60.56    1.81
  -4   3   2   67.68    1.97
  -4   3   2   54.50    1.81
  -4   3   2   60.60    1.80
   3  -3  -2  212.78    6.42
   3  -3  -2  237.01    7.01
   3  -3  -2  231.30    6.53
  -3   3   2  216.86    6.42
  -3   3   2  223.50    6.45
  -3   3   2  232.90    6.99
   2  -3  -2    6.40    0.23
   2  -3  -2    6.28    0.23
   2  -3  -2    5.88    0.24
  -2   3   2    6.11    0.24
  -2   3   2    6.34    0.23
  -2   3   2    6.11    0.22
   1  -3  -2    1.01    0.09
   1  -3  -2    1.05    0.09
  -1   3   2    0.93    0.08
  -1   3   2    1.04    0.09
  -1   3   2    1.11    0.09
   0  -3  -2  204.49    5.75
   0  -3  -2  193.90    6.18
   0   3   2  205.41    5.75
  -1  -3  -2  153.28    4.35
  -1  -3  -2  149.06    4.67
  -2  -3  -2    7.73    0.31
  -3  -3  -2   26.63    0.89
  -4  -3  -2    3.69    0.20
  -5  -3  -2    3.98    0.21
  -6  -3  -2    5.23    0.27
  -7  -3  -2   21.20    0.77
  -8  -3  -2   19.85    0.74
  -9  -3  -2   11.57    0.50
 -10  -3  -2    0.88    0.15
  10   3   2    1.08    0.17
 -11  -3  -2    0.89    0.16
  11   3   2    0.82    0.16
 -12  -3  -2   -0.09    0.10
  12   3   2   -0.14    0.10
  16  -4  -2    0.87    0.21
 -16   4   2    1.23    0.23
  15  -4  -2    0.12    0.15
 -15   4   2   -0.15    0.11
  14  -4  -2    4.25    0.33
 -14   4   2    4.67    0.34
  13  -4  -2    1.86    0.17
  13  -4  -2    1.57    0.21
 -13   4   2    1.76    0.21
  12  -4  -2   13.27    0.50
  12  -4  -2   13.40    0.57
 -12   4   2   14.39    0.60
  11  -4  -2    0.68    0.15
  11  -4  -2    0.46    0.10
 -11   4   2    0.52    0.14
  10  -4  -2  132.91    3.87
  10  -4  -2  131.84    3.93
 -10   4   2  135.61    4.21
   9  -4  -2    3.12    0.17
   9  -4  -2    3.01    0.20
  -9   4   2    3.03    0.20
  -9   4   2    3.15    0.14
   8  -4  -2    1.04    0.13
   8  -4  -2    1.26    0.10
  -8   4   2    1.28    0.10
  -8   4   2    1.16    0.13
  -8   4   2    1.18    0.08
   7  -4  -2    0.07    0.05
   7  -4  -2    0.06    0.04
   7  -4  -2    0.04    0.06
  -7   4   2    0.04    0.04
  -7   4   2    0.03    0.03
  -7   4   2    0.08    0.06
   6  -4  -2    0.14    0.06
   6  -4  -2    0.10    0.05
   6  -4  -2    0.08    0.04
  -6   4   2    0.00    0.04
  -6   4   2    0.02    0.02
  -6   4   2    0.12    0.04
   5  -4  -2    0.06    0.05
   5  -4  -2    0.00    0.04
   5  -4  -2    0.10    0.05
  -5   4   2   -0.04    0.05
  -5   4   2    0.00    0.04
  -5   4   2   -0.04    0.03
  -5   4   2    0.04    0.05
   4  -4  -2    0.59    0.07
   4  -4  -2    0.87    0.09
   4  -4  -2    0.67    0.08
  -4   4   2    0.30    0.06
  -4   4   2    0.55    0.08
  -4   4   2    0.54    0.06
   3  -4  -2   26.95    0.84
   3  -4  -2   26.40    0.89
   3  -4  -2   27.36    0.84
  -3   4   2   27.96    0.83
  -3   4   2   28.01    0.90
   2  -4  -2    9.25    0.33
   2  -4  -2    8.81    0.32
   2  -4  -2    8.35    0.32
  -2   4   2    8.92    0.33
   0  -4  -2  153.12    4.41
   0  -4  -2  152.38    4.72
  -1  -4  -2    1.15    0.13
   1   4   2    1.40    0.12
  -2  -4  -2   50.51    1.63
  -3  -4  -2    5.92    0.27
  -4  -4  -2   44.31    1.45
  -5  -4  -2    1.69    0.15
  -6  -4  -2    5.16    0.28
  -7  -4  -2    1.87    0.18
  -8  -4  -2    1.96    0.19
  -9  -4  -2   12.75    0.54
 -10  -4  -2   13.87    0.60
 -11  -4  -2    0.12    0.11
  11   4   2   -0.09    0.11
 -12  -4  -2   13.84    0.62
  12   4   2   12.67    0.59
  16  -5  -2    0.32    0.16
 -16   5   2    0.41    0.17
  15  -5  -2    1.18    0.23
 -15   5   2    1.11    0.20
  14  -5  -2   -0.05    0.11
  14  -5  -2    0.01    0.08
 -14   5   2    0.10    0.12
  13  -5  -2    0.08    0.11
  13  -5  -2    0.06    0.08
 -13   5   2   -0.04    0.10
  12  -5  -2   18.02    0.63
  12  -5  -2   17.52    0.69
 -12   5   2   17.74    0.72
  11  -5  -2   69.26    2.09
  11  -5  -2   71.07    2.16
 -11   5   2   69.45    2.30
  10  -5  -2    1.97    0.15
  10  -5  -2    1.89    0.20
 -10   5   2    1.49    0.17
   9  -5  -2    6.84    0.28
   9  -5  -2    6.65    0.32
  -9   5   2    7.05    0.34
  -9   5   2    6.90    0.26
   8  -5  -2   28.36    0.93
   8  -5  -2   28.88    0.89
  -8   5   2   28.84    0.88
  -8   5   2   27.85    0.98
   7  -5  -2   69.14    1.98
   7  -5  -2   66.64    2.01
  -7   5   2   66.96    1.97
  -7   5   2   65.36    1.98
   6  -5  -2   70.61    2.22
   6  -5  -2   67.73    2.08
   6  -5  -2   71.01    2.06
  -6   5   2   70.53    2.23
  -6   5   2   68.85    2.07
  -6   5   2   71.11    2.05
   5  -5  -2    2.85    0.16
   5  -5  -2    3.07    0.17
   5  -5  -2    2.83    0.16
  -5   5   2    2.89    0.14
  -5   5   2    2.81    0.15
  -5   5   2    2.88    0.17
   4  -5  -2   20.78    0.68
   4  -5  -2   20.93    0.72
   4  -5  -2   21.10    0.68
  -4   5   2   21.60    0.68
  -4   5   2   21.10    0.72
   3  -5  -2    4.70    0.20
   3  -5  -2    4.52    0.21
   3  -5  -2    4.07    0.20
  -3   5   2    4.67    0.20
  -3   5   2    4.12    0.20
  -3   5   2    4.32    0.21
   2  -5  -2    2.65    0.15
   2  -5  -2    2.20    0.15
   2  -5  -2    2.77    0.16
  -2   5   2    2.55    0.15
  -2   5   2    2.34    0.14
  -2   5   2    2.86    0.15
   1  -5  -2   25.60    0.85
   1  -5  -2   25.38    0.82
  -1   5   2   24.72    0.81
  -1   5   2   25.52    0.84
  -1   5   2   25.76    0.82
   0  -5  -2    0.23    0.06
   0  -5  -2    0.21    0.08
  -1  -5  -2  117.78    3.42
  -1  -5  -2  115.28    3.63
  -2  -5  -2   12.49    0.48
  -3  -5  -2   99.21    3.13
  -4  -5  -2    9.23    0.39
  -5  -5  -2   66.91    2.16
  -6  -5  -2    8.50    0.39
  -7  -5  -2   10.35    0.46
  -8  -5  -2    0.75    0.14
  -9  -5  -2    0.20    0.10
 -10  -5  -2    0.77    0.16
 -11  -5  -2    0.17    0.11
  11   5   2    0.07    0.13
  16  -6  -2   -0.15    0.12
  15  -6  -2   -0.05    0.14
 -15   6   2   -0.06    0.11
  14  -6  -2   -0.16    0.11
  14  -6  -2   -0.02    0.08
 -14   6   2    0.03    0.11
  13  -6  -2   -0.04    0.09
  13  -6  -2    0.04    0.13
 -13   6   2    0.03    0.10
  12  -6  -2   14.68    0.61
  12  -6  -2   14.72    0.54
 -12   6   2   14.54    0.62
  11  -6  -2    2.25    0.22
  11  -6  -2    1.85    0.16
 -11   6   2    1.77    0.20
  10  -6  -2    0.16    0.10
  10  -6  -2    0.07    0.07
 -10   6   2   -0.11    0.07
   9  -6  -2   18.56    0.67
   9  -6  -2   17.98    0.62
  -9   6   2   19.19    0.70
   8  -6  -2    0.33    0.10
   8  -6  -2    0.21    0.07
   8  -6  -2    0.26    0.07
  -8   6   2    0.19    0.08
   7  -6  -2   34.06    1.06
   7  -6  -2   33.31    1.08
  -7   6   2   34.68    1.15
   6  -6  -2    9.31    0.38
   6  -6  -2   10.06    0.37
   6  -6  -2   10.19    0.40
  -6   6   2    9.97    0.40
   5  -6  -2  105.29    3.04
   5  -6  -2  104.61    3.25
   5  -6  -2  102.14    3.04
  -5   6   2  104.00    3.26
  -5   6   2  103.83    3.03
   4  -6  -2   42.90    1.32
   4  -6  -2   42.83    1.39
   4  -6  -2   43.43    1.32
  -4   6   2   43.81    1.30
  -4   6   2   41.60    1.40
   3  -6  -2   77.55    2.34
   3  -6  -2   79.36    2.49
   3  -6  -2   80.92    2.35
  -3   6   2   78.36    2.49
   2  -6  -2   32.79    1.10
   2  -6  -2   32.55    1.06
   2  -6  -2   33.95    1.06
  -2   6   2   34.54    1.10
   1  -6  -2   26.55    0.89
   1  -6  -2   27.33    0.91
   0  -6  -2    4.90    0.23
   0  -6  -2    4.82    0.26
  -1  -6  -2    0.66    0.09
  -1  -6  -2    0.54    0.11
  -2  -6  -2    0.36    0.09
  -3  -6  -2   18.44    0.68
  -4  -6  -2   61.41    2.00
  -5  -6  -2   17.88    0.68
  -6  -6  -2    0.85    0.13
  -7  -6  -2    1.90    0.19
  -8  -6  -2    3.56    0.26
  -9  -6  -2    0.36    0.13
 -10  -6  -2    0.90    0.17
  16  -7  -2   -0.17    0.15
  15  -7  -2   -0.09    0.12
  14  -7  -2    0.47    0.12
  14  -7  -2    0.40    0.16
 -14   7   2    0.12    0.12
  13  -7  -2   18.31    0.71
  13  -7  -2   16.80    0.63
 -13   7   2   16.36    0.72
  12  -7  -2    0.41    0.13
  12  -7  -2    0.12    0.09
 -12   7   2    0.13    0.10
  11  -7  -2   10.07    0.41
  11  -7  -2   10.31    0.46
 -11   7   2   10.24    0.48
  10  -7  -2    7.26    0.32
  10  -7  -2    7.07    0.35
 -10   7   2    7.06    0.36
   9  -7  -2   16.48    0.58
   9  -7  -2   17.04    0.62
  -9   7   2   16.33    0.64
   8  -7  -2    2.42    0.20
   8  -7  -2    2.76    0.18
   8  -7  -2    2.85    0.19
  -8   7   2    2.76    0.20
   7  -7  -2    1.72    0.14
   7  -7  -2    1.66    0.14
   7  -7  -2    1.62    0.16
  -7   7   2    1.64    0.15
   6  -7  -2   15.85    0.58
   6  -7  -2   15.79    0.56
   6  -7  -2   15.92    0.57
  -6   7   2   15.18    0.59
   5  -7  -2    2.77    0.19
   5  -7  -2    2.92    0.17
   5  -7  -2    2.86    0.19
  -5   7   2    3.05    0.19
   4  -7  -2    5.32    0.27
   4  -7  -2    5.38    0.25
   4  -7  -2    5.71    0.28
  -4   7   2    5.67    0.27
   3  -7  -2   20.72    0.72
   3  -7  -2   21.34    0.73
   3  -7  -2   20.38    0.72
  -3   7   2   21.50    0.74
   2  -7  -2   43.24    1.43
   2  -7  -2   46.89    1.49
  -2   7   2   46.90    1.48
   1  -7  -2    4.63    0.23
   1  -7  -2    4.89    0.27
   0  -7  -2   25.95    0.87
   0  -7  -2   24.40    0.87
  -1  -7  -2   23.17    0.82
  -1  -7  -2   22.53    0.80
  -2  -7  -2    0.01    0.07
  -2  -7  -2    0.06    0.07
  -3  -7  -2    3.87    0.24
  -4  -7  -2    2.29    0.20
  -5  -7  -2    2.94    0.23
  -6  -7  -2    6.22    0.34
  -7  -7  -2    1.10    0.16
  -8  -7  -2    1.20    0.17
  -9  -7  -2    0.07    0.10
  16  -8  -2    0.38    0.20
  15  -8  -2    3.20    0.33
  14  -8  -2    0.13    0.11
  14  -8  -2    0.01    0.13
  13  -8  -2    1.01    0.15
  13  -8  -2    1.15    0.21
 -13   8   2    0.88    0.17
  12  -8  -2    0.93    0.14
  12  -8  -2    1.23    0.18
 -12   8   2    0.95    0.16
  11  -8  -2    2.78    0.20
  11  -8  -2    2.96    0.27
 -11   8   2    2.64    0.24
  10  -8  -2    0.12    0.09
  10  -8  -2    0.21    0.12
 -10   8   2    0.07    0.10
   9  -8  -2    4.86    0.28
   9  -8  -2    4.65    0.25
   9  -8  -2    4.76    0.27
  -9   8   2    5.03    0.29
   8  -8  -2   13.65    0.53
   8  -8  -2   14.96    0.56
  -8   8   2   13.96    0.56
   7  -8  -2    0.07    0.06
   7  -8  -2   -0.08    0.07
   7  -8  -2   -0.03    0.07
  -7   8   2   -0.08    0.06
   6  -8  -2   22.05    0.77
   6  -8  -2   22.20    0.76
   6  -8  -2   20.32    0.74
  -6   8   2   22.65    0.79
   5  -8  -2    0.62    0.11
   5  -8  -2    0.76    0.13
   5  -8  -2    0.85    0.10
  -5   8   2    0.72    0.11
   4  -8  -2   20.25    0.69
   4  -8  -2   18.97    0.68
   4  -8  -2   17.90    0.67
  -4   8   2   18.88    0.68
   3  -8  -2    0.65    0.12
   3  -8  -2    0.66    0.13
   3  -8  -2    1.08    0.12
  -3   8   2    0.87    0.11
   2  -8  -2   -0.01    0.08
   2  -8  -2   -0.04    0.05
   1  -8  -2   21.57    0.78
   1  -8  -2   22.52    0.80
   0  -8  -2    4.28    0.23
   0  -8  -2    4.26    0.28
  -1  -8  -2    0.16    0.09
  -1  -8  -2    0.16    0.10
  -1  -8  -2    0.19    0.08
  -2  -8  -2    7.25    0.36
  -2  -8  -2    8.06    0.36
  -3  -8  -2    0.37    0.10
  -3  -8  -2    0.28    0.10
  -4  -8  -2    0.02    0.09
  -5  -8  -2   21.50    0.81
  -6  -8  -2    0.15    0.10
  -7  -8  -2    2.28    0.23
  -8  -8  -2    6.03    0.35
  16  -9  -2   -0.01    0.16
  15  -9  -2    1.17    0.22
  14  -9  -2   21.23    0.84
  14  -9  -2   20.23    0.76
  13  -9  -2   11.37    0.55
  13  -9  -2   11.37    0.49
  12  -9  -2    1.69    0.23
  12  -9  -2    1.64    0.18
  11  -9  -2    0.14    0.10
  11  -9  -2    0.37    0.13
 -11   9   2    0.15    0.10
  10  -9  -2    1.12    0.16
  10  -9  -2    1.38    0.19
 -10   9   2    1.31    0.18
   9  -9  -2    0.89    0.16
   9  -9  -2    1.21    0.16
   9  -9  -2    0.75    0.12
  -9   9   2    0.81    0.14
   8  -9  -2   10.97    0.46
   8  -9  -2   10.29    0.45
   8  -9  -2   11.34    0.47
  -8   9   2   10.75    0.47
   7  -9  -2   10.72    0.45
   7  -9  -2   10.49    0.44
   7  -9  -2   10.33    0.44
  -7   9   2   10.41    0.46
   6  -9  -2    0.86    0.14
   6  -9  -2    1.26    0.16
   6  -9  -2    1.19    0.13
  -6   9   2    1.32    0.15
   5  -9  -2    0.37    0.08
   5  -9  -2    0.43    0.13
   5  -9  -2    0.53    0.13
  -5   9   2    0.53    0.10
   4  -9  -2    2.71    0.23
   4  -9  -2    2.66    0.18
   4  -9  -2    2.71    0.22
  -4   9   2    2.79    0.19
   3  -9  -2   31.77    1.09
   3  -9  -2   31.91    1.09
  -3   9   2   32.72    1.09
   2  -9  -2    1.82    0.21
   2  -9  -2    1.80    0.15
   1  -9  -2   42.00    1.43
   1  -9  -2   44.06    1.42
   0  -9  -2    7.32    0.34
   0  -9  -2    6.94    0.38
  -1  -9  -2    0.30    0.09
  -1  -9  -2    0.47    0.11
  -1  -9  -2    0.25    0.13
  -2  -9  -2   11.48    0.49
  -2  -9  -2   11.07    0.49
  -3  -9  -2    0.08    0.09
  -4  -9  -2    0.31    0.11
  -5  -9  -2    2.10    0.21
  -6  -9  -2    9.08    0.45
  -7  -9  -2    2.05    0.22
  16 -10  -2    0.13    0.17
  15 -10  -2    4.25    0.39
  14 -10  -2   10.42    0.49
  14 -10  -2   11.98    0.58
  13 -10  -2    2.80    0.28
  13 -10  -2    3.24    0.25
  12 -10  -2   17.13    0.66
  12 -10  -2   16.64    0.69
  11 -10  -2    0.14    0.12
  11 -10  -2    0.05    0.10
  10 -10  -2   11.49    0.49
  10 -10  -2   11.72    0.53
   9 -10  -2    0.34    0.13
   9 -10  -2    0.32    0.11
  -9  10   2    0.36    0.11
   8 -10  -2    4.54    0.31
   8 -10  -2    4.57    0.29
  -8  10   2    4.94    0.29
   7 -10  -2    2.98    0.23
   7 -10  -2    2.96    0.21
   7 -10  -2    3.07    0.24
  -7  10   2    3.23    0.22
   6 -10  -2    0.42    0.10
   6 -10  -2    0.38    0.12
   6 -10  -2    0.33    0.13
  -6  10   2    0.37    0.10
   5 -10  -2   12.67    0.51
   5 -10  -2   12.67    0.54
   5 -10  -2   13.05    0.55
  -5  10   2   12.96    0.52
   4 -10  -2    9.45    0.45
   4 -10  -2    9.83    0.46
   4 -10  -2   10.19    0.42
  -4  10   2    9.93    0.42
   3 -10  -2    2.55    0.19
   3 -10  -2    3.10    0.26
   2 -10  -2   13.82    0.56
   2 -10  -2   15.02    0.62
   1 -10  -2    8.77    0.39
   1 -10  -2    8.78    0.45
   0 -10  -2    6.52    0.33
   0 -10  -2    6.12    0.38
  -1 -10  -2    7.03    0.43
  -1 -10  -2    7.16    0.37
  -2 -10  -2   31.97    1.14
  -3 -10  -2    1.95    0.21
  -4 -10  -2    2.64    0.24
  -5 -10  -2    0.26    0.11
  -6 -10  -2    0.31    0.12
  16 -11  -2    6.00    0.43
  15 -11  -2    8.84    0.52
  14 -11  -2    0.37    0.15
  14 -11  -2    0.92    0.21
  13 -11  -2   11.16    0.55
  13 -11  -2   11.21    0.52
  12 -11  -2    5.86    0.37
  12 -11  -2    5.89    0.35
  11 -11  -2   -0.11    0.11
  11 -11  -2   -0.13    0.09
  10 -11  -2    4.47    0.33
  10 -11  -2    4.27    0.29
   9 -11  -2    2.60    0.25
   9 -11  -2    2.40    0.26
   8 -11  -2    5.70    0.35
   8 -11  -2    5.65    0.34
   7 -11  -2    0.06    0.11
   7 -11  -2    0.14    0.11
   6 -11  -2    3.52    0.28
   6 -11  -2    4.10    0.29
   5 -11  -2    0.05    0.10
   5 -11  -2    0.08    0.11
   4 -11  -2    3.14    0.23
   4 -11  -2    1.98    0.24
   3 -11  -2    7.24    0.41
   2 -11  -2    5.11    0.34
   1 -11  -2    3.48    0.33
   0 -11  -2    2.21    0.27
  -1 -11  -2    1.34    0.18
  -1 -11  -2    1.79    0.26
  -2 -11  -2    7.28    0.39
  -3 -11  -2    1.58    0.19
  -4 -11  -2    0.27    0.12
  -5 -11  -2   -0.09    0.09
  15 -12  -2    1.29    0.24
  14 -12  -2   12.92    0.59
  14 -12  -2   13.49    0.64
  13 -12  -2    6.33    0.42
  13 -12  -2    5.11    0.35
  12 -12  -2    6.69    0.42
  12 -12  -2    6.76    0.39
  11 -12  -2   14.76    0.63
  11 -12  -2   14.44    0.65
  10 -12  -2    5.68    0.36
  10 -12  -2    5.10    0.37
   9 -12  -2    2.09    0.26
   9 -12  -2    1.85    0.24
   8 -12  -2   22.13    0.87
   8 -12  -2   23.18    0.86
   7 -12  -2    1.16    0.21
   7 -12  -2    0.96    0.18
   6 -12  -2    2.84    0.28
   6 -12  -2    2.68    0.28
   5 -12  -2   13.85    0.62
   4 -12  -2    0.17    0.13
   3 -12  -2   19.93    0.81
   2 -12  -2    2.55    0.28
   1 -12  -2    2.37    0.28
   0 -12  -2    2.41    0.25
   0 -12  -2    2.61    0.31
  -1 -12  -2    2.78    0.33
  -1 -12  -2    2.71    0.25
  -2 -12  -2    6.79    0.38
  -3 -12  -2    0.15    0.11
  -4 -12  -2    0.11    0.11
  15 -13  -2    0.37    0.21
  14 -13  -2    3.93    0.35
  14 -13  -2    5.06    0.41
  13 -13  -2    0.61    0.18
  13 -13  -2    0.67    0.21
  12 -13  -2    7.21    0.45
  12 -13  -2    7.62    0.44
  11 -13  -2    3.40    0.34
  11 -13  -2    3.00    0.30
  10 -13  -2    8.00    0.45
  10 -13  -2    7.81    0.46
   9 -13  -2   31.31    1.13
   9 -13  -2   31.39    1.15
   8 -13  -2   10.93    0.54
   8 -13  -2   10.71    0.56
   7 -13  -2   33.28    1.21
   7 -13  -2   34.15    1.22
   6 -13  -2    0.40    0.17
   6 -13  -2    0.03    0.14
   5 -13  -2    4.97    0.37
   4 -13  -2    0.35    0.18
   3 -13  -2    2.09    0.28
   2 -13  -2   22.91    0.94
   1 -13  -2    0.20    0.16
   0 -13  -2    3.85    0.30
   0 -13  -2    3.89    0.39
  -1 -13  -2    1.54    0.21
  -2 -13  -2    1.51    0.20
  -3 -13  -2    0.98    0.19
  14 -14  -2   -0.01    0.17
  14 -14  -2    0.07    0.14
  13 -14  -2    1.72    0.28
  13 -14  -2    1.90    0.27
  12 -14  -2    0.56    0.19
  12 -14  -2    1.22    0.22
  11 -14  -2    6.21    0.42
  11 -14  -2    6.88    0.46
  10 -14  -2   -0.12    0.14
  10 -14  -2    0.15    0.15
   9 -14  -2    9.92    0.55
   9 -14  -2    9.86    0.53
   8 -14  -2    1.54    0.25
   8 -14  -2    2.01    0.27
   7 -14  -2    1.20    0.22
   7 -14  -2    1.50    0.25
   6 -14  -2   22.71    0.94
   5 -14  -2    2.91    0.32
   4 -14  -2    8.58    0.53
   3 -14  -2    0.12    0.16
   2 -14  -2    0.72    0.21
   1 -14  -2    0.89    0.23
   0 -14  -2    0.72    0.17
   0 -14  -2    1.24    0.26
  -1 -14  -2    6.36    0.40
  13 -15  -2    1.05    0.24
  13 -15  -2    1.13    0.24
  12 -15  -2    0.90    0.21
  12 -15  -2    0.91    0.24
  11 -15  -2    0.95    0.22
  11 -15  -2    1.00    0.23
  10 -15  -2    1.14    0.23
  10 -15  -2    1.37    0.25
   9 -15  -2    3.18    0.36
   9 -15  -2    3.63    0.36
   8 -15  -2    1.71    0.27
   8 -15  -2    1.75    0.27
   7 -15  -2    3.70    0.38
   6 -15  -2    0.20    0.19
   5 -15  -2    2.23    0.32
   4 -15  -2    0.14    0.18
   3 -15  -2    3.70    0.40
   2 -15  -2    1.40    0.28
   1 -15  -2    0.54    0.23
   1 -15  -2    0.30    0.15
  11 -16  -2    2.39    0.33
  11 -16  -2    2.27    0.31
  10 -16  -2    0.11    0.17
  10 -16  -2    0.06    0.16
   9 -16  -2    1.08    0.25
   9 -16  -2    0.66    0.22
   8 -16  -2    0.01    0.19
   7 -16  -2    3.99    0.42
   6 -16  -2    0.06    0.17
   5 -16  -2    1.55    0.30
   4 -16  -2    1.02    0.25
   4 -17   3    3.14    0.39
   5 -17   3    6.87    0.52
   6 -17   3    0.12    0.18
   7 -17   3    0.54    0.22
   7 -17   3    0.28    0.20
   8 -17   3    1.97    0.30
   8 -17   3    2.39    0.36
   9 -17   3    0.02    0.16
   9 -17   3   -0.14    0.18
  10 -17   3    7.35    0.51
  10 -17   3    7.49    0.53
  11 -17   3    0.16    0.20
   1 -16   3   -0.21    0.14
   1 -16   3    0.06    0.10
   2 -16   3    1.29    0.28
   3 -16   3    1.02    0.26
   4 -16   3    3.26    0.39
   5 -16   3    1.42    0.27
   6 -16   3    6.87    0.50
   6 -16   3    7.74    0.52
   7 -16   3   15.45    0.75
   7 -16   3   16.15    0.77
   8 -16   3    0.79    0.21
   8 -16   3    0.80    0.22
   9 -16   3    0.99    0.23
   9 -16   3    1.03    0.24
  10 -16   3    7.43    0.49
  10 -16   3    7.65    0.51
  11 -16   3    2.39    0.31
  11 -16   3    2.71    0.35
  12 -16   3    0.31    0.17
  12 -16   3    0.41    0.20
  -1 -15   3    2.87    0.23
   0 -15   3    5.53    0.45
   0 -15   3    4.84    0.31
   1 -15   3    0.17    0.20
   2 -15   3    1.54    0.27
   3 -15   3    0.74    0.21
   4 -15   3    6.46    0.47
   5 -15   3    0.24    0.18
   5 -15   3    0.33    0.16
   6 -15   3    1.12    0.23
   6 -15   3    1.40    0.24
   7 -15   3    1.07    0.22
   7 -15   3    0.56    0.19
   8 -15   3    8.17    0.49
   8 -15   3    8.17    0.50
   9 -15   3   -0.03    0.15
   9 -15   3    0.09    0.15
  10 -15   3    0.68    0.19
  10 -15   3    0.76    0.20
  11 -15   3    0.16    0.16
  11 -15   3   -0.15    0.14
  12 -15   3    0.77    0.20
  12 -15   3    0.84    0.22
  13 -15   3    6.87    0.46
  13 -15   3    7.05    0.46
  14 -15   3    0.38    0.19
  -2 -14   3    2.52    0.21
  -1 -14   3   17.26    0.67
   0 -14   3    2.99    0.35
   0 -14   3    3.13    0.24
   1 -14   3   17.42    0.79
   2 -14   3    8.85    0.53
   3 -14   3    8.16    0.50
   4 -14   3    4.60    0.37
   4 -14   3    5.19    0.38
   5 -14   3   20.03    0.84
   5 -14   3   19.69    0.83
   6 -14   3    0.23    0.15
   6 -14   3    0.27    0.16
   7 -14   3   19.29    0.82
   7 -14   3   20.18    0.82
   8 -14   3    3.38    0.34
   8 -14   3    3.42    0.33
   9 -14   3    0.63    0.17
   9 -14   3    0.65    0.18
  10 -14   3    2.15    0.27
  10 -14   3    2.39    0.28
  11 -14   3    0.93    0.20
  11 -14   3    0.75    0.19
  12 -14   3    0.29    0.17
  12 -14   3    0.36    0.15
  13 -14   3    5.20    0.39
  13 -14   3    5.67    0.40
  14 -14   3    3.49    0.34
  14 -14   3    4.03    0.39
  -4 -13   3   14.93    0.59
  -3 -13   3   -0.02    0.08
  -2 -13   3    1.76    0.18
  -1 -13   3   -0.10    0.13
  -1 -13   3   -0.03    0.08
   0 -13   3    1.86    0.26
   0 -13   3    2.32    0.20
   1 -13   3   13.30    0.65
   2 -13   3   12.35    0.61
   3 -13   3   25.92    1.01
   3 -13   3   27.39    1.02
   4 -13   3   13.69    0.63
   4 -13   3   13.28    0.63
   5 -13   3   10.76    0.54
   5 -13   3   10.90    0.54
   6 -13   3    0.29    0.15
   6 -13   3    0.58    0.18
   7 -13   3    0.35    0.15
   7 -13   3    0.36    0.15
   8 -13   3    6.54    0.41
   8 -13   3    5.91    0.39
   9 -13   3    1.74    0.24
   9 -13   3    1.94    0.26
  10 -13   3    5.35    0.38
  10 -13   3    4.80    0.35
  11 -13   3    8.85    0.49
  11 -13   3    8.58    0.47
  12 -13   3    0.63    0.19
  12 -13   3    0.09    0.14
  13 -13   3    0.36    0.16
  13 -13   3    0.48    0.17
  14 -13   3    2.21    0.27
  14 -13   3    2.11    0.29
  15 -13   3    0.16    0.15
  15 -13   3    0.20    0.17
  -5 -12   3    0.60    0.12
  -4 -12   3    0.58    0.11
  -3 -12   3    0.57    0.11
  -2 -12   3    0.39    0.10
  -1 -12   3    2.66    0.20
  -1 -12   3    2.43    0.29
   0 -12   3    0.40    0.08
   0 -12   3    0.32    0.15
   1 -12   3    5.37    0.38
   1 -12   3    5.45    0.26
   2 -12   3    8.92    0.46
   2 -12   3    8.10    0.35
   3 -12   3    4.78    0.24
   3 -12   3    4.86    0.35
   3 -12   3    5.19    0.34
   4 -12   3    5.32    0.26
   4 -12   3    5.38    0.36
   4 -12   3    5.23    0.35
   5 -12   3    1.80    0.23
   5 -12   3    1.88    0.16
   5 -12   3    1.91    0.23
   6 -12   3   74.48    2.36
   6 -12   3   76.90    2.37
   7 -12   3  101.61    3.03
   7 -12   3   96.56    3.02
   8 -12   3    0.32    0.14
   8 -12   3    0.47    0.15
   9 -12   3    3.77    0.29
   9 -12   3    3.54    0.28
  10 -12   3    7.61    0.42
  10 -12   3    6.16    0.38
  11 -12   3    8.80    0.46
  11 -12   3    9.42    0.49
  12 -12   3    3.04    0.29
  12 -12   3    3.11    0.32
  13 -12   3   -0.17    0.11
  13 -12   3    0.21    0.16
  14 -12   3    4.81    0.39
  14 -12   3    4.74    0.35
  15 -12   3    0.15    0.15
  15 -12   3    0.20    0.17
  -6 -11   3    0.58    0.12
  -5 -11   3    0.06    0.07
  -4 -11   3    5.62    0.28
  -3 -11   3    0.87    0.12
  -2 -11   3   11.93    0.48
  -2 -11   3   12.53    0.48
  -1 -11   3    1.97    0.17
  -1 -11   3    2.00    0.25
  -1 -11   3    2.06    0.16
   0 -11   3   10.82    0.53
   0 -11   3   11.57    0.44
   1 -11   3    3.28    0.19
   1 -11   3    3.40    0.28
   2 -11   3   35.83    1.24
   2 -11   3   35.53    1.24
   2 -11   3   37.08    1.19
   3 -11   3   42.68    1.42
   3 -11   3   42.53    1.40
   3 -11   3   43.49    1.43
   4 -11   3    1.28    0.18
   4 -11   3    1.31    0.13
   4 -11   3    1.76    0.21
  -5  11  -3   59.32    1.87
   5 -11   3   59.00    1.84
   5 -11   3   56.25    1.87
   5 -11   3   57.75    1.84
  -6  11  -3    0.37    0.09
   6 -11   3    0.22    0.12
   6 -11   3    0.28    0.08
   6 -11   3    0.43    0.12
   7 -11   3    0.46    0.14
   7 -11   3    0.38    0.09
   7 -11   3    0.53    0.15
   8 -11   3    4.76    0.31
   8 -11   3    4.70    0.30
   9 -11   3    3.19    0.27
   9 -11   3    3.60    0.27
  10 -11   3    0.77    0.16
  10 -11   3    0.87    0.17
  11 -11   3    1.22    0.20
  11 -11   3    1.56    0.20
  12 -11   3    4.12    0.30
  12 -11   3    4.51    0.33
  13 -11   3    0.74    0.17
  13 -11   3    0.89    0.18
  14 -11   3    1.72    0.26
  14 -11   3    1.81    0.22
  15 -11   3    0.81    0.21
  15 -11   3    0.84    0.18
  16 -11   3    2.70    0.29
  -7 -10   3    0.66    0.12
  -6 -10   3   17.25    0.65
  -5 -10   3    0.42    0.09
  -4 -10   3    1.02    0.12
  -3 -10   3    7.75    0.34
  -3 -10   3    7.51    0.34
  -2 -10   3    0.05    0.06
  -2 -10   3    0.07    0.06
  -1 -10   3   27.11    0.95
  -1 -10   3   28.15    0.94
  -1 -10   3   28.19    1.01
   0 -10   3   -0.04    0.05
   0 -10   3   -0.20    0.10
   1 -10   3   54.90    1.77
   1 -10   3   56.54    1.78
   2 -10   3   17.84    0.69
   2 -10   3   17.94    0.69
   2 -10   3   18.02    0.63
   3 -10   3    0.86    0.15
   3 -10   3    0.76    0.15
   3 -10   3    0.81    0.10
  -4  10  -3    0.86    0.10
   4 -10   3    0.88    0.10
   4 -10   3    0.61    0.13
   4 -10   3    0.84    0.16
  -5  10  -3    6.90    0.30
   5 -10   3    6.43    0.34
   5 -10   3    6.81    0.36
   5 -10   3    6.98    0.30
  -6  10  -3    5.04    0.27
   6 -10   3    5.48    0.31
   6 -10   3    5.72    0.31
   6 -10   3    5.43    0.27
  -7  10  -3   16.45    0.62
   7 -10   3   16.90    0.63
   7 -10   3   15.97    0.61
   7 -10   3   16.84    0.64
  -8  10  -3    8.62    0.38
   8 -10   3    7.94    0.40
   8 -10   3    8.24    0.37
   8 -10   3    8.42    0.40
  -9  10  -3    5.39    0.29
   9 -10   3    4.61    0.31
   9 -10   3    5.05    0.30
  10 -10   3    2.58    0.22
  10 -10   3    2.46    0.24
  11 -10   3    0.73    0.14
  11 -10   3    0.91    0.18
  12 -10   3    5.35    0.36
  12 -10   3    5.65    0.33
  13 -10   3    1.95    0.22
  13 -10   3    1.57    0.23
  14 -10   3    0.95    0.18
  14 -10   3    0.56    0.19
  15 -10   3    0.33    0.14
  15 -10   3    0.29    0.16
  16 -10   3   -0.03    0.13
  16 -10   3    0.02    0.16
  -8  -9   3    7.91    0.38
  -7  -9   3    1.60    0.16
  -6  -9   3    0.14    0.08
  -5  -9   3   15.27    0.57
  -4  -9   3    2.04    0.16
  -3  -9   3   21.38    0.75
  -3  -9   3   21.48    0.75
  -2  -9   3   30.24    1.04
  -2  -9   3   32.83    1.10
  -2  -9   3   31.22    1.04
  -1  -9   3    7.20    0.30
  -1  -9   3    7.29    0.39
   0  -9   3   14.74    0.60
   0  -9   3   14.94    0.52
   1  -9   3    1.62    0.19
   1  -9   3    2.02    0.13
   1  -9   3    2.14    0.21
   2  -9   3    2.53    0.20
   2  -9   3    2.48    0.14
   2  -9   3    2.82    0.22
  -3   9  -3    8.30    0.31
   3  -9   3    8.21    0.32
   3  -9   3    8.39    0.38
   3  -9   3    8.05    0.38
  -4   9  -3   18.28    0.62
   4  -9   3   17.27    0.65
   4  -9   3   17.43    0.62
   4  -9   3   17.52    0.65
  -5   9  -3    3.88    0.20
   5  -9   3    3.69    0.20
   5  -9   3    3.52    0.23
   5  -9   3    3.82    0.24
  -6   9  -3    5.11    0.25
   6  -9   3    4.97    0.28
   6  -9   3    5.68    0.29
   6  -9   3    5.38    0.26
  -7   9  -3   19.73    0.72
   7  -9   3   20.01    0.71
   7  -9   3   19.47    0.71
   7  -9   3   20.40    0.72
  -8   9  -3    4.56    0.26
   8  -9   3    4.72    0.25
   8  -9   3    4.49    0.27
   8  -9   3    5.06    0.28
  -9   9  -3    9.29    0.42
   9  -9   3    9.94    0.44
   9  -9   3    9.88    0.42
   9  -9   3    9.04    0.42
 -10   9  -3   21.05    0.81
  10  -9   3   21.65    0.80
  10  -9   3   22.70    0.78
 -11   9  -3    7.44    0.39
  11  -9   3    7.44    0.40
  11  -9   3    7.88    0.38
  12  -9   3   -0.02    0.10
  12  -9   3    0.04    0.11
  13  -9   3    7.82    0.44
  13  -9   3    7.81    0.39
  14  -9   3    1.27    0.18
  14  -9   3    1.33    0.21
  15  -9   3   10.21    0.49
  15  -9   3   10.13    0.55
  16  -9   3    1.88    0.29
  16  -9   3    2.19    0.25
  -9  -8   3    3.51    0.25
  -8  -8   3    1.33    0.15
  -7  -8   3    6.94    0.33
  -6  -8   3    1.60    0.15
  -5  -8   3    4.17    0.22
  -4  -8   3    8.95    0.36
  -3  -8   3    6.35    0.28
  -2  -8   3    7.63    0.38
  -2  -8   3    7.68    0.31
  -2  -8   3    7.68    0.31
  -1  -8   3    2.36    0.20
  -1  -8   3    2.20    0.13
   0  -8   3    0.10    0.05
   0  -8   3    0.22    0.09
   1  -8   3    3.16    0.22
   1  -8   3    3.63    0.23
   1  -8   3    3.34    0.16
   2  -8   3    4.34    0.19
   2  -8   3    4.32    0.24
   2  -8   3    4.20    0.25
  -3   8  -3   46.95    1.55
   3  -8   3   48.86    1.53
   3  -8   3   50.24    1.53
   3  -8   3   50.83    1.56
  -4   8  -3   27.88    0.92
   4  -8   3   29.12    0.92
   4  -8   3   26.21    0.92
   4  -8   3   28.13    0.92
  -5   8  -3   38.03    1.28
   5  -8   3   41.25    1.25
   5  -8   3   41.15    1.25
   5  -8   3   38.07    1.28
  -6   8  -3    6.24    0.28
   6  -8   3    6.96    0.30
   6  -8   3    5.52    0.29
   6  -8   3    6.38    0.28
  -7   8  -3   33.60    1.15
   7  -8   3   34.66    1.11
   7  -8   3   35.12    1.11
   7  -8   3   34.09    1.15
  -8   8  -3    0.61    0.10
   8  -8   3    0.63    0.12
   8  -8   3    0.53    0.11
   8  -8   3    0.44    0.09
  -9   8  -3    1.18    0.14
   9  -8   3    1.46    0.18
   9  -8   3    1.34    0.15
 -10   8  -3   18.79    0.72
  10  -8   3   18.06    0.69
  10  -8   3   18.95    0.67
 -11   8  -3   46.50    1.57
  11  -8   3   45.56    1.49
  11  -8   3   46.14    1.46
 -12   8  -3    9.15    0.46
  12  -8   3    9.43    0.42
  12  -8   3    9.46    0.47
  13  -8   3    3.33    0.28
  13  -8   3    3.14    0.25
  14  -8   3    1.66    0.23
  14  -8   3    1.65    0.20
  15  -8   3    2.32    0.28
  15  -8   3    2.09    0.24
  16  -8   3    0.07    0.14
  16  -8   3    0.00    0.12
 -10  -7   3    0.05    0.09
  -9  -7   3    2.25    0.21
  -8  -7   3    0.32    0.09
  -7  -7   3   11.35    0.46
  -6  -7   3   10.22    0.41
  -5  -7   3    0.87    0.10
  -4  -7   3    9.12    0.36
  -3  -7   3    0.86    0.09
  -2  -7   3    1.22    0.16
  -2  -7   3    1.13    0.10
  -1  -7   3   40.60    1.26
  -1  -7   3   37.34    1.23
   0  -7   3   75.32    2.35
   0  -7   3   76.08    2.28
   0  -7   3   75.86    2.28
   1  -7   3   30.33    0.99
   1  -7   3   30.26    0.97
   1  -7   3   30.68    0.99
  -2   7  -3   17.64    0.58
   2  -7   3   16.71    0.61
   2  -7   3   18.61    0.62
   2  -7   3   18.05    0.59
  -3   7  -3    8.82    0.33
   3  -7   3    9.02    0.37
   3  -7   3    8.85    0.36
   3  -7   3    9.17    0.33
  -4   7  -3   19.88    0.66
   4  -7   3   19.06    0.66
   4  -7   3   18.49    0.66
   4  -7   3   20.24    0.66
   4  -7   3   20.03    0.66
  -5   7  -3    1.70    0.12
   5  -7   3    1.64    0.14
   5  -7   3    1.84    0.12
   5  -7   3    1.80    0.14
   5  -7   3    1.83    0.15
  -6   7  -3    2.99    0.18
   6  -7   3    3.20    0.18
   6  -7   3    3.40    0.20
   6  -7   3    3.17    0.19
   6  -7   3    3.25    0.19
  -7   7  -3    1.61    0.14
   7  -7   3    1.74    0.14
   7  -7   3    1.39    0.15
   7  -7   3    1.71    0.14
   7  -7   3    1.80    0.14
  -8   7  -3    5.41    0.28
   8  -7   3    5.31    0.27
   8  -7   3    5.11    0.26
   8  -7   3    6.04    0.28
   8  -7   3    5.90    0.29
  -9   7  -3   21.26    0.76
   9  -7   3   19.57    0.72
   9  -7   3   21.38    0.71
   9  -7   3   19.31    0.74
   9  -7   3   20.44    0.69
 -10   7  -3    2.92    0.22
  10  -7   3    2.85    0.20
  10  -7   3    2.76    0.24
 -11   7  -3    7.27    0.38
  11  -7   3    6.58    0.37
  11  -7   3    6.96    0.34
 -12   7  -3    8.12    0.42
  12  -7   3    8.51    0.39
  12  -7   3    8.21    0.42
 -13   7  -3    3.27    0.27
  13  -7   3    3.06    0.23
  13  -7   3    2.61    0.26
  14  -7   3   19.36    0.73
  14  -7   3   19.67    0.79
  15  -7   3    1.55    0.21
  15  -7   3    1.74    0.25
  16  -7   3    0.32    0.14
  16  -7   3    0.63    0.20
 -11  -6   3    1.80    0.20
 -10  -6   3    1.29    0.17
  -9  -6   3    0.52    0.11
  -8  -6   3    0.86    0.12
  -7  -6   3    3.15    0.20
  -6  -6   3   14.24    0.53
  -5  -6   3   19.05    0.66
  -4  -6   3    1.19    0.11
  -3  -6   3    3.85    0.18
   2   6  -3    4.50    0.22
  -2  -6   3    4.72    0.25
  -2  -6   3    4.33    0.19
   1   6  -3   -0.05    0.04
  -1  -6   3    0.04    0.07
   0   6  -3   28.58    0.91
   0  -6   3   28.70    0.93
   0  -6   3   28.81    0.92
   0  -6   3   29.74    0.93
  -1   6  -3   17.75    0.59
  -1   6  -3   17.14    0.60
   1  -6   3   16.82    0.59
   1  -6   3   17.41    0.57
   1  -6   3   17.29    0.60
  -2   6  -3   29.73    0.95
  -2   6  -3   30.18    0.96
  -2   6  -3   29.67    0.94
   2  -6   3   31.64    0.96
   2  -6   3   31.20    0.96
   2  -6   3   29.23    0.97
   2  -6   3   31.60    0.96
  -3   6  -3   24.55    0.77
  -3   6  -3   24.71    0.79
   3  -6   3   23.60    0.77
   3  -6   3   23.42    0.77
   3  -6   3   24.40    0.79
   3  -6   3   24.24    0.78
  -4   6  -3   22.85    0.74
  -4   6  -3   23.95    0.75
   4  -6   3   22.33    0.72
   4  -6   3   20.86    0.72
   4  -6   3   22.62    0.74
   4  -6   3   21.44    0.73
  -5   6  -3    2.65    0.15
   5  -6   3    2.50    0.16
   5  -6   3    2.34    0.14
   5  -6   3    2.50    0.16
   5  -6   3    2.32    0.15
  -6   6  -3    2.92    0.17
   6  -6   3    3.04    0.18
   6  -6   3    3.31    0.18
   6  -6   3    2.93    0.17
   6  -6   3    3.06    0.18
  -7   6  -3    7.15    0.32
   7  -6   3    7.75    0.31
   7  -6   3    7.03    0.32
   7  -6   3    7.94    0.31
   7  -6   3    7.83    0.33
  -8   6  -3    3.92    0.22
   8  -6   3    3.35    0.22
   8  -6   3    4.01    0.20
   8  -6   3    3.89    0.21
  -9   6  -3    4.64    0.25
   9  -6   3    4.40    0.22
   9  -6   3    4.17    0.25
   9  -6   3    4.35    0.23
 -10   6  -3   50.64    1.66
  10  -6   3   47.98    1.57
  10  -6   3   50.77    1.54
  10  -6   3   49.46    1.52
 -11   6  -3    1.62    0.18
  11  -6   3    1.88    0.21
  11  -6   3    1.71    0.18
 -12   6  -3    6.45    0.37
  12  -6   3    6.75    0.34
  12  -6   3    6.79    0.39
 -13   6  -3    0.15    0.11
  13  -6   3    0.06    0.11
  13  -6   3   -0.10    0.09
 -14   6  -3    6.44    0.39
  14  -6   3    6.01    0.34
  14  -6   3    6.35    0.41
  15  -6   3    5.28    0.33
  15  -6   3    4.74    0.37
  16  -6   3    7.15    0.43
  16  -6   3    8.10    0.54
  11   5  -3    1.62    0.20
 -11  -5   3    1.57    0.19
 -10  -5   3   -0.08    0.08
  -9  -5   3    5.47    0.30
  -8  -5   3   10.09    0.42
  -7  -5   3   29.81    1.01
   6   5  -3    0.53    0.07
  -6  -5   3    0.42    0.08
   5   5  -3   13.72    0.46
  -5  -5   3   13.93    0.50
   4   5  -3   22.20    0.69
  -4  -5   3   21.84    0.73
   3   5  -3    5.12    0.21
  -3  -5   3    5.11    0.21
   2   5  -3    0.05    0.06
   2   5  -3    0.09    0.04
  -2  -5   3    0.06    0.07
  -2  -5   3    0.06    0.03
   1   5  -3    0.02    0.04
   1   5  -3    0.13    0.06
   1   5  -3    0.13    0.07
  -1  -5   3    0.13    0.07
   0   5  -3  127.92    3.66
   0   5  -3  132.28    3.68
   0   5  -3  124.97    3.66
   0  -5   3  126.25    3.67
   0  -5   3  120.84    3.66
   0  -5   3  126.78    3.88
  -1   5  -3    0.44    0.07
  -1   5  -3    0.31    0.06
  -1   5  -3    0.32    0.06
   1  -5   3    0.34    0.04
   1  -5   3    0.30    0.07
   1  -5   3    0.41    0.07
   1  -5   3    0.33    0.07
  -2   5  -3   77.35    2.36
  -2   5  -3   80.52    2.23
  -2   5  -3   66.57    2.24
  -2   5  -3   71.47    2.23
   2  -5   3   81.40    2.25
   2  -5   3   78.98    2.24
   2  -5   3   73.72    2.36
   2  -5   3   81.53    2.26
  -3   5  -3   23.14    0.71
  -3   5  -3   22.04    0.73
   3  -5   3   22.35    0.71
   3  -5   3   22.55    0.71
   3  -5   3   21.88    0.71
   3  -5   3   22.84    0.73
  -4   5  -3  299.76    9.11
  -4   5  -3  312.77    9.70
  -4   5  -3  323.43    9.03
  -4   5  -3  320.77    9.01
   4  -5   3  322.51    9.74
   4  -5   3  321.17    9.19
   4  -5   3  302.97    9.03
   4  -5   3  331.75    9.10
  -5   5  -3    1.26    0.11
  -5   5  -3    1.51    0.11
  -5   5  -3    1.29    0.10
  -5   5  -3    1.58    0.12
   5  -5   3    1.25    0.11
   5  -5   3    1.61    0.12
   5  -5   3    1.32    0.12
   5  -5   3    1.62    0.12
  -6   5  -3   63.33    1.86
  -6   5  -3   63.88    1.99
   6  -5   3   62.22    1.99
   6  -5   3   61.05    1.86
   6  -5   3   62.09    1.87
   6  -5   3   63.41    1.87
  -7   5  -3   31.75    1.08
   7  -5   3   30.85    0.99
   7  -5   3   35.22    1.09
   7  -5   3   30.94    1.02
   7  -5   3   31.91    1.01
  -8   5  -3    9.42    0.40
   8  -5   3    9.70    0.39
   8  -5   3    9.48    0.40
   8  -5   3    9.78    0.37
   8  -5   3    9.40    0.35
  -9   5  -3    2.27    0.18
   9  -5   3    2.33    0.20
   9  -5   3    2.13    0.14
   9  -5   3    2.37    0.16
 -10   5  -3    2.01    0.19
  10  -5   3    1.57    0.16
  10  -5   3    1.66    0.19
  10  -5   3    1.74    0.13
 -11   5  -3    3.17    0.24
  11  -5   3    2.98    0.22
  11  -5   3    3.13    0.25
 -12   5  -3    0.03    0.09
  12  -5   3    0.09    0.09
  12  -5   3    0.23    0.13
 -13   5  -3    7.90    0.44
  13  -5   3    9.06    0.45
  13  -5   3    8.83    0.40
 -14   5  -3    9.17    0.48
  14  -5   3    9.46    0.43
  14  -5   3    9.15    0.50
 -15   5  -3    2.63    0.28
  15  -5   3    3.98    0.28
  15  -5   3    3.97    0.33
 -12  -4   3    1.31    0.19
  11   4  -3    0.04    0.09
 -11  -4   3   -0.02    0.09
 -10  -4   3   -0.05    0.08
  -9  -4   3    1.32    0.15
  -8  -4   3   14.34    0.55
   7   4  -3   11.57    0.37
  -7  -4   3   11.58    0.45
   6   4  -3   62.26    1.84
  -6  -4   3   63.36    2.00
   5   4  -3    0.27    0.05
  -5  -4   3    0.27    0.06
   4   4  -3   19.74    0.60
  -4  -4   3   18.87    0.64
   3   4  -3    0.68    0.09
   3   4  -3    0.66    0.07
  -3  -4   3    0.70    0.06
   2   4  -3    0.92    0.11
   2   4  -3    1.01    0.10
   2   4  -3    0.91    0.08
  -2  -4   3    0.94    0.07
   1   4  -3   58.96    1.80
   1   4  -3   63.16    1.82
   1   4  -3   61.77    1.81
  -1  -4   3   61.98    1.82
  -1  -4   3   61.27    1.82
   0   4  -3  523.07   15.19
   0   4  -3  543.26   15.00
   0  -4   3  512.71   15.02
   0  -4   3  538.57   15.98
   0  -4   3  522.65   15.24
   0  -4   3  495.61   15.08
  -1   4  -3   40.89    1.31
  -1   4  -3   42.94    1.25
  -1   4  -3   41.68    1.25
  -1   4  -3   40.49    1.26
   1  -4   3   44.46    1.26
   1  -4   3   44.93    1.31
   1  -4   3   42.16    1.27
   1  -4   3   41.64    1.26
  -2   4  -3  339.91    9.95
  -2   4  -3  318.26   10.66
  -2   4  -3  346.35    9.96
   2  -4   3  341.88    9.90
   2  -4   3  356.81   10.13
   2  -4   3  384.58   10.70
   2  -4   3  334.68    9.91
  -3   4  -3    3.71    0.16
  -3   4  -3    3.76    0.16
  -3   4  -3    3.54    0.16
   3  -4   3    3.34    0.16
   3  -4   3    3.74    0.17
   3  -4   3    3.99    0.16
   3  -4   3    3.52    0.17
  -4   4  -3    0.52    0.07
  -4   4  -3    0.49    0.06
  -4   4  -3    0.55    0.07
   4  -4   3    0.47    0.06
   4  -4   3    0.56    0.07
   4  -4   3    0.70    0.07
   4  -4   3    0.65    0.08
  -5   4  -3   47.77    1.38
  -5   4  -3   47.83    1.38
  -5   4  -3   43.19    1.47
   5  -4   3   46.60    1.38
   5  -4   3   47.48    1.38
   5  -4   3   46.61    1.39
   5  -4   3   43.16    1.47
  -6   4  -3   14.86    0.53
   6  -4   3   14.85    0.50
   6  -4   3   14.18    0.49
   6  -4   3   15.95    0.54
   6  -4   3   14.67    0.51
  -7   4  -3   47.35    1.55
   7  -4   3   50.08    1.56
   7  -4   3   47.66    1.43
   7  -4   3   45.11    1.45
   7  -4   3   48.42    1.44
  -8   4  -3   13.68    0.52
   8  -4   3   13.02    0.50
   8  -4   3   13.28    0.48
   8  -4   3   13.50    0.45
  -9   4  -3    5.76    0.28
   9  -4   3    5.20    0.21
   9  -4   3    5.00    0.25
   9  -4   3    4.97    0.27
 -10   4  -3    7.66    0.36
  10  -4   3    7.40    0.36
  10  -4   3    7.14    0.28
  10  -4   3    6.90    0.32
 -11   4  -3   23.31    0.85
  11  -4   3   22.46    0.70
  11  -4   3   21.73    0.77
  11  -4   3   21.32    0.81
 -12   4  -3    0.24    0.11
  12  -4   3    0.40    0.11
  12  -4   3    0.22    0.13
 -13   4  -3    9.11    0.46
  13  -4   3    9.13    0.42
  13  -4   3    9.69    0.49
 -14   4  -3    0.17    0.12
  14  -4   3    0.05    0.11
  14  -4   3    0.28    0.14
 -15   4  -3    0.68    0.17
  15  -4   3    0.61    0.18
  15  -4   3    0.51    0.15
 -13  -3   3    1.88    0.22
 -12  -3   3    4.62    0.31
  11   3  -3    0.08    0.09
 -11  -3   3    0.03    0.09
  10   3  -3   10.05    0.42
 -10  -3   3    9.72    0.44
  -9  -3   3   -0.02    0.07
  -8  -3   3    9.39    0.40
  -7  -3   3    4.34    0.22
   6   3  -3    0.31    0.04
  -6  -3   3    0.28    0.06
   5   3  -3   58.57    1.73
  -5  -3   3   60.12    1.87
   4   3  -3    3.35    0.13
  -4  -3   3    3.35    0.15
   3   3  -3  148.64    4.17
   3   3  -3  143.45    4.17
   3   3  -3  143.03    4.19
   3   3  -3  145.81    4.44
  -3  -3   3  143.44    4.45
   2   3  -3   70.48    2.00
   2   3  -3   66.62    2.01
   2   3  -3   68.48    2.02
  -2  -3   3   69.30    2.12
   1   3  -3    0.16    0.03
   1   3  -3    0.09    0.04
   1   3  -3    0.13    0.05
  -1  -3   3    0.12    0.06
  -1  -3   3    0.11    0.04
  -1  -3   3    0.16    0.05
   0   3  -3  111.73    3.38
   0   3  -3  118.41    3.41
   0   3  -3  120.49    3.38
   0  -3   3  119.47    3.39
   0  -3   3  124.36    3.42
   0  -3   3  114.10    3.38
  -1   3  -3  192.12    5.79
  -1   3  -3  196.48    5.53
  -1   3  -3  182.86    5.34
  -1   3  -3  195.46    5.43
   1  -3   3  176.48    5.79
   1  -3   3  190.07    5.49
   1  -3   3  181.62    5.34
   1  -3   3  189.11    5.51
  -2   3  -3  275.33    8.22
  -2   3  -3  275.75    8.05
  -2   3  -3  273.53    8.69
   2  -3   3  289.24    8.18
   2  -3   3  288.32    8.26
   2  -3   3  270.96    8.72
   2  -3   3  301.81    8.18
  -3   3  -3    0.22    0.05
  -3   3  -3    0.25    0.05
   3  -3   3    0.23    0.05
   3  -3   3    0.17    0.04
   3  -3   3    0.43    0.05
  -4   3  -3   49.89    1.64
   4  -3   3   54.97    1.54
   4  -3   3   55.04    1.54
   4  -3   3   50.80    1.54
   4  -3   3   50.00    1.65
  -5   3  -3   54.82    1.82
  -5   3  -3   57.01    1.69
   5  -3   3   56.28    1.82
   5  -3   3   58.82    1.69
   5  -3   3   57.81    1.69
   5  -3   3   59.27    1.70
  -6   3  -3    3.13    0.17
   6  -3   3    3.54    0.17
   6  -3   3    3.11    0.18
   6  -3   3    3.34    0.14
  -7   3  -3   59.57    1.88
   7  -3   3   58.96    1.72
   7  -3   3   57.85    1.74
   7  -3   3   57.61    1.88
   7  -3   3   57.55    1.76
  -8   3  -3   46.62    1.51
   8  -3   3   45.79    1.36
   8  -3   3   44.68    1.39
   8  -3   3   45.49    1.42
  -9   3  -3    0.62    0.11
   9  -3   3    0.91    0.12
   9  -3   3    0.91    0.08
 -10   3  -3    8.09    0.39
  10  -3   3    8.55    0.40
  10  -3   3    8.18    0.29
  10  -3   3    8.38    0.36
 -11   3  -3   13.82    0.57
  11  -3   3   12.61    0.51
  11  -3   3   13.69    0.57
 -12   3  -3    0.10    0.10
  12  -3   3   -0.03    0.08
  12  -3   3    0.21    0.12
 -13   3  -3    1.05    0.17
  13  -3   3    0.80    0.15
  13  -3   3    0.80    0.18
 -14   3  -3    1.68    0.23
  14  -3   3    1.37    0.22
  14  -3   3    2.02    0.22
 -15   3  -3    7.33    0.46
  15  -3   3    8.48    0.43
  15  -3   3    8.53    0.50
 -13  -2   3    2.93    0.26
  12   2  -3    0.31    0.11
 -12  -2   3    0.28    0.11
  11   2  -3    2.00    0.18
 -11  -2   3    2.03    0.21
  10   2  -3    3.25    0.21
 -10  -2   3    3.19    0.23
   9   2  -3    0.13    0.08
  -9  -2   3    0.05    0.08
  -8  -2   3    1.99    0.16
  -7  -2   3    0.97    0.10
  -6  -2   3   60.03    1.91
  -5  -2   3   11.56    0.41
   4   2  -3    0.04    0.02
  -4  -2   3   -0.01    0.03
   3   2  -3    3.26    0.13
   3   2  -3    3.17    0.12
  -3  -2   3    3.15    0.13
   2   2  -3   11.48    0.38
   2   2  -3   11.58    0.36
   2   2  -3   11.36    0.35
   2   2  -3   10.73    0.36
  -2  -2   3   11.40    0.36
  -2  -2   3   10.88    0.35
   1   2  -3    1.57    0.08
   1   2  -3    1.48    0.07
   1   2  -3    1.44    0.09
  -1  -2   3    1.41    0.09
  -1  -2   3    1.48    0.08
  -1  -2   3    1.48    0.07
  -1  -2   3    1.62    0.06
   0   2  -3   16.43    0.50
   0   2  -3   16.16    0.50
   0   2  -3   16.18    0.50
   0  -2   3   16.57    0.50
   0  -2   3   16.44    0.51
   0  -2   3   16.27    0.51
   0  -2   3   16.43    0.50
   0  -2   3   17.19    0.50
  -1   2  -3  206.51    6.06
  -1   2  -3  211.13    6.57
  -1   2  -3  206.74    6.10
   1  -2   3  203.56    6.18
   1  -2   3  223.20    6.18
   1  -2   3  218.61    6.56
   1  -2   3  214.46    6.09
  -2   2  -3    0.01    0.03
  -2   2  -3   -0.07    0.03
  -2   2  -3   -0.11    0.01
   2  -2   3   -0.08    0.03
   2  -2   3   -0.11    0.03
   2  -2   3   -0.10    0.03
   2  -2   3   -0.02    0.03
  -3   2  -3  256.59    7.22
   3  -2   3  255.90    7.22
   3  -2   3  238.59    7.17
   3  -2   3  258.73    7.34
  -4   2  -3   24.40    0.83
   4  -2   3   24.36    0.77
   4  -2   3   24.82    0.76
   4  -2   3   27.67    0.84
  -5   2  -3   35.39    1.09
  -5   2  -3   37.89    1.17
   5  -2   3   36.83    1.07
   5  -2   3   33.63    1.17
   5  -2   3   36.25    1.09
  -6   2  -3   36.13    1.18
   6  -2   3   34.97    1.19
   6  -2   3   37.13    1.07
   6  -2   3   35.32    1.10
  -7   2  -3   13.12    0.49
   7  -2   3   12.69    0.46
   7  -2   3   13.04    0.42
  -8   2  -3    2.13    0.17
   8  -2   3    2.31    0.11
   8  -2   3    2.40    0.16
  -9   2  -3    0.25    0.09
   9  -2   3    0.11    0.04
   9  -2   3    0.20    0.08
 -10   2  -3    9.75    0.44
  10  -2   3    9.29    0.40
  10  -2   3    9.48    0.32
 -11   2  -3    5.65    0.33
  11  -2   3    6.46    0.32
 -12   2  -3    2.71    0.24
  12  -2   3    2.76    0.22
 -13   2  -3    0.07    0.11
  13  -2   3   -0.09    0.09
 -14   2  -3    0.16    0.14
  14  -2   3    0.12    0.11
  14  -2   3    0.48    0.18
 -15   2  -3    0.35    0.16
  15  -2   3    0.35    0.14
 -14  -1   3    9.41    0.49
 -13  -1   3    5.84    0.36
  12   1  -3    4.92    0.27
 -12  -1   3    5.02    0.32
  11   1  -3   23.83    0.81
 -11  -1   3   24.55    0.90
  10   1  -3    5.18    0.25
 -10  -1   3    4.98    0.28
   9   1  -3    6.42    0.29
  -9  -1   3    6.75    0.32
   8   1  -3    1.12    0.11
  -8  -1   3    1.01    0.12
   7   1  -3   10.88    0.39
  -7  -1   3   11.29    0.43
  -6  -1   3   25.29    0.85
  -5  -1   3    4.78    0.21
  -3  -1   3   78.58    2.42
  -3  -1   3   78.38    2.25
   2   1  -3   74.07    2.24
   2   1  -3   73.13    2.08
  -2  -1   3   69.91    2.24
  -2  -1   3   74.36    2.11
   1   1  -3   65.38    2.03
   1   1  -3   65.49    1.87
  -1  -1   3   65.44    2.02
  -1  -1   3   66.39    1.87
   0   1  -3    5.85    0.18
   0   1  -3    5.84    0.20
   0   1  -3    5.82    0.19
   0  -1   3    5.76    0.20
   0  -1   3    5.43    0.20
   0  -1   3    5.78    0.19
   0  -1   3    5.48    0.18
  -1   1  -3    8.84    0.30
  -1   1  -3    9.42    0.29
   1  -1   3    8.67    0.28
   1  -1   3    9.05    0.31
  -2   1  -3  112.56    3.44
   2  -1   3  112.72    3.19
   2  -1   3  109.28    3.44
  -3   1  -3   59.62    1.90
   3  -1   3   62.63    1.77
   3  -1   3   59.48    1.90
  -4   1  -3    1.79    0.11
   4  -1   3    1.72    0.11
   4  -1   3    1.75    0.12
  -5   1  -3   20.17    0.70
   5  -1   3   21.17    0.71
   5  -1   3   19.87    0.65
  -6   1  -3   34.22    1.09
   6  -1   3   31.30    1.01
  -7   1  -3    9.76    0.39
   7  -1   3    9.16    0.36
  -8   1  -3    0.09    0.07
   8  -1   3    0.09    0.03
   8  -1   3    0.05    0.06
  -9   1  -3   10.13    0.44
   9  -1   3    9.87    0.41
   9  -1   3    9.87    0.33
 -10   1  -3   30.24    1.03
  10  -1   3   27.88    0.95
  10  -1   3   27.72    0.85
 -11   1  -3    3.73    0.27
  11  -1   3    4.22    0.26
 -12   1  -3    4.67    0.31
  12  -1   3    4.57    0.28
 -13   1  -3    9.85    0.49
  13  -1   3    8.88    0.44
 -14   1  -3   14.70    0.66
  14  -1   3   13.68    0.59
 -14   0   3    4.80    0.35
 -13   0   3    6.79    0.38
  12   0  -3    5.34    0.27
 -12   0   3    4.59    0.31
  11   0  -3    0.06    0.07
 -11   0   3    0.11    0.09
  10   0  -3   19.38    0.64
 -10   0   3   18.22    0.71
   9   0  -3    2.87    0.17
  -9   0   3    2.74    0.20
   8   0  -3    0.33    0.07
  -8   0   3    0.15    0.07
   7   0  -3   54.32    1.65
  -7   0   3   57.61    1.80
   6   0  -3    3.65    0.16
  -6   0   3    3.68    0.18
   5   0  -3    4.73    0.18
   5   0  -3    4.80    0.20
  -5   0   3    4.52    0.20
   4   0  -3    1.35    0.07
  -4   0   3    1.37    0.09
   3   0  -3  233.86    6.31
   3   0  -3  211.36    6.87
  -3   0   3  215.54    6.88
   2   0  -3  606.54   22.92
  -2   0   3  761.91   21.24
   1   0  -3   94.90    2.85
   1   0  -3   91.20    2.64
  -1   0   3   90.95    2.85
  -1   0   3   92.62    2.65
   0   0  -3  318.63   10.36
   0   0  -3  334.95   10.39
   0   0   3  348.97    9.54
   0   0   3  339.09   10.42
  -1   0  -3    0.83    0.07
   1   0   3    0.59    0.07
  -2   0  -3  996.06   30.67
   2   0   3 1000.00   30.70
  -3   0  -3    0.50    0.07
   3   0   3    0.70    0.08
  -4   0  -3    0.45    0.07
  -5   0  -3    9.80    0.40
   5   0   3   10.82    0.41
   5   0   3   10.67    0.38
  -6   0  -3    5.31    0.25
   6   0   3    5.54    0.25
  -7   0  -3    4.04    0.22
   7   0   3    4.20    0.22
  -8   0  -3   16.46    0.62
   8   0   3   16.14    0.58
  -9   0  -3    0.63    0.12
   9   0   3    0.72    0.12
 -10   0  -3   31.39    1.11
  10   0   3   31.05    1.04
 -11   0  -3    1.60    0.19
  11   0   3    1.53    0.18
 -12   0  -3    0.38    0.13
  12   0   3    0.12    0.10
 -13   0  -3    2.04    0.24
  13   0   3    2.45    0.24
 -14   0  -3    6.35    0.41
  14   0   3    7.05    0.39
  15  -1  -3    0.98    0.22
 -15   1   3    0.61    0.17
  14  -1  -3    1.30    0.22
 -14   1   3    0.92    0.19
 -13   1   3   -0.07    0.09
  12  -1  -3    1.57    0.16
 -12   1   3    1.72    0.20
  11  -1  -3    0.10    0.07
 -11   1   3    0.01    0.08
  10  -1  -3    2.90    0.17
 -10   1   3    2.84    0.21
   9  -1  -3    1.43    0.12
  -9   1   3    1.68    0.17
   8  -1  -3   48.50    1.43
  -8   1   3   47.71    1.57
   7  -1  -3    2.40    0.12
  -7   1   3    2.01    0.15
   6  -1  -3   28.97    0.84
  -6   1   3   26.67    0.92
   5  -1  -3   12.04    0.42
   5  -1  -3   11.60    0.37
  -5   1   3   11.91    0.36
  -5   1   3   11.96    0.43
   4  -1  -3  147.30    4.30
   4  -1  -3  140.11    3.99
  -4   1   3  134.15    4.30
  -4   1   3  136.70    3.97
   3  -1  -3    4.14    0.16
   3  -1  -3    4.34    0.14
   3  -1  -3    4.39    0.17
  -3   1   3    3.93    0.17
  -3   1   3    4.43    0.14
   2  -1  -3  120.06    3.64
   2  -1  -3  116.38    3.37
   2  -1  -3  115.65    3.39
  -2   1   3  120.39    3.37
  -2   1   3  117.76    3.64
  -2   1   3  119.43    3.37
   1  -1  -3   84.74    2.62
   1  -1  -3   84.07    2.41
  -1   1   3   84.56    2.41
   0  -1  -3   82.58    2.41
   0  -1  -3   83.41    2.60
   0   1   3   86.51    2.41
  -1  -1  -3   18.78    0.64
   1   1   3   19.58    0.60
   1   1   3   19.47    0.64
  -2  -1  -3  611.42   19.32
   2   1   3  638.96   19.37
  -4  -1  -3  111.85    3.66
   4   1   3  123.27    3.67
  -5  -1  -3   82.15    2.60
  -6  -1  -3    1.47    0.14
  -7  -1  -3    0.08    0.07
   7   1   3    0.07    0.06
  -8  -1  -3    0.38    0.09
   8   1   3    0.53    0.11
  -9  -1  -3    1.10    0.15
   9   1   3    1.30    0.16
 -10  -1  -3    0.21    0.10
  10   1   3    0.24    0.11
 -11  -1  -3   15.03    0.63
  11   1   3   14.86    0.60
 -12  -1  -3    1.01    0.18
  12   1   3    1.05    0.17
 -13  -1  -3    2.67    0.28
  13   1   3    2.67    0.26
  15  -2  -3    1.19    0.23
 -15   2   3    0.72    0.18
  14  -2  -3    0.75    0.18
 -14   2   3    1.05    0.18
  13  -2  -3    1.22    0.21
  13  -2  -3    1.04    0.14
 -13   2   3    1.01    0.18
  12  -2  -3    5.39    0.26
  12  -2  -3    4.93    0.33
 -12   2   3    5.28    0.32
  11  -2  -3    0.40    0.09
  11  -2  -3    0.25    0.11
 -11   2   3    0.36    0.11
  10  -2  -3    0.01    0.09
  10  -2  -3    0.04    0.06
 -10   2   3    0.04    0.08
   9  -2  -3    0.64    0.11
   9  -2  -3    0.74    0.09
  -9   2   3    0.54    0.11
   8  -2  -3    0.27    0.08
   8  -2  -3    0.29    0.06
  -8   2   3    0.19    0.07
   7  -2  -3    0.78    0.07
   7  -2  -3    0.63    0.09
  -7   2   3    0.71    0.05
  -7   2   3    0.85    0.10
   6  -2  -3    4.10    0.20
   6  -2  -3    4.13    0.16
   6  -2  -3    3.85    0.19
  -6   2   3    4.11    0.14
  -6   2   3    3.93    0.16
  -6   2   3    3.80    0.20
   5  -2  -3    7.66    0.29
   5  -2  -3    7.67    0.25
  -5   2   3    7.22    0.30
  -5   2   3    7.97    0.25
   4  -2  -3    1.13    0.09
   4  -2  -3    1.15    0.07
   4  -2  -3    1.34    0.09
  -4   2   3    1.35    0.07
  -4   2   3    1.45    0.10
   3  -2  -3  117.76    3.40
   3  -2  -3  121.04    3.41
   3  -2  -3  115.64    3.68
  -3   2   3  123.84    3.42
  -3   2   3  117.31    3.68
  -3   2   3  119.28    3.41
   2  -2  -3   83.99    2.69
   2  -2  -3   90.07    2.50
   2  -2  -3   84.69    2.49
  -2   2   3   86.18    2.49
  -2   2   3   87.41    2.49
  -2   2   3   89.65    2.70
   1  -2  -3   19.97    0.68
   1  -2  -3   19.98    0.62
  -1   2   3   20.44    0.62
  -1   2   3   21.38    0.68
  -1   2   3   21.13    0.63
   0  -2  -3  119.39    3.54
   0  -2  -3  129.26    3.82
   0   2   3  122.43    3.54
  -1  -2  -3  341.29   10.43
  -1  -2  -3  347.36    9.75
   1   2   3  328.20    9.63
  -3  -2  -3  133.51    4.12
   3   2   3  136.30    4.13
   3   2   3  128.45    3.85
  -4  -2  -3    4.40    0.22
  -5  -2  -3    4.35    0.23
  -6  -2  -3    1.94    0.16
  -7  -2  -3    1.00    0.13
  -8  -2  -3    1.31    0.16
  -9  -2  -3    0.05    0.08
   9   2   3   -0.15    0.08
 -10  -2  -3    5.53    0.33
  10   2   3    5.41    0.32
 -11  -2  -3    0.44    0.13
  11   2   3    0.08    0.10
 -12  -2  -3    1.82    0.23
  12   2   3    1.67    0.22
 -13  -2  -3    0.07    0.12
  13   2   3    0.21    0.13
  15  -3  -3    0.65    0.18
 -15   3   3    0.64    0.18
  14  -3  -3    0.37    0.15
 -14   3   3    0.73    0.17
  13  -3  -3   12.43    0.48
  13  -3  -3   12.85    0.57
 -13   3   3   12.35    0.57
  12  -3  -3    3.75    0.22
  12  -3  -3    3.97    0.29
 -12   3   3    4.12    0.29
  11  -3  -3   30.78    1.07
  11  -3  -3   32.00    1.00
 -11   3   3   32.32    1.13
  10  -3  -3    3.10    0.24
  10  -3  -3    3.39    0.18
 -10   3   3    3.26    0.23
   9  -3  -3    0.27    0.06
   9  -3  -3    0.31    0.09
  -9   3   3    0.17    0.08
   8  -3  -3   10.92    0.37
   8  -3  -3    9.72    0.41
  -8   3   3   10.04    0.43
  -8   3   3   11.25    0.37
  -8   3   3   10.30    0.33
   7  -3  -3    1.30    0.09
   7  -3  -3    1.18    0.12
  -7   3   3    1.47    0.13
  -7   3   3    1.33    0.08
   6  -3  -3    5.81    0.24
   6  -3  -3    4.90    0.20
   6  -3  -3    5.04    0.23
  -6   3   3    5.39    0.20
  -6   3   3    5.46    0.25
  -6   3   3    5.10    0.20
   5  -3  -3   53.42    1.55
   5  -3  -3   53.05    1.52
   5  -3  -3   50.38    1.65
  -5   3   3   51.82    1.54
  -5   3   3   51.11    1.66
  -5   3   3   52.04    1.51
   4  -3  -3    3.04    0.14
   4  -3  -3    3.00    0.16
   4  -3  -3    3.09    0.15
  -4   3   3    3.17    0.13
  -4   3   3    3.14    0.16
   3  -3  -3    7.06    0.25
   3  -3  -3    6.96    0.27
   3  -3  -3    6.45    0.25
  -3   3   3    6.63    0.24
  -3   3   3    6.66    0.24
  -3   3   3    6.97    0.27
   2  -3  -3    8.47    0.32
   2  -3  -3    8.55    0.30
   2  -3  -3    8.19    0.30
  -2   3   3    8.20    0.29
  -2   3   3    8.36    0.29
  -2   3   3    9.09    0.32
   1  -3  -3   18.89    0.64
   1  -3  -3   18.82    0.60
  -1   3   3   19.98    0.60
  -1   3   3   18.89    0.60
  -1   3   3   18.79    0.64
   0  -3  -3  183.54    5.52
   0  -3  -3  172.61    5.13
   0   3   3  181.43    5.13
  -1  -3  -3   14.61    0.52
  -1  -3  -3   13.86    0.49
  -2  -3  -3    6.60    0.29
   2   3   3    6.48    0.28
  -3  -3  -3    4.84    0.23
  -4  -3  -3    1.46    0.13
  -5  -3  -3    9.02    0.38
  -6  -3  -3   89.83    2.86
  -7  -3  -3   53.86    1.78
  -8  -3  -3   36.25    1.25
  -9  -3  -3    0.23    0.10
 -10  -3  -3    0.25    0.11
  10   3   3    0.44    0.13
 -11  -3  -3    0.15    0.11
  11   3   3    0.11    0.10
 -12  -3  -3    0.17    0.13
  12   3   3    0.41    0.15
  16  -4  -3   13.13    0.63
 -16   4   3   11.09    0.60
  15  -4  -3    0.38    0.16
 -15   4   3    0.31    0.15
  14  -4  -3    0.83    0.17
 -14   4   3    0.58    0.15
  13  -4  -3    0.76    0.18
  13  -4  -3    1.13    0.14
 -13   4   3    0.83    0.16
  12  -4  -3    1.32    0.14
  12  -4  -3    1.70    0.21
 -12   4   3    2.04    0.22
  11  -4  -3    2.28    0.16
  11  -4  -3    2.19    0.22
 -11   4   3    2.12    0.22
  10  -4  -3   23.57    0.80
  10  -4  -3   22.70    0.73
 -10   4   3   21.99    0.83
   9  -4  -3    1.15    0.11
   9  -4  -3    1.06    0.14
  -9   4   3    1.14    0.08
  -9   4   3    1.12    0.14
   8  -4  -3   13.31    0.44
   8  -4  -3   12.62    0.48
  -8   4   3   13.03    0.42
  -8   4   3   12.91    0.44
  -8   4   3   12.77    0.51
   7  -4  -3   19.57    0.66
   7  -4  -3   19.45    0.62
   7  -4  -3   20.79    0.70
  -7   4   3   20.37    0.71
  -7   4   3   18.41    0.62
   6  -4  -3   10.08    0.33
   6  -4  -3    9.80    0.36
  -6   4   3    9.22    0.37
  -6   4   3    7.95    0.31
   5  -4  -3   12.68    0.46
   5  -4  -3   13.24    0.48
   5  -4  -3   13.49    0.44
  -5   4   3   12.96    0.46
  -5   4   3   13.78    0.43
  -5   4   3   14.27    0.50
   4  -4  -3   32.51    1.04
   4  -4  -3   30.85    0.97
   4  -4  -3   30.49    0.96
  -4   4   3   32.31    0.95
  -4   4   3   30.07    0.96
  -4   4   3   33.43    1.05
   3  -4  -3    8.87    0.33
   3  -4  -3    9.26    0.33
   3  -4  -3    9.10    0.34
  -3   4   3    8.54    0.31
  -3   4   3    9.20    0.35
   2  -4  -3   11.96    0.41
   2  -4  -3   11.49    0.43
   2  -4  -3   12.04    0.41
  -2   4   3   11.44    0.43
   1  -4  -3   12.43    0.45
   1  -4  -3   12.44    0.44
  -1   4   3   12.38    0.45
   0  -4  -3   47.82    1.50
   0  -4  -3   49.59    1.59
   0   4   3   51.16    1.49
  -1  -4  -3   42.46    1.31
  -1  -4  -3   42.90    1.39
   1   4   3   42.26    1.31
  -2  -4  -3   11.13    0.44
  -3  -4  -3   18.26    0.66
  -4  -4  -3    1.88    0.16
  -5  -4  -3    4.57    0.26
  -6  -4  -3   23.86    0.86
  -7  -4  -3    2.09    0.19
  -8  -4  -3    3.75    0.25
  -9  -4  -3   11.46    0.51
 -10  -4  -3    0.11    0.11
  10   4   3    0.00    0.12
 -11  -4  -3    5.10    0.34
  11   4   3    5.60    0.36
  16  -5  -3   -0.04    0.16
 -16   5   3    0.09    0.14
  15  -5  -3    5.18    0.38
 -15   5   3    4.80    0.36
  14  -5  -3    8.50    0.46
 -14   5   3    8.26    0.46
  13  -5  -3   11.26    0.53
  13  -5  -3   11.25    0.44
 -13   5   3   11.03    0.53
  12  -5  -3    8.81    0.36
  12  -5  -3    8.69    0.43
 -12   5   3    8.66    0.44
  11  -5  -3    7.35    0.30
  11  -5  -3    6.74    0.36
 -11   5   3    6.23    0.36
  10  -5  -3    0.97    0.15
  10  -5  -3    1.08    0.12
 -10   5   3    1.13    0.16
 -10   5   3    0.93    0.08
   9  -5  -3    1.47    0.12
   9  -5  -3    1.62    0.17
  -9   5   3    1.32    0.10
  -9   5   3    1.19    0.14
   8  -5  -3    0.13    0.07
   8  -5  -3    0.11    0.05
  -8   5   3    0.15    0.05
  -8   5   3    0.07    0.06
  -8   5   3    0.05    0.05
   7  -5  -3   16.62    0.55
   7  -5  -3   15.21    0.57
   7  -5  -3   16.73    0.60
  -7   5   3   17.78    0.62
  -7   5   3   16.07    0.55
  -7   5   3   16.66    0.54
   6  -5  -3   58.86    1.87
   6  -5  -3   57.87    1.75
   6  -5  -3   57.03    1.72
  -6   5   3   56.03    1.74
  -6   5   3   58.23    1.71
  -6   5   3   61.10    1.88
   5  -5  -3   10.26    0.40
   5  -5  -3   10.57    0.39
   5  -5  -3   10.26    0.37
  -5   5   3    9.94    0.36
  -5   5   3   10.87    0.41
   4  -5  -3    0.07    0.05
   4  -5  -3    0.10    0.07
   4  -5  -3    0.02    0.05
  -4   5   3   -0.02    0.04
  -4   5   3    0.03    0.05
  -4   5   3    0.00    0.05
   3  -5  -3    0.73    0.09
   3  -5  -3    0.63    0.09
   3  -5  -3    0.89    0.10
  -3   5   3    0.54    0.08
  -3   5   3    0.76    0.09
  -3   5   3    0.85    0.09
   2  -5  -3   19.78    0.70
   2  -5  -3   20.71    0.68
  -2   5   3   19.86    0.66
  -2   5   3   20.48    0.70
  -2   5   3   21.26    0.67
   1  -5  -3   30.64    1.00
   1  -5  -3   28.70    0.95
  -1   5   3   29.61    0.96
  -1   5   3   30.96    1.00
  -1   5   3   30.26    0.95
   0  -5  -3   52.29    1.56
   0  -5  -3   49.44    1.64
  -1  -5  -3   25.94    0.89
  -1  -5  -3   26.28    0.87
  -2  -5  -3   11.55    0.46
  -3  -5  -3    0.09    0.06
  -4  -5  -3    3.77    0.23
  -5  -5  -3   12.24    0.50
  -6  -5  -3   11.39    0.48
  -7  -5  -3    0.05    0.08
  -8  -5  -3   10.89    0.49
  -9  -5  -3    3.22    0.26
 -10  -5  -3    0.85    0.16
 -11  -5  -3   -0.14    0.10
  11   5   3    0.05    0.14
  16  -6  -3    0.29    0.16
  15  -6  -3    0.01    0.15
 -15   6   3    0.19    0.13
  14  -6  -3    0.43    0.15
 -14   6   3    0.62    0.16
  13  -6  -3   -0.09    0.07
  13  -6  -3    0.01    0.11
 -13   6   3    0.12    0.11
  12  -6  -3    1.42    0.19
  12  -6  -3    1.50    0.15
 -12   6   3    1.35    0.18
  11  -6  -3   28.92    0.92
  11  -6  -3   28.70    0.98
 -11   6   3   26.88    1.02
  10  -6  -3   19.97    0.67
  10  -6  -3   20.18    0.72
 -10   6   3   19.17    0.75
   9  -6  -3   11.55    0.46
   9  -6  -3   10.82    0.41
  -9   6   3   11.41    0.48
   8  -6  -3   58.01    1.70
   8  -6  -3   57.28    1.73
   8  -6  -3   57.64    1.84
  -8   6   3   53.16    1.84
   7  -6  -3   12.10    0.46
   7  -6  -3   12.54    0.44
  -7   6   3   11.93    0.49
   6  -6  -3   23.35    0.76
   6  -6  -3   23.05    0.79
   6  -6  -3   22.84    0.74
  -6   6   3   22.05    0.80
   5  -6  -3   18.17    0.62
   5  -6  -3   18.54    0.64
   5  -6  -3   17.32    0.61
  -5   6   3   18.80    0.60
  -5   6   3   17.28    0.65
   4  -6  -3    2.05    0.16
   4  -6  -3    2.35    0.17
   4  -6  -3    2.11    0.15
  -4   6   3    2.51    0.16
   3  -6  -3    7.89    0.33
   3  -6  -3    8.36    0.34
   3  -6  -3    8.73    0.34
  -3   6   3    7.28    0.33
   2  -6  -3   42.00    1.46
   2  -6  -3   45.26    1.40
  -2   6   3   48.06    1.47
   1  -6  -3   24.11    0.83
   1  -6  -3   25.46    0.85
   0  -6  -3   93.44    2.81
   0  -6  -3   95.59    2.98
  -1  -6  -3   19.05    0.71
  -1  -6  -3   20.78    0.72
  -2  -6  -3    1.48    0.15
  -3  -6  -3   30.41    1.06
  -4  -6  -3   23.80    0.86
  -5  -6  -3    2.03    0.19
  -6  -6  -3    2.02    0.20
  -7  -6  -3   -0.09    0.08
  -8  -6  -3    0.02    0.09
  -9  -6  -3    3.42    0.27
 -10  -6  -3    0.29    0.13
  16  -7  -3    4.21    0.37
  15  -7  -3    3.35    0.33
  14  -7  -3    1.81    0.20
  14  -7  -3    1.72    0.23
 -14   7   3    1.54    0.21
  13  -7  -3   21.27    0.76
  13  -7  -3   22.30    0.84
 -13   7   3   21.94    0.87
  12  -7  -3    3.46    0.22
  12  -7  -3    3.91    0.28
 -12   7   3    4.14    0.29
  11  -7  -3    0.12    0.08
  11  -7  -3    0.25    0.12
 -11   7   3   -0.03    0.10
  10  -7  -3    2.87    0.19
  10  -7  -3    2.75    0.22
 -10   7   3    2.81    0.23
   9  -7  -3   -0.02    0.08
   9  -7  -3    0.15    0.07
  -9   7   3    0.10    0.08
   8  -7  -3    0.95    0.12
   8  -7  -3    0.96    0.12
   8  -7  -3    0.98    0.13
  -8   7   3    1.16    0.14
   7  -7  -3   18.54    0.67
   7  -7  -3   17.22    0.64
   7  -7  -3   18.73    0.63
  -7   7   3   18.11    0.68
   6  -7  -3    2.42    0.17
   6  -7  -3    2.41    0.17
   6  -7  -3    2.33    0.17
  -6   7   3    2.23    0.17
   5  -7  -3   26.09    0.85
   5  -7  -3   24.01    0.82
   5  -7  -3   22.17    0.80
  -5   7   3   25.49    0.86
   4  -7  -3    7.49    0.31
   4  -7  -3    7.05    0.32
   4  -7  -3    6.72    0.32
  -4   7   3    6.95    0.32
   3  -7  -3   25.99    0.87
   3  -7  -3   25.01    0.89
   3  -7  -3   26.50    0.87
  -3   7   3   26.26    0.89
   2  -7  -3   14.18    0.54
   2  -7  -3   13.87    0.53
  -2   7   3   14.69    0.53
   1  -7  -3   13.21    0.50
   1  -7  -3   12.55    0.51
   0  -7  -3   23.31    0.82
   0  -7  -3   23.37    0.82
  -1  -7  -3    0.16    0.07
  -1  -7  -3    0.09    0.09
  -1  -7  -3    0.16    0.08
  -2  -7  -3   39.20    1.34
  -2  -7  -3   40.18    1.35
  -3  -7  -3   20.47    0.76
  -4  -7  -3    3.00    0.23
  -5  -7  -3   21.96    0.82
  -6  -7  -3    3.83    0.27
  -7  -7  -3    4.68    0.31
  -8  -7  -3    4.64    0.31
  -9  -7  -3    0.49    0.14
  16  -8  -3    2.70    0.32
  15  -8  -3    2.92    0.32
  14  -8  -3    1.08    0.22
  14  -8  -3    1.02    0.16
  13  -8  -3    6.08    0.37
  13  -8  -3    6.62    0.33
 -13   8   3    5.79    0.38
  12  -8  -3    8.23    0.37
  12  -8  -3    8.37    0.43
 -12   8   3    7.88    0.43
  11  -8  -3    0.52    0.14
  11  -8  -3    0.59    0.12
 -11   8   3    0.79    0.15
  10  -8  -3   72.71    2.28
  10  -8  -3   73.09    2.24
 -10   8   3   77.49    2.45
   9  -8  -3    1.25    0.17
   9  -8  -3    1.32    0.15
   9  -8  -3    1.30    0.15
  -9   8   3    1.35    0.16
   8  -8  -3   13.33    0.53
   8  -8  -3   13.35    0.50
  -8   8   3   12.95    0.54
   7  -8  -3    2.26    0.17
   7  -8  -3    2.53    0.20
   7  -8  -3    2.57    0.19
  -7   8   3    2.51    0.19
   6  -8  -3    0.22    0.10
   6  -8  -3    0.22    0.07
   6  -8  -3    0.23    0.09
  -6   8   3    0.15    0.08
   5  -8  -3    0.11    0.06
   5  -8  -3    0.13    0.08
   5  -8  -3    0.18    0.09
  -5   8   3    0.17    0.07
   4  -8  -3    5.91    0.28
   4  -8  -3    5.65    0.30
   4  -8  -3    6.29    0.31
  -4   8   3    5.77    0.29
   3  -8  -3   18.74    0.71
   3  -8  -3   20.06    0.72
  -3   8   3   20.62    0.72
   2  -8  -3    1.29    0.17
   2  -8  -3    1.58    0.15
   1  -8  -3    0.54    0.10
   1  -8  -3    0.55    0.13
   0  -8  -3    0.02    0.09
   0  -8  -3    0.07    0.07
  -1  -8  -3    4.28    0.27
  -1  -8  -3    4.46    0.30
  -1  -8  -3    4.49    0.26
  -2  -8  -3    1.13    0.15
  -2  -8  -3    1.24    0.16
  -3  -8  -3  105.70    3.38
  -4  -8  -3    2.08    0.21
  -5  -8  -3    0.30    0.11
  -6  -8  -3    9.95    0.47
  -7  -8  -3   -0.01    0.09
  -8  -8  -3    2.12    0.22
  16  -9  -3    0.80    0.22
  15  -9  -3    0.04    0.15
  14  -9  -3   16.66    0.71
  14  -9  -3   15.72    0.63
  13  -9  -3    2.99    0.23
  13  -9  -3    2.59    0.27
  12  -9  -3   13.15    0.59
  12  -9  -3   14.22    0.55
  11  -9  -3   30.05    1.01
  11  -9  -3   29.99    1.05
 -11   9   3   30.37    1.11
  10  -9  -3    2.28    0.24
  10  -9  -3    2.38    0.20
 -10   9   3    1.87    0.20
   9  -9  -3   13.73    0.54
   9  -9  -3   12.67    0.52
   9  -9  -3   13.15    0.55
  -9   9   3   12.84    0.56
   8  -9  -3    1.03    0.14
   8  -9  -3    0.67    0.11
   8  -9  -3    1.09    0.16
  -8   9   3    0.83    0.14
   7  -9  -3    2.83    0.19
   7  -9  -3    2.60    0.21
   7  -9  -3    2.58    0.21
  -7   9   3    2.37    0.20
   6  -9  -3    0.09    0.07
   6  -9  -3    0.11    0.09
   6  -9  -3    0.12    0.08
  -6   9   3    0.08    0.07
   5  -9  -3    1.65    0.19
   5  -9  -3    1.52    0.18
   5  -9  -3    1.44    0.15
  -5   9   3    1.47    0.16
   4  -9  -3   13.46    0.52
   4  -9  -3   13.64    0.55
   4  -9  -3   13.48    0.55
  -4   9   3   12.58    0.52
   3  -9  -3   29.18    0.99
   3  -9  -3   28.28    0.99
  -3   9   3   28.42    0.99
   2  -9  -3    2.85    0.23
   2  -9  -3    2.67    0.19
   1  -9  -3   10.65    0.49
   1  -9  -3   10.09    0.44
   0  -9  -3    2.05    0.24
   0  -9  -3    2.05    0.18
  -1  -9  -3    2.91    0.29
  -1  -9  -3    3.49    0.23
  -1  -9  -3    3.16    0.25
  -2  -9  -3   14.58    0.61
  -3  -9  -3   14.37    0.60
  -4  -9  -3   12.31    0.54
  -5  -9  -3    4.13    0.29
  -6  -9  -3    1.51    0.19
  -7  -9  -3   -0.02    0.10
  16 -10  -3    7.12    0.47
  15 -10  -3    1.09    0.22
  14 -10  -3   14.49    0.60
  14 -10  -3   14.03    0.65
  13 -10  -3    1.86    0.21
  13 -10  -3    1.88    0.25
  12 -10  -3    1.30    0.22
  12 -10  -3    0.98    0.16
  11 -10  -3    0.06    0.10
  11 -10  -3    0.15    0.14
  10 -10  -3    0.40    0.15
  10 -10  -3    0.40    0.12
   9 -10  -3    1.70    0.20
   9 -10  -3    1.55    0.19
  -9  10   3    1.80    0.21
   8 -10  -3    8.81    0.43
   8 -10  -3    9.49    0.43
  -8  10   3    8.08    0.42
   7 -10  -3   13.23    0.55
   7 -10  -3   13.93    0.57
   7 -10  -3   13.47    0.57
  -7  10   3   14.26    0.57
   6 -10  -3    2.91    0.25
   6 -10  -3    3.08    0.21
   6 -10  -3    2.97    0.23
  -6  10   3    2.55    0.21
   5 -10  -3    9.91    0.42
   5 -10  -3    9.25    0.44
   5 -10  -3    9.26    0.44
  -5  10   3    9.04    0.42
   4 -10  -3    4.02    0.29
   4 -10  -3    4.09    0.24
  -4  10   3    4.76    0.26
   3 -10  -3    1.01    0.18
   3 -10  -3    0.97    0.13
   2 -10  -3   15.08    0.63
   2 -10  -3   14.45    0.58
   1 -10  -3   10.64    0.46
   1 -10  -3   10.51    0.51
   0 -10  -3    1.71    0.23
  -1 -10  -3    9.58    0.47
  -1 -10  -3   10.47    0.52
  -2 -10  -3    0.36    0.12
  -3 -10  -3    0.16    0.10
  -4 -10  -3   14.64    0.62
  -5 -10  -3    2.25    0.23
  -6 -10  -3    1.37    0.19
  15 -11  -3   -0.09    0.15
  14 -11  -3    0.47    0.18
  14 -11  -3    0.22    0.14
  13 -11  -3    4.06    0.30
  13 -11  -3    3.91    0.34
  12 -11  -3    2.01    0.27
  12 -11  -3    2.23    0.24
  11 -11  -3    5.50    0.34
  11 -11  -3    6.32    0.38
  10 -11  -3    8.51    0.45
  10 -11  -3    9.15    0.44
   9 -11  -3   -0.06    0.10
   9 -11  -3    0.00    0.12
   8 -11  -3    0.48    0.15
   8 -11  -3    0.47    0.15
   7 -11  -3    0.86    0.16
   7 -11  -3    1.01    0.17
   6 -11  -3    1.36    0.19
   6 -11  -3    1.46    0.19
   5 -11  -3    0.01    0.12
   4 -11  -3    6.97    0.40
   3 -11  -3   22.08    0.85
   2 -11  -3   26.90    1.00
   1 -11  -3    0.42    0.15
   0 -11  -3    0.09    0.12
  -1 -11  -3    0.83    0.19
  -1 -11  -3    0.66    0.14
  -2 -11  -3    1.21    0.18
  -3 -11  -3   11.78    0.54
  -4 -11  -3    0.95    0.17
  -5 -11  -3    0.08    0.11
  15 -12  -3    1.35    0.26
  14 -12  -3   10.23    0.54
  14 -12  -3    9.78    0.49
  13 -12  -3   15.25    0.65
  13 -12  -3   15.58    0.69
  12 -12  -3    6.60    0.43
  12 -12  -3    7.21    0.41
  11 -12  -3    1.18    0.22
  11 -12  -3    1.13    0.19
  10 -12  -3   -0.19    0.11
  10 -12  -3    0.17    0.13
   9 -12  -3    4.02    0.31
   9 -12  -3    4.18    0.32
   8 -12  -3    5.04    0.36
   8 -12  -3    5.26    0.34
   7 -12  -3    0.12    0.13
   7 -12  -3    0.07    0.13
   6 -12  -3    3.46    0.32
   6 -12  -3    2.65    0.28
   5 -12  -3   13.32    0.61
   4 -12  -3    0.15    0.13
   3 -12  -3   12.78    0.60
   2 -12  -3    0.45    0.17
   1 -12  -3    1.83    0.27
   0 -12  -3    1.80    0.26
   0 -12  -3    2.03    0.23
  -1 -12  -3   11.15    0.54
  -2 -12  -3    4.49    0.32
  -3 -12  -3    0.56    0.15
  -4 -12  -3    2.91    0.27
  15 -13  -3    0.38    0.19
  14 -13  -3   11.45    0.56
  14 -13  -3   11.17    0.59
  13 -13  -3    8.85    0.50
  13 -13  -3    8.26    0.46
  12 -13  -3    0.49    0.16
  12 -13  -3    0.32    0.18
  11 -13  -3   19.26    0.80
  11 -13  -3   18.79    0.78
  10 -13  -3    0.09    0.16
  10 -13  -3    0.26    0.15
   9 -13  -3    1.79    0.26
   9 -13  -3    1.42    0.24
   8 -13  -3    0.72    0.18
   8 -13  -3    0.63    0.20
   7 -13  -3    2.50    0.28
   7 -13  -3    2.53    0.31
   6 -13  -3    2.45    0.29
   5 -13  -3    2.97    0.32
   4 -13  -3    4.12    0.38
   3 -13  -3   -0.30    0.13
   2 -13  -3   16.35    0.74
   1 -13  -3   -0.03    0.17
   0 -13  -3    0.18    0.13
   0 -13  -3    0.52    0.20
  -1 -13  -3    3.47    0.30
  -2 -13  -3    4.66    0.34
  14 -14  -3    2.27    0.29
  14 -14  -3    3.14    0.36
  13 -14  -3    1.40    0.27
  13 -14  -3    1.15    0.22
  12 -14  -3    3.37    0.34
  12 -14  -3    3.10    0.35
  11 -14  -3    4.73    0.37
  11 -14  -3    4.97    0.39
  10 -14  -3   10.03    0.54
  10 -14  -3    9.07    0.52
   9 -14  -3    3.88    0.33
   9 -14  -3    3.40    0.35
   8 -14  -3    0.43    0.18
   8 -14  -3    0.29    0.17
   7 -14  -3    0.17    0.15
   6 -14  -3    2.36    0.31
   5 -14  -3    0.45    0.18
   4 -14  -3    1.58    0.27
   3 -14  -3   -0.10    0.14
   2 -14  -3    7.32    0.51
   1 -14  -3    0.51    0.20
   1 -14  -3    0.56    0.16
   0 -14  -3   -0.01    0.14
   0 -14  -3    0.07    0.12
  -1 -14  -3   13.06    0.67
  13 -15  -3    1.29    0.24
  13 -15  -3    1.34    0.26
  12 -15  -3    0.10    0.16
  12 -15  -3    0.03    0.14
  11 -15  -3    0.66    0.19
  11 -15  -3    0.97    0.24
  10 -15  -3    0.62    0.20
  10 -15  -3    0.90    0.23
   9 -15  -3    0.27    0.17
   9 -15  -3    0.32    0.17
   8 -15  -3   13.93    0.69
   7 -15  -3    1.56    0.28
   6 -15  -3    1.63    0.29
   5 -15  -3    3.75    0.39
   4 -15  -3    1.31    0.26
   3 -15  -3    0.14    0.18
   2 -15  -3    0.36    0.22
   1 -15  -3    3.48    0.37
  11 -16  -3    0.19    0.20
  11 -16  -3    0.55    0.20
  10 -16  -3    0.04    0.18
  10 -16  -3    0.42    0.19
   9 -16  -3    0.88    0.25
   8 -16  -3    1.37    0.29
   7 -16  -3    6.53    0.50
   6 -16  -3    0.20    0.19
   5 -16  -3   -0.10    0.17
   4 -16  -3    0.19    0.19
   4 -17   4    2.99    0.39
   5 -17   4    0.18    0.20
   6 -17   4    0.78    0.24
   6 -17   4    0.39    0.20
   7 -17   4    0.65    0.22
   7 -17   4    0.83    0.24
   8 -17   4    1.39    0.29
   8 -17   4    1.35    0.26
   9 -17   4    0.41    0.21
   9 -17   4    0.32    0.20
  10 -17   4    0.76    0.24
  10 -17   4    0.69    0.24
  11 -17   4    0.11    0.17
   1 -16   4    0.32    0.19
   1 -16   4    0.47    0.13
   2 -16   4    0.34    0.19
   3 -16   4    2.67    0.35
   4 -16   4    0.18    0.19
   5 -16   4    0.24    0.18
   5 -16   4    0.28    0.19
   6 -16   4    9.34    0.56
   6 -16   4    9.30    0.55
   7 -16   4    3.65    0.38
   7 -16   4    3.11    0.35
   8 -16   4   -0.18    0.13
   8 -16   4   -0.01    0.16
   9 -16   4    0.81    0.23
   9 -16   4    0.99    0.25
  10 -16   4    6.32    0.45
  10 -16   4    6.42    0.45
  11 -16   4   -0.16    0.14
  11 -16   4    0.03    0.17
  12 -16   4    2.25    0.31
  12 -16   4    2.23    0.30
  13 -16   4   -0.20    0.16
  -1 -15   4    1.02    0.15
   0 -15   4    0.61    0.20
   0 -15   4    0.54    0.12
   1 -15   4    0.18    0.17
   2 -15   4    2.51    0.33
   3 -15   4    0.11    0.16
   4 -15   4   -0.15    0.15
   5 -15   4    2.44    0.30
   5 -15   4    2.64    0.33
   6 -15   4    2.23    0.29
   6 -15   4    2.25    0.30
   7 -15   4   14.95    0.70
   7 -15   4   15.40    0.72
   8 -15   4    2.37    0.30
   8 -15   4    1.98    0.29
   9 -15   4   11.00    0.60
   9 -15   4   12.39    0.61
  10 -15   4    9.79    0.55
  10 -15   4    9.01    0.53
  11 -15   4    1.44    0.26
  11 -15   4    1.37    0.24
  12 -15   4    1.63    0.25
  12 -15   4    1.95    0.28
  13 -15   4    0.60    0.20
  13 -15   4    0.88    0.23
  14 -15   4    0.74    0.20
  -2 -14   4    2.21    0.19
  -1 -14   4    0.28    0.10
   0 -14   4    9.29    0.55
   0 -14   4    9.41    0.42
   1 -14   4    1.91    0.27
   2 -14   4    0.16    0.15
   3 -14   4    5.76    0.42
   4 -14   4    7.01    0.44
   4 -14   4    7.63    0.46
   5 -14   4    9.69    0.53
   5 -14   4    8.99    0.51
   6 -14   4    0.92    0.21
   6 -14   4    0.68    0.19
   7 -14   4    0.20    0.15
   7 -14   4    0.32    0.17
   8 -14   4    1.76    0.25
   8 -14   4    1.80    0.26
   9 -14   4    3.16    0.32
   9 -14   4    3.35    0.34
  10 -14   4    1.61    0.23
  10 -14   4    1.80    0.26
  11 -14   4    5.31    0.40
  11 -14   4    4.81    0.36
  12 -14   4    0.41    0.16
  12 -14   4    0.41    0.17
  13 -14   4    3.51    0.36
  13 -14   4    3.64    0.35
  14 -14   4    7.37    0.47
  14 -14   4    8.09    0.49
  -4 -13   4    0.29    0.10
  -3 -13   4    2.79    0.20
  -2 -13   4    1.16    0.14
  -1 -13   4    2.07    0.28
  -1 -13   4    2.06    0.18
   0 -13   4    3.69    0.36
   1 -13   4    1.01    0.22
   2 -13   4    9.94    0.53
   3 -13   4    6.13    0.41
   3 -13   4    5.98    0.39
   4 -13   4    0.34    0.15
   4 -13   4    0.57    0.17
   5 -13   4    0.51    0.16
   5 -13   4    1.25    0.22
   6 -13   4   11.13    0.56
   6 -13   4   12.20    0.56
   7 -13   4    3.66    0.30
   7 -13   4    3.69    0.32
   8 -13   4    7.12    0.41
   8 -13   4    6.85    0.40
   9 -13   4    0.45    0.15
   9 -13   4    0.27    0.14
  10 -13   4    0.03    0.13
  10 -13   4    0.06    0.12
  11 -13   4    0.51    0.16
  11 -13   4    0.69    0.17
  12 -13   4    2.10    0.25
  12 -13   4    1.78    0.25
  13 -13   4    0.38    0.18
  13 -13   4    0.30    0.16
  14 -13   4    1.94    0.25
  14 -13   4    1.49    0.25
  15 -13   4    5.71    0.46
  15 -13   4    7.05    0.43
  -5 -12   4    0.16    0.08
  -4 -12   4    0.64    0.11
  -3 -12   4    0.55    0.10
  -2 -12   4    5.60    0.28
  -1 -12   4    1.90    0.15
  -1 -12   4    1.80    0.26
  -1 -12   4    2.04    0.17
   0 -12   4    8.85    0.49
   0 -12   4    8.51    0.35
   1 -12   4    0.01    0.11
   1 -12   4    0.07    0.05
   2 -12   4    0.46    0.08
   2 -12   4    0.47    0.15
   2 -12   4    0.62    0.17
   3 -12   4    5.79    0.26
   3 -12   4    5.27    0.35
   3 -12   4    5.72    0.36
   4 -12   4   27.99    1.02
   4 -12   4   28.21    0.96
   4 -12   4   28.17    1.03
   5 -12   4    3.47    0.32
   5 -12   4    3.41    0.31
   5 -12   4    3.61    0.21
   6 -12   4    8.93    0.45
   6 -12   4    8.91    0.45
   7 -12   4    2.18    0.24
   7 -12   4    2.38    0.25
   8 -12   4    4.11    0.30
   8 -12   4    3.91    0.30
   9 -12   4    1.59    0.21
   9 -12   4    2.17    0.24
  10 -12   4    3.86    0.30
  10 -12   4    3.96    0.30
  11 -12   4    0.07    0.11
  11 -12   4    0.10    0.13
  12 -12   4    1.51    0.22
  12 -12   4    1.36    0.21
  13 -12   4    1.63    0.23
  13 -12   4    1.43    0.23
  14 -12   4    2.42    0.26
  14 -12   4    2.64    0.30
  15 -12   4    5.14    0.39
  15 -12   4    4.84    0.36
  -6 -11   4    0.40    0.10
  -5 -11   4    2.66    0.19
  -4 -11   4    0.99    0.12
  -3 -11   4    3.36    0.21
  -3 -11   4    4.29    0.22
  -2 -11   4    9.32    0.38
  -2 -11   4    9.00    0.37
  -1 -11   4    0.33    0.07
  -1 -11   4    0.47    0.09
  -1 -11   4    0.31    0.16
   0 -11   4   20.98    0.75
   0 -11   4   24.34    0.88
   1 -11   4    1.56    0.12
   1 -11   4    1.23    0.19
   2 -11   4    0.12    0.06
   2 -11   4   -0.07    0.10
   2 -11   4    0.04    0.11
   3 -11   4  102.36    3.11
   3 -11   4  102.21    3.19
   3 -11   4  101.87    3.09
   4 -11   4    2.73    0.26
   4 -11   4    2.92    0.27
   4 -11   4    2.92    0.18
  -5  11  -4   41.86    1.40
   5 -11   4   44.75    1.42
   5 -11   4   43.02    1.41
   5 -11   4   42.21    1.40
  -6  11  -4    0.83    0.11
   6 -11   4    0.65    0.11
   6 -11   4    0.93    0.16
   6 -11   4    0.71    0.16
   7 -11   4    4.19    0.29
   7 -11   4    4.21    0.24
   7 -11   4    3.85    0.29
   8 -11   4   18.34    0.70
   8 -11   4   17.28    0.68
   9 -11   4    0.26    0.13
   9 -11   4    0.28    0.13
  10 -11   4    6.76    0.38
  10 -11   4    7.03    0.39
  11 -11   4    3.68    0.27
  11 -11   4    3.67    0.31
  12 -11   4    2.20    0.25
  12 -11   4    2.17    0.23
  13 -11   4    3.14    0.26
  13 -11   4    3.52    0.33
  14 -11   4    0.07    0.12
  14 -11   4   -0.14    0.12
  15 -11   4   12.31    0.58
  15 -11   4   12.50    0.62
  16 -11   4    0.25    0.15
  -7 -10   4    0.63    0.11
  -6 -10   4    1.83    0.16
  -5 -10   4    0.45    0.09
  -4 -10   4   12.41    0.50
  -4 -10   4   13.70    0.50
  -3 -10   4    0.04    0.06
  -3 -10   4   -0.03    0.06
  -2 -10   4    0.13    0.06
  -2 -10   4    0.13    0.06
  -1 -10   4    0.26    0.06
  -1 -10   4    0.19    0.13
  -1 -10   4    0.29    0.07
   0 -10   4    0.32    0.06
   0 -10   4    0.05    0.10
   1 -10   4    1.25    0.17
   1 -10   4    1.25    0.11
   1 -10   4    1.29    0.19
   2 -10   4    4.45    0.29
   2 -10   4    4.54    0.21
   2 -10   4    5.24    0.30
   3 -10   4    0.12    0.10
   3 -10   4    0.25    0.12
   3 -10   4    0.17    0.06
  -4  10  -4   45.80    1.50
   4 -10   4   47.59    1.51
   4 -10   4   46.97    1.50
   4 -10   4   46.91    1.50
  -5  10  -4    0.53    0.09
   5 -10   4    0.72    0.15
   5 -10   4    0.67    0.09
   5 -10   4    0.68    0.13
  -6  10  -4  144.00    4.37
   6 -10   4  144.08    4.13
   6 -10   4  139.54    4.14
   6 -10   4  133.10    4.37
  -7  10  -4    0.78    0.11
   7 -10   4    0.74    0.11
   7 -10   4    0.72    0.15
   7 -10   4    0.80    0.14
  -8  10  -4    8.05    0.36
   8 -10   4    7.52    0.36
   8 -10   4    7.83    0.38
   8 -10   4    8.42    0.39
  -9  10  -4    7.44    0.36
   9 -10   4    7.17    0.38
   9 -10   4    7.77    0.38
  10 -10   4    4.46    0.28
  10 -10   4    4.50    0.29
  11 -10   4    1.95    0.21
  11 -10   4    1.61    0.21
  12 -10   4   -0.08    0.10
  12 -10   4    0.08    0.12
  13 -10   4    1.40    0.21
  13 -10   4    1.21    0.19
  14 -10   4    4.07    0.31
  14 -10   4    4.92    0.35
  15 -10   4    0.47    0.18
  15 -10   4    0.19    0.14
  16 -10   4    1.30    0.25
  16 -10   4    1.25    0.21
  -8  -9   4   22.57    0.82
  -7  -9   4    2.88    0.20
  -6  -9   4   11.71    0.46
  -5  -9   4    1.41    0.13
  -4  -9   4    1.29    0.12
  -3  -9   4    6.01    0.26
  -2  -9   4    5.14    0.23
  -2  -9   4    5.18    0.23
  -2  -9   4    4.99    0.32
  -1  -9   4    2.15    0.22
  -1  -9   4    2.29    0.13
   0  -9   4    0.95    0.15
   0  -9   4    1.17    0.09
   1  -9   4    3.16    0.24
   1  -9   4    2.88    0.22
   1  -9   4    3.25    0.16
   2  -9   4    7.88    0.37
   2  -9   4    7.62    0.30
   2  -9   4    8.02    0.37
  -3   9  -4    2.24    0.12
   3  -9   4    2.34    0.19
   3  -9   4    2.36    0.20
   3  -9   4    2.35    0.14
  -4   9  -4   13.48    0.48
   4  -9   4   14.06    0.53
   4  -9   4   12.17    0.47
   4  -9   4   13.52    0.52
  -5   9  -4    0.13    0.06
   5  -9   4    0.05    0.08
   5  -9   4    0.10    0.08
   5  -9   4    0.13    0.06
  -6   9  -4   13.93    0.52
   6  -9   4   14.27    0.52
   6  -9   4   14.07    0.54
   6  -9   4   13.95    0.54
  -7   9  -4   15.83    0.59
   7  -9   4   15.39    0.59
   7  -9   4   16.95    0.60
   7  -9   4   16.38    0.61
  -8   9  -4    0.28    0.09
   8  -9   4    0.38    0.09
   8  -9   4    0.32    0.10
   8  -9   4    0.34    0.11
  -9   9  -4   11.97    0.49
   9  -9   4   11.47    0.48
   9  -9   4   12.07    0.50
   9  -9   4   12.10    0.49
 -10   9  -4    1.10    0.15
  10  -9   4    0.99    0.17
  10  -9   4    1.10    0.16
 -11   9  -4    1.38    0.19
  11  -9   4    1.70    0.21
  11  -9   4    1.49    0.18
  12  -9   4    7.88    0.39
  12  -9   4    7.51    0.41
  13  -9   4   -0.08    0.11
  13  -9   4    0.00    0.09
  14  -9   4    0.01    0.13
  14  -9   4   -0.03    0.10
  15  -9   4    0.39    0.18
  15  -9   4    0.06    0.12
  16  -9   4    0.18    0.18
  16  -9   4    0.10    0.13
  -9  -8   4    3.70    0.25
  -8  -8   4   -0.02    0.07
  -7  -8   4    8.89    0.38
  -6  -8   4    1.95    0.16
  -5  -8   4    9.50    0.38
  -4  -8   4    0.59    0.08
  -3  -8   4    0.19    0.06
  -2  -8   4    9.74    0.44
  -2  -8   4    9.22    0.35
  -1  -8   4    1.22    0.16
  -1  -8   4    1.47    0.10
   0  -8   4    0.85    0.08
   0  -8   4    0.92    0.13
   0  -8   4    0.86    0.13
   1  -8   4    2.08    0.17
   1  -8   4    2.02    0.18
   1  -8   4    2.20    0.11
   2  -8   4   12.00    0.42
   2  -8   4   12.71    0.48
   2  -8   4   11.48    0.47
  -3   8  -4   14.86    0.51
   3  -8   4   15.81    0.53
   3  -8   4   15.12    0.56
   3  -8   4   14.94    0.56
  -4   8  -4   21.09    0.70
   4  -8   4   21.02    0.72
   4  -8   4   20.63    0.72
   4  -8   4   20.51    0.70
   4  -8   4   20.56    0.72
  -5   8  -4   40.98    1.35
   5  -8   4   39.58    1.31
   5  -8   4   42.84    1.31
   5  -8   4   45.83    1.32
   5  -8   4   39.22    1.34
  -6   8  -4   14.22    0.51
   6  -8   4   13.94    0.52
   6  -8   4   13.27    0.50
   6  -8   4   13.91    0.51
   6  -8   4   13.04    0.51
  -7   8  -4    2.28    0.16
   7  -8   4    2.24    0.16
   7  -8   4    2.35    0.18
   7  -8   4    2.60    0.19
   7  -8   4    2.21    0.17
  -8   8  -4   13.69    0.55
   8  -8   4   15.63    0.54
   8  -8   4   13.67    0.55
   8  -8   4   14.68    0.55
   8  -8   4   13.80    0.53
  -9   8  -4    7.40    0.35
   9  -8   4    6.76    0.33
   9  -8   4    7.39    0.33
   9  -8   4    7.14    0.36
 -10   8  -4    0.23    0.10
  10  -8   4    0.23    0.11
  10  -8   4    0.19    0.09
  10  -8   4    0.35    0.10
  10  -8   4    0.20    0.09
 -11   8  -4    0.14    0.11
  11  -8   4    0.27    0.14
  11  -8   4    0.28    0.11
 -12   8  -4    2.03    0.23
  12  -8   4    2.09    0.21
  12  -8   4    1.66    0.22
  13  -8   4    4.25    0.28
  13  -8   4    4.32    0.33
  14  -8   4    6.83    0.37
  14  -8   4    6.20    0.40
  15  -8   4    0.00    0.11
  15  -8   4   -0.17    0.11
  16  -8   4   -0.02    0.12
  16  -8   4    0.03    0.15
 -10  -7   4   -0.03    0.08
  -9  -7   4    9.54    0.43
  -8  -7   4   -0.04    0.07
  -7  -7   4    0.05    0.07
  -6  -7   4    6.79    0.30
  -5  -7   4    3.36    0.18
  -4  -7   4    5.14    0.23
  -3  -7   4   54.06    1.70
  -2  -7   4    2.40    0.20
  -2  -7   4    2.11    0.12
  -1  -7   4    2.43    0.19
  -1  -7   4    2.30    0.11
   0  -7   4    9.04    0.38
   0  -7   4    8.45    0.37
   0  -7   4    8.40    0.30
   1  -7   4   28.51    0.92
   1  -7   4   26.98    0.92
   1  -7   4   28.78    0.90
  -2   7  -4    6.50    0.23
   2  -7   4    6.25    0.29
   2  -7   4    6.78    0.30
   2  -7   4    6.80    0.25
   2  -7   4    6.40    0.29
  -3   7  -4    0.78    0.08
   3  -7   4    0.82    0.08
   3  -7   4    0.81    0.11
   3  -7   4    0.93    0.12
   3  -7   4    1.02    0.12
  -4   7  -4    0.38    0.06
   4  -7   4    0.47    0.07
   4  -7   4    0.37    0.09
   4  -7   4    0.34    0.08
   4  -7   4    0.39    0.08
  -5   7  -4    6.93    0.28
   5  -7   4    6.80    0.29
   5  -7   4    7.08    0.30
   5  -7   4    6.43    0.29
   5  -7   4    6.95    0.28
  -6   7  -4   25.88    0.85
   6  -7   4   23.15    0.84
   6  -7   4   25.51    0.82
   6  -7   4   25.09    0.82
   6  -7   4   24.80    0.82
  -7   7  -4   17.97    0.63
   7  -7   4   18.65    0.62
   7  -7   4   15.98    0.60
   7  -7   4   16.99    0.60
   7  -7   4   16.97    0.63
  -8   7  -4    1.46    0.15
   8  -7   4    1.74    0.14
   8  -7   4    1.54    0.16
   8  -7   4    1.72    0.15
   8  -7   4    1.59    0.15
  -9   7  -4   58.26    1.86
   9  -7   4   55.49    1.75
   9  -7   4   59.04    1.74
   9  -7   4   53.11    1.72
 -10   7  -4    4.88    0.29
  10  -7   4    5.53    0.29
  10  -7   4    5.28    0.26
  10  -7   4    5.04    0.30
 -11   7  -4   31.91    1.14
  11  -7   4   33.36    1.04
  11  -7   4   32.54    1.09
  11  -7   4   30.26    1.05
 -12   7  -4    0.18    0.11
  12  -7   4    0.09    0.09
  12  -7   4   -0.03    0.12
 -13   7  -4    1.09    0.18
  13  -7   4    0.95    0.16
  13  -7   4    1.00    0.18
  14  -7   4    0.42    0.16
  14  -7   4    0.49    0.14
  15  -7   4   -0.03    0.12
  15  -7   4    0.10    0.11
  16  -7   4    1.23    0.25
  16  -7   4    0.81    0.17
 -11  -6   4    0.27    0.11
 -10  -6   4    0.82    0.14
  -9  -6   4    3.43    0.23
  -8  -6   4    0.62    0.11
  -7  -6   4   18.88    0.68
  -6  -6   4   11.95    0.45
   5   6  -4    9.48    0.35
  -5  -6   4   10.10    0.37
   4   6  -4    1.24    0.11
  -4  -6   4    1.13    0.10
   3   6  -4   12.82    0.44
  -3  -6   4   12.65    0.44
   2   6  -4   40.82    1.22
  -2  -6   4   39.00    1.26
  -2  -6   4   39.43    1.25
   1   6  -4   13.22    0.46
  -1  -6   4   13.20    0.50
  -1  -6   4   13.64    0.49
   0   6  -4   83.67    2.44
   0  -6   4   80.85    2.54
   0  -6   4   84.12    2.45
   0  -6   4   82.37    2.45
  -1   6  -4   10.84    0.40
  -1   6  -4   11.64    0.41
  -1   6  -4   11.33    0.41
   1  -6   4   11.57    0.37
   1  -6   4   10.51    0.41
   1  -6   4   10.89    0.41
   1  -6   4   11.43    0.41
  -2   6  -4    0.06    0.05
  -2   6  -4    0.01    0.03
  -2   6  -4    0.01    0.05
  -2   6  -4    0.00    0.05
   2  -6   4    0.04    0.06
   2  -6   4   -0.01    0.05
   2  -6   4    0.02    0.03
   2  -6   4   -0.01    0.05
  -3   6  -4    7.40    0.28
  -3   6  -4    7.43    0.27
   3  -6   4    7.01    0.27
   3  -6   4    7.02    0.29
   3  -6   4    7.53    0.30
   3  -6   4    7.22    0.29
  -4   6  -4    2.14    0.13
  -4   6  -4    2.00    0.12
   4  -6   4    2.14    0.13
   4  -6   4    2.46    0.15
   4  -6   4    1.99    0.14
   4  -6   4    2.20    0.14
  -5   6  -4    0.29    0.06
   5  -6   4    0.32    0.08
   5  -6   4    0.19    0.07
   5  -6   4    0.25    0.07
   5  -6   4    0.19    0.05
  -6   6  -4   12.40    0.45
   6  -6   4   11.63    0.43
   6  -6   4   11.39    0.44
   6  -6   4   11.78    0.45
   6  -6   4   12.03    0.43
  -7   6  -4    6.24    0.29
   7  -6   4    6.29    0.29
   7  -6   4    6.88    0.29
   7  -6   4    6.51    0.29
   7  -6   4    6.41    0.27
  -8   6  -4    0.76    0.10
   8  -6   4    0.81    0.10
   8  -6   4    0.79    0.12
   8  -6   4    0.89    0.12
  -9   6  -4    2.92    0.21
   9  -6   4    3.02    0.18
   9  -6   4    2.88    0.20
   9  -6   4    2.92    0.22
 -10   6  -4   27.78    0.99
  10  -6   4   27.86    0.95
  10  -6   4   27.36    0.89
  10  -6   4   27.20    0.92
 -11   6  -4   23.10    0.85
  11  -6   4   23.48    0.83
  11  -6   4   21.89    0.75
  11  -6   4   22.25    0.79
 -12   6  -4   25.75    1.00
  12  -6   4   28.32    0.98
  12  -6   4   27.44    0.93
 -13   6  -4   13.24    0.58
  13  -6   4   12.55    0.53
  13  -6   4   12.41    0.58
 -14   6  -4    1.93    0.23
  14  -6   4    1.83    0.26
  14  -6   4    1.67    0.20
  15  -6   4    0.39    0.17
  15  -6   4    0.38    0.13
  16  -6   4    0.78    0.17
 -12  -5   4    0.25    0.13
 -11  -5   4    9.14    0.44
 -10  -5   4   10.58    0.46
  -9  -5   4    2.71    0.20
  -8  -5   4   35.57    1.20
  -7  -5   4    3.76    0.21
   6   5  -4   19.19    0.60
  -6  -5   4   19.37    0.67
   5   5  -4    0.16    0.05
  -5  -5   4    0.16    0.05
   4   5  -4   47.15    1.41
  -4  -5   4   47.66    1.50
   3   5  -4    6.36    0.24
  -3  -5   4    6.25    0.24
   2   5  -4    0.40    0.06
   2   5  -4    0.42    0.08
  -2  -5   4    0.44    0.05
   1   5  -4   13.23    0.46
   1   5  -4   12.61    0.43
   1   5  -4   12.72    0.44
  -1  -5   4   12.37    0.44
  -1  -5   4   12.96    0.46
  -1  -5   4   12.57    0.46
   0   5  -4   76.51    2.24
   0   5  -4   76.31    2.25
   0   5  -4   78.61    2.25
   0  -5   4   78.58    2.26
   0  -5   4   78.42    2.26
   0  -5   4   71.12    2.35
   0  -5   4   77.23    2.26
  -1   5  -4  214.39    5.98
  -1   5  -4  205.61    5.99
  -1   5  -4  209.64    6.04
   1  -5   4  216.56    6.05
   1  -5   4  207.44    5.98
   1  -5   4  191.52    6.44
   1  -5   4  219.91    6.00
  -2   5  -4    2.68    0.14
  -2   5  -4    2.61    0.11
  -2   5  -4    2.81    0.14
  -2   5  -4    2.83    0.14
   2  -5   4    2.77    0.15
   2  -5   4    2.53    0.15
   2  -5   4    2.40    0.14
   2  -5   4    2.56    0.12
  -3   5  -4    5.35    0.21
  -3   5  -4    5.53    0.22
   3  -5   4    5.84    0.23
   3  -5   4    5.86    0.22
   3  -5   4    5.21    0.23
  -4   5  -4    7.39    0.27
  -4   5  -4    5.89    0.26
  -4   5  -4    7.29    0.27
  -4   5  -4    6.51    0.26
   4  -5   4    6.88    0.27
   4  -5   4    7.56    0.27
   4  -5   4    6.72    0.27
   4  -5   4    6.63    0.27
  -5   5  -4   10.20    0.38
  -5   5  -4    9.33    0.36
  -5   5  -4    9.29    0.34
   5  -5   4    9.44    0.35
   5  -5   4    9.10    0.34
   5  -5   4   10.61    0.37
   5  -5   4    9.25    0.36
  -6   5  -4    0.08    0.06
   6  -5   4    0.14    0.06
   6  -5   4    0.05    0.06
   6  -5   4    0.07    0.05
   6  -5   4    0.08    0.05
  -7   5  -4   34.50    1.17
   7  -5   4   34.68    1.08
   7  -5   4   37.51    1.18
   7  -5   4   34.64    1.11
   7  -5   4   34.39    1.09
  -8   5  -4   35.03    1.20
   8  -5   4   35.82    1.12
   8  -5   4   35.74    1.10
   8  -5   4   36.41    1.14
  -9   5  -4    8.13    0.38
   9  -5   4    8.62    0.32
   9  -5   4    8.61    0.36
   9  -5   4    8.58    0.38
 -10   5  -4    1.98    0.19
  10  -5   4    1.62    0.13
  10  -5   4    1.31    0.17
  10  -5   4    1.74    0.17
 -11   5  -4   39.84    1.40
  11  -5   4   40.01    1.25
  11  -5   4   40.93    1.34
  11  -5   4   42.18    1.31
 -12   5  -4    0.44    0.12
  12  -5   4    0.30    0.14
  12  -5   4    0.50    0.13
 -13   5  -4   13.99    0.62
  13  -5   4   13.75    0.56
  13  -5   4   14.00    0.61
 -14   5  -4    0.61    0.16
  14  -5   4    0.64    0.14
  14  -5   4    0.74    0.19
  15  -5   4    4.35    0.35
  15  -5   4    4.03    0.29
 -12  -4   4   -0.17    0.08
  11   4  -4    1.20    0.17
 -11  -4   4    1.08    0.16
 -10  -4   4    5.41    0.30
  -9  -4   4    1.12    0.14
  -8  -4   4    6.47    0.31
  -7  -4   4   22.69    0.79
   6   4  -4    1.94    0.10
  -6  -4   4    1.87    0.13
   5   4  -4    9.93    0.32
  -5  -4   4    9.10    0.35
   4   4  -4    7.09    0.25
   4   4  -4    7.19    0.30
  -4  -4   4    7.25    0.27
   3   4  -4    3.36    0.14
   3   4  -4    3.30    0.17
  -3  -4   4    3.50    0.14
   2   4  -4    1.76    0.13
   2   4  -4    1.80    0.10
   2   4  -4    1.81    0.12
  -2  -4   4    1.74    0.08
  -2  -4   4    1.70    0.11
   1   4  -4   19.63    0.63
   1   4  -4   19.43    0.61
   1   4  -4   19.93    0.62
  -1  -4   4   19.24    0.61
  -1  -4   4   19.06    0.63
  -1  -4   4   19.45    0.62
   0   4  -4  200.30    5.63
   0   4  -4  198.63    5.64
   0   4  -4  203.39    5.68
   0  -4   4  195.63    5.75
   0  -4   4  187.38    5.64
   0  -4   4  198.16    5.63
  -1   4  -4   38.73    1.17
  -1   4  -4   38.56    1.16
  -1   4  -4   38.26    1.20
  -1   4  -4   39.96    1.16
   1  -4   4   39.47    1.17
   1  -4   4   39.10    1.21
   1  -4   4   38.92    1.16
   1  -4   4   39.38    1.17
  -2   4  -4  129.57    3.60
  -2   4  -4  125.93    3.89
  -2   4  -4  126.51    3.61
   2  -4   4  135.90    3.93
   2  -4   4  123.38    3.65
   2  -4   4  113.85    3.61
   2  -4   4  124.10    3.60
  -3   4  -4   18.50    0.65
  -3   4  -4   20.06    0.62
   3  -4   4   19.98    0.65
   3  -4   4   19.83    0.62
   3  -4   4   19.88    0.62
   3  -4   4   20.21    0.62
  -4   4  -4  149.44    4.51
  -4   4  -4  144.59    4.19
   4  -4   4  146.02    4.20
   4  -4   4  156.51    4.21
   4  -4   4  142.10    4.51
   4  -4   4  138.79    4.23
  -5   4  -4    0.84    0.09
  -5   4  -4    0.85    0.09
   5  -4   4    0.70    0.09
   5  -4   4    0.78    0.09
   5  -4   4    0.91    0.08
  -6   4  -4   19.77    0.69
   6  -4   4   20.18    0.63
   6  -4   4   19.44    0.65
   6  -4   4   20.75    0.70
   6  -4   4   19.31    0.66
  -7   4  -4    7.41    0.32
   7  -4   4    7.40    0.32
   7  -4   4    7.45    0.28
   7  -4   4    7.30    0.32
   7  -4   4    7.26    0.30
  -8   4  -4    4.82    0.25
   8  -4   4    4.43    0.22
   8  -4   4    4.44    0.24
   8  -4   4    4.65    0.20
  -9   4  -4   14.12    0.57
   9  -4   4   14.49    0.53
   9  -4   4   14.88    0.56
   9  -4   4   14.62    0.49
 -10   4  -4    1.70    0.17
  10  -4   4    1.77    0.20
  10  -4   4    1.75    0.12
  10  -4   4    1.66    0.16
 -11   4  -4    0.64    0.13
  11  -4   4    0.57    0.08
  11  -4   4    0.58    0.15
  11  -4   4    0.53    0.12
 -12   4  -4    3.85    0.28
  12  -4   4    3.72    0.28
  12  -4   4    3.25    0.24
 -13   4  -4    7.63    0.42
  13  -4   4    7.25    0.42
  13  -4   4    7.21    0.37
 -14   4  -4    1.39    0.21
  14  -4   4    0.95    0.19
  14  -4   4    1.29    0.18
 -15   4  -4    0.54    0.16
  15  -4   4    0.45    0.17
  15  -4   4    0.51    0.15
 -13  -3   4    0.29    0.13
 -12  -3   4   -0.12    0.09
  11   3  -4    0.05    0.09
 -11  -3   4   -0.04    0.08
  10   3  -4   14.02    0.53
 -10  -3   4   13.11    0.55
  -9  -3   4    1.07    0.13
  -8  -3   4   32.71    1.10
  -7  -3   4    0.55    0.09
  -6  -3   4    0.68    0.08
  -5  -3   4    1.95    0.12
   4   3  -4   32.11    0.95
   4   3  -4   31.40    0.99
  -4  -3   4   32.54    1.02
   3   3  -4    0.00    0.03
   3   3  -4   -0.04    0.02
   3   3  -4    0.03    0.04
   3   3  -4   -0.05    0.04
  -3  -3   4    0.03    0.03
  -3  -3   4    0.00    0.02
   2   3  -4   30.75    0.92
   2   3  -4   30.84    0.93
   2   3  -4   31.12    0.95
  -2  -3   4   30.97    0.92
  -2  -3   4   30.32    0.96
   1   3  -4   19.95    0.60
   1   3  -4   19.54    0.61
   1   3  -4   19.74    0.60
  -1  -3   4   20.03    0.61
  -1  -3   4   19.11    0.61
  -1  -3   4   19.51    0.61
   0   3  -4  285.86    8.25
   0   3  -4  285.11    8.10
   0   3  -4  288.38    8.23
   0  -3   4  282.06    8.71
   0  -3   4  285.16    8.31
   0  -3   4  280.95    8.20
   0  -3   4  285.11    8.21
  -1   3  -4  262.00    8.04
  -1   3  -4  273.72    7.97
  -1   3  -4  276.08    8.61
  -1   3  -4  289.48    8.16
   1  -3   4  285.86    8.21
   1  -3   4  279.33    8.64
   1  -3   4  284.63    8.00
   1  -3   4  289.64    8.14
  -2   3  -4  116.54    3.30
  -2   3  -4  117.30    3.55
  -2   3  -4  116.39    3.32
   2  -3   4  112.92    3.56
   2  -3   4  116.94    3.32
   2  -3   4  114.04    3.35
   2  -3   4  115.38    3.30
  -3   3  -4  504.81   15.04
  -3   3  -4  483.96   13.87
   3  -3   4  458.64   14.03
   3  -3   4  493.80   13.96
   3  -3   4  473.43   15.03
   3  -3   4  495.95   14.05
  -4   3  -4   10.03    0.35
   4  -3   4    9.23    0.33
   4  -3   4    9.41    0.32
   4  -3   4    9.60    0.33
   4  -3   4    8.46    0.34
  -5   3  -4   29.64    1.00
  -5   3  -4   30.17    0.94
   5  -3   4   31.59    1.01
   5  -3   4   29.86    0.93
   5  -3   4   30.82    0.92
   5  -3   4   30.43    0.94
  -6   3  -4   90.95    2.79
   6  -3   4   84.15    2.59
   6  -3   4   89.58    2.60
   6  -3   4   90.08    2.59
  -7   3  -4   12.39    0.46
   7  -3   4   11.02    0.43
   7  -3   4   11.65    0.39
   7  -3   4   11.41    0.46
   7  -3   4   11.06    0.42
  -8   3  -4    0.99    0.12
   8  -3   4    1.14    0.09
   8  -3   4    1.26    0.13
  -9   3  -4    0.27    0.09
   9  -3   4    0.39    0.06
   9  -3   4    0.22    0.08
 -10   3  -4    0.09    0.09
  10  -3   4    0.01    0.05
  10  -3   4    0.05    0.08
 -11   3  -4    6.26    0.34
  11  -3   4    6.27    0.35
  11  -3   4    5.62    0.31
 -12   3  -4    0.16    0.11
  12  -3   4    0.28    0.14
  12  -3   4    0.20    0.10
 -13   3  -4    1.75    0.21
  13  -3   4    1.90    0.21
  13  -3   4    1.44    0.21
 -14   3  -4    2.63    0.27
  14  -3   4    2.84    0.27
  14  -3   4    3.01    0.31
 -15   3  -4    0.84    0.20
  15  -3   4    1.46    0.24
  15  -3   4    1.27    0.19
 -13  -2   4    0.07    0.10
 -12  -2   4    0.11    0.10
  11   2  -4    0.13    0.08
 -11  -2   4   -0.07    0.08
  10   2  -4    0.13    0.08
 -10  -2   4    0.28    0.10
   9   2  -4    9.93    0.40
  -9  -2   4   10.82    0.44
  -8  -2   4   36.25    1.21
  -7  -2   4    6.81    0.29
  -6  -2   4   73.49    2.31
  -5  -2   4   58.64    1.85
  -4  -2   4    4.53    0.18
   3   2  -4    2.48    0.12
   3   2  -4    2.26    0.10
  -3  -2   4    2.44    0.10
  -3  -2   4    2.46    0.11
   2   2  -4   19.94    0.60
   2   2  -4   19.91    0.62
   2   2  -4   20.21    0.62
  -2  -2   4   19.84    0.60
  -2  -2   4   19.76    0.63
   1   2  -4  106.06    3.00
   1   2  -4  105.50    3.00
  -1  -2   4  105.19    3.03
  -1  -2   4  106.09    3.00
  -1  -2   4  102.54    3.25
   0   2  -4    1.52    0.07
   0   2  -4    1.49    0.08
   0   2  -4    1.46    0.07
   0   2  -4    1.47    0.06
   0  -2   4    1.53    0.08
   0  -2   4    1.69    0.08
   0  -2   4    1.43    0.07
   0  -2   4    1.52    0.08
  -1   2  -4  187.78    5.26
  -1   2  -4  184.40    5.63
  -1   2  -4  196.95    5.22
   1  -2   4  182.90    5.61
   1  -2   4  164.24    5.18
   1  -2   4  177.04    5.20
  -2   2  -4   80.89    2.58
  -2   2  -4   90.26    2.41
   2  -2   4   88.91    2.41
   2  -2   4   85.38    2.40
   2  -2   4   72.67    2.58
  -3   2  -4  237.41    6.89
   3  -2   4  222.91    6.30
   3  -2   4  203.23    6.79
   3  -2   4  222.42    6.40
  -4   2  -4   35.16    1.16
   4  -2   4   35.18    1.16
   4  -2   4   37.53    1.08
  -5   2  -4  173.82    4.89
  -5   2  -4  160.32    4.54
   5  -2   4  145.30    4.88
   5  -2   4  151.47    4.53
  -6   2  -4   92.94    2.95
   6  -2   4   99.29    2.75
   6  -2   4   89.68    2.96
  -7   2  -4   16.74    0.58
   7  -2   4   15.15    0.54
   7  -2   4   14.72    0.49
  -8   2  -4    0.69    0.10
   8  -2   4    0.76    0.10
   8  -2   4    0.73    0.07
  -9   2  -4   21.34    0.78
   9  -2   4   20.10    0.72
   9  -2   4   21.31    0.65
 -10   2  -4   38.61    1.34
  10  -2   4   38.50    1.25
  10  -2   4   40.02    1.17
 -11   2  -4   29.44    1.08
  11  -2   4   30.39    1.01
 -12   2  -4    1.44    0.18
  12  -2   4    1.33    0.17
 -13   2  -4    3.12    0.27
  13  -2   4    2.98    0.25
 -14   2  -4    1.29    0.20
  14  -2   4    1.39    0.22
  14  -2   4    1.08    0.18
 -14  -1   4    0.44    0.15
 -13  -1   4    0.58    0.15
 -12  -1   4    7.14    0.38
  11   1  -4    3.15    0.20
 -11  -1   4    3.13    0.24
  10   1  -4    4.99    0.25
 -10  -1   4    5.52    0.29
   9   1  -4    5.87    0.26
  -9  -1   4    5.63    0.29
   8   1  -4    1.57    0.12
  -8  -1   4    1.51    0.14
   7   1  -4    0.16    0.05
  -7  -1   4    0.07    0.06
  -6  -1   4   16.42    0.58
  -5  -1   4   24.76    0.82
  -4  -1   4    1.25    0.08
  -4  -1   4    1.16    0.05
  -3  -1   4   11.42    0.34
  -3  -1   4   11.14    0.38
   2   1  -4   70.18    1.97
   2   1  -4   69.82    2.13
  -2  -1   4   67.23    2.13
   1   1  -4   98.92    2.86
  -1  -1   4  101.68    2.87
  -1  -1   4  100.61    3.13
   0   1  -4    1.68    0.08
   0   1  -4    1.55    0.09
   0   1  -4    1.62    0.06
   0  -1   4    1.68    0.09
   0  -1   4    1.71    0.08
   0  -1   4    1.65    0.06
   0  -1   4    1.72    0.10
  -1   1  -4  219.55    6.69
  -1   1  -4  205.48    6.20
   1  -1   4  222.09    6.67
   1  -1   4  219.14    6.30
  -2   1  -4   39.15    1.16
  -2   1  -4   40.06    1.25
   2  -1   4   40.85    1.25
   2  -1   4   37.26    1.16
  -3   1  -4    9.84    0.36
   3  -1   4    9.46    0.36
   3  -1   4    9.68    0.33
  -4   1  -4   11.60    0.43
   4  -1   4   12.08    0.41
   4  -1   4   12.30    0.44
  -5   1  -4  102.35    3.16
   5  -1   4   98.66    3.17
   5  -1   4  102.39    2.95
  -6   1  -4    0.38    0.08
   6  -1   4    0.37    0.08
  -7   1  -4   31.06    1.04
   7  -1   4   30.30    0.98
  -8   1  -4   19.93    0.72
   8  -1   4   19.30    0.67
  -9   1  -4   97.51    3.13
   9  -1   4   96.87    2.85
   9  -1   4  100.26    2.92
 -10   1  -4    1.29    0.16
  10  -1   4    1.40    0.17
  10  -1   4    1.55    0.10
 -11   1  -4   17.28    0.69
  11  -1   4   16.38    0.64
 -12   1  -4    2.59    0.26
  12  -1   4    2.65    0.23
 -13   1  -4    0.74    0.16
  13  -1   4    0.96    0.17
 -14   1  -4   18.59    0.80
  14  -1   4   18.64    0.74
 -14   0   4    0.87    0.18
 -13   0   4    0.07    0.11
  12   0  -4    0.17    0.08
 -12   0   4    0.28    0.11
  11   0  -4    0.24    0.08
 -11   0   4    0.13    0.09
  10   0  -4   22.46    0.74
 -10   0   4   23.17    0.83
   9   0  -4   18.24    0.61
  -9   0   4   18.94    0.69
   8   0  -4    6.46    0.26
  -8   0   4    6.68    0.30
   7   0  -4    4.13    0.17
  -7   0   4    3.64    0.20
   6   0  -4   24.27    0.74
  -6   0   4   24.54    0.82
   5   0  -4   78.43    2.30
   5   0  -4   81.69    2.51
  -5   0   4   80.18    2.50
   4   0  -4    0.12    0.02
   4   0  -4    0.01    0.02
  -4   0   4    0.26    0.05
   3   0  -4   82.38    2.58
   3   0  -4   84.52    2.37
  -3   0   4   83.73    2.59
   2   0  -4   37.15    1.16
  -2   0   4   36.33    1.16
   1   0  -4   40.44    1.26
   1   0  -4   38.16    1.14
  -1   0   4   40.93    1.14
  -1   0   4   41.21    1.26
  -1   0   4   39.70    1.15
   0   0  -4   46.86    1.44
   0   0  -4   46.08    1.44
   0   0   4   45.02    1.44
   0   0   4   45.26    1.31
  -1   0  -4  300.68    9.13
   1   0   4  286.39    8.98
  -2   0  -4  228.84    7.34
   2   0   4  249.51    7.35
  -3   0  -4    2.08    0.13
   3   0   4    1.84    0.12
   4   0   4    9.86    0.38
  -5   0  -4    0.07    0.06
   5   0   4   -0.03    0.06
  -6   0  -4    0.05    0.05
   6   0   4    0.05    0.06
  -7   0  -4    3.79    0.22
   7   0   4    4.03    0.22
  -8   0  -4    0.49    0.10
   8   0   4    0.58    0.11
  -9   0  -4   12.39    0.51
   9   0   4   11.68    0.48
 -10   0  -4    0.30    0.11
  10   0   4    0.45    0.12
 -11   0  -4    0.64    0.14
  11   0   4    0.89    0.15
 -12   0  -4    2.90    0.26
  12   0   4    2.30    0.23
 -13   0  -4    1.43    0.20
  13   0   4    1.20    0.19
 -14   0  -4   10.15    0.54
  14   0   4   10.02    0.50
  15  -1  -4    0.33    0.16
 -15   1   4    0.48    0.16
  14  -1  -4    0.04    0.12
 -14   1   4   -0.08    0.11
  13  -1  -4    2.05    0.24
 -13   1   4    2.24    0.24
  12  -1  -4   11.82    0.45
 -12   1   4   11.98    0.53
  11  -1  -4    2.51    0.16
 -11   1   4    2.32    0.21
  10  -1  -4    3.21    0.18
 -10   1   4    3.56    0.23
   9  -1  -4    7.13    0.28
  -9   1   4    7.58    0.34
   8  -1  -4   23.41    0.73
  -8   1   4   23.50    0.82
   7  -1  -4   78.01    2.26
  -7   1   4   78.40    2.48
   6  -1  -4    0.18    0.04
  -6   1   4    0.07    0.05
  -6   1   4    0.15    0.02
   5  -1  -4   75.36    2.16
   5  -1  -4   71.87    2.35
  -5   1   4   79.04    2.37
   4  -1  -4    4.39    0.18
   4  -1  -4    4.37    0.14
  -4   1   4    4.23    0.19
  -4   1   4    4.48    0.15
   3  -1  -4   74.57    2.07
   3  -1  -4   71.50    2.09
   3  -1  -4   69.02    2.26
  -3   1   4   72.40    2.07
  -3   1   4   76.32    2.27
   2  -1  -4    0.57    0.05
   2  -1  -4    0.69    0.07
  -2   1   4    0.67    0.07
  -2   1   4    0.56    0.05
  -2   1   4    0.72    0.06
   1  -1  -4    5.42    0.23
   1  -1  -4    6.28    0.20
  -1   1   4    6.16    0.24
  -1   1   4    6.18    0.20
   0  -1  -4    3.63    0.17
   0  -1  -4    3.49    0.14
   0   1   4    3.72    0.14
  -1  -1  -4    5.09    0.22
   1   1   4    4.92    0.20
  -2  -1  -4   35.21    1.14
   2   1   4   34.91    1.14
  -3  -1  -4   76.07    2.40
  -4  -1  -4   22.94    0.80
   4   1   4   23.75    0.81
  -5  -1  -4    3.50    0.20
  -6  -1  -4    1.06    0.12
  -7  -1  -4    0.00    0.06
   7   1   4   -0.04    0.07
  -8  -1  -4    5.44    0.29
   8   1   4    5.34    0.29
  -9  -1  -4    8.07    0.38
   9   1   4    7.39    0.36
 -10  -1  -4    2.14    0.21
  10   1   4    1.79    0.20
 -11  -1  -4    2.25    0.23
  11   1   4    1.92    0.22
 -12  -1  -4    0.78    0.16
  12   1   4    0.94    0.17
 -13  -1  -4   10.67    0.53
  13   1   4    9.43    0.49
  15  -2  -4    1.81    0.25
 -15   2   4    1.57    0.23
  14  -2  -4   10.91    0.54
 -14   2   4    9.88    0.52
  13  -2  -4    0.18    0.14
 -13   2   4    0.31    0.13
  12  -2  -4    1.73    0.15
  12  -2  -4    1.72    0.21
 -12   2   4    1.52    0.20
  11  -2  -4    7.54    0.39
  11  -2  -4    7.15    0.30
 -11   2   4    7.68    0.38
  10  -2  -4    1.25    0.12
  10  -2  -4    1.02    0.15
 -10   2   4    1.53    0.17
   9  -2  -4    6.05    0.24
   9  -2  -4    5.40    0.29
  -9   2   4    5.96    0.30
   8  -2  -4   16.08    0.58
   8  -2  -4   16.04    0.52
  -8   2   4   16.22    0.60
   7  -2  -4   19.88    0.61
   7  -2  -4   19.96    0.67
  -7   2   4   19.93    0.70
  -7   2   4   19.81    0.60
   6  -2  -4    7.29    0.29
   6  -2  -4    7.67    0.30
   6  -2  -4    7.55    0.25
  -6   2   4    7.44    0.31
  -6   2   4    7.59    0.26
   5  -2  -4   11.35    0.40
   5  -2  -4   11.41    0.36
  -5   2   4   11.75    0.36
  -5   2   4   11.79    0.43
   4  -2  -4   15.23    0.50
   4  -2  -4   15.43    0.47
   4  -2  -4   15.76    0.54
  -4   2   4   15.44    0.50
  -4   2   4   15.64    0.54
  -4   2   4   15.84    0.47
   3  -2  -4    1.14    0.08
   3  -2  -4    1.19    0.09
   3  -2  -4    1.15    0.07
  -3   2   4    1.08    0.08
  -3   2   4    1.19    0.10
  -3   2   4    1.25    0.07
   2  -2  -4   62.82    2.01
   2  -2  -4   63.16    1.85
  -2   2   4   65.07    1.85
  -2   2   4   64.33    2.02
  -2   2   4   66.00    1.86
   1  -2  -4   60.70    1.72
   1  -2  -4   58.71    1.86
  -1   2   4   59.55    1.72
  -1   2   4   57.80    1.86
   0  -2  -4  153.66    5.02
   0  -2  -4  163.73    4.65
   0   2   4  171.00    4.65
  -1  -2  -4  120.05    3.77
  -1  -2  -4  123.95    3.50
   1   2   4  120.26    3.50
  -2  -2  -4   83.62    2.63
  -3  -2  -4   40.01    1.33
   3   2   4   42.49    1.27
   3   2   4   39.86    1.34
  -4  -2  -4    9.60    0.39
  -5  -2  -4   13.86    0.53
  -6  -2  -4    5.26    0.27
  -7  -2  -4    3.78    0.24
  -8  -2  -4   14.19    0.58
  -9  -2  -4    1.96    0.20
   9   2   4    1.70    0.19
 -10  -2  -4    6.46    0.36
  10   2   4    6.11    0.35
 -11  -2  -4    3.54    0.27
  11   2   4    3.15    0.26
 -12  -2  -4    5.24    0.35
  12   2   4    5.61    0.36
 -13  -2  -4    0.21    0.14
  13   2   4    0.39    0.16
  15  -3  -4    1.94    0.25
 -15   3   4    1.70    0.24
  14  -3  -4    6.47    0.39
 -14   3   4    6.10    0.39
  13  -3  -4   13.34    0.59
 -13   3   4   13.48    0.60
  12  -3  -4   16.23    0.56
  12  -3  -4   15.65    0.64
 -12   3   4   15.79    0.66
  11  -3  -4   27.19    0.93
  11  -3  -4   25.48    0.84
 -11   3   4   26.81    0.97
  10  -3  -4    4.81    0.22
  10  -3  -4    5.18    0.28
 -10   3   4    4.69    0.29
   9  -3  -4   14.22    0.47
   9  -3  -4   13.77    0.53
  -9   3   4   14.00    0.55
  -9   3   4   13.59    0.43
   8  -3  -4   18.75    0.59
   8  -3  -4   17.73    0.64
  -8   3   4   18.72    0.57
  -8   3   4   18.99    0.68
   7  -3  -4    8.74    0.30
   7  -3  -4    8.31    0.34
  -7   3   4    9.17    0.30
  -7   3   4    8.74    0.37
  -7   3   4    8.97    0.30
   6  -3  -4   82.95    2.50
   6  -3  -4   78.82    2.32
   6  -3  -4   79.39    2.29
  -6   3   4   75.96    2.50
  -6   3   4   78.54    2.28
   5  -3  -4   14.73    0.46
   5  -3  -4   13.83    0.48
  -5   3   4   14.19    0.48
  -5   3   4   14.98    0.53
  -5   3   4   15.02    0.45
   4  -3  -4    0.81    0.07
   4  -3  -4    0.87    0.09
   4  -3  -4    0.75    0.08
  -4   3   4    0.88    0.07
  -4   3   4    0.89    0.09
   3  -3  -4    3.22    0.14
   3  -3  -4    3.17    0.16
   3  -3  -4    3.03    0.15
  -3   3   4    3.18    0.14
  -3   3   4    3.16    0.17
  -3   3   4    3.24    0.14
   2  -3  -4   20.61    0.63
   2  -3  -4   20.20    0.68
  -2   3   4   20.01    0.69
  -2   3   4   20.27    0.63
  -2   3   4   20.21    0.63
   1  -3  -4    5.32    0.23
   1  -3  -4    5.44    0.22
  -1   3   4    4.83    0.23
  -1   3   4    5.58    0.21
   0  -3  -4    8.59    0.32
   0  -3  -4    8.59    0.31
   0   3   4    6.75    0.29
  -1  -3  -4  109.22    3.48
  -1  -3  -4  109.54    3.23
   1   3   4  114.78    3.23
  -2  -3  -4    0.11    0.06
   2   3   4    0.04    0.06
  -3  -3  -4   49.08    1.60
  -4  -3  -4   60.76    1.96
  -5  -3  -4    1.16    0.14
  -6  -3  -4   47.72    1.59
  -7  -3  -4   23.09    0.85
  -8  -3  -4    0.68    0.13
  -9  -3  -4    0.03    0.09
 -10  -3  -4    1.29    0.18
  10   3   4    1.93    0.22
 -11  -3  -4    0.12    0.11
  11   3   4    0.17    0.13
 -12  -3  -4    4.18    0.32
  12   3   4    4.30    0.31
  16  -4  -4    0.84    0.22
 -16   4   4    0.68    0.18
  15  -4  -4    0.93    0.19
 -15   4   4    0.50    0.16
  14  -4  -4    0.04    0.12
 -14   4   4    0.12    0.11
  13  -4  -4   13.24    0.58
  13  -4  -4   12.05    0.47
 -13   4   4   12.93    0.58
  12  -4  -4    6.78    0.29
  12  -4  -4    6.18    0.36
 -12   4   4    6.88    0.37
  11  -4  -4    7.96    0.38
  11  -4  -4    7.67    0.31
 -11   4   4    7.31    0.39
  10  -4  -4    9.31    0.41
  10  -4  -4    9.00    0.34
 -10   4   4    9.62    0.44
 -10   4   4    9.04    0.31
   9  -4  -4    6.19    0.25
   9  -4  -4    6.55    0.31
  -9   4   4    6.24    0.23
  -9   4   4    5.98    0.25
  -9   4   4    6.59    0.32
   8  -4  -4   85.76    2.59
   8  -4  -4   87.50    2.54
  -8   4   4   87.79    2.78
  -8   4   4   87.77    2.53
   7  -4  -4    4.95    0.25
   7  -4  -4    5.05    0.21
   7  -4  -4    5.56    0.25
  -7   4   4    5.10    0.25
   6  -4  -4    0.80    0.11
   6  -4  -4    0.83    0.08
  -6   4   4    0.81    0.11
  -6   4   4    0.74    0.07
   5  -4  -4    0.31    0.07
   5  -4  -4    0.32    0.07
   5  -4  -4    0.46    0.07
  -5   4   4    0.37    0.05
  -5   4   4    0.47    0.07
  -5   4   4    0.33    0.07
   4  -4  -4    9.37    0.33
   4  -4  -4    9.41    0.34
  -4   4   4    8.85    0.36
  -4   4   4    8.98    0.32
  -4   4   4    9.63    0.33
   3  -4  -4   47.50    1.41
   3  -4  -4   45.94    1.51
   3  -4  -4   48.56    1.41
  -3   4   4   47.48    1.52
  -3   4   4   46.62    1.40
   1  -4  -4  251.81    7.55
   1  -4  -4  248.64    7.01
  -1   4   4  237.95    7.54
  -1   4   4  242.20    7.02
   0  -4  -4   74.30    2.38
   0  -4  -4   73.51    2.23
   0   4   4   78.17    2.23
  -1  -4  -4    7.74    0.34
  -1  -4  -4    7.93    0.33
  -1  -4  -4    7.86    0.33
  -2  -4  -4   90.81    2.88
  -3  -4  -4    0.64    0.10
  -4  -4  -4   96.97    3.08
  -5  -4  -4    4.50    0.26
  -6  -4  -4   48.21    1.61
  -7  -4  -4   26.73    0.97
  -8  -4  -4    3.74    0.26
  -9  -4  -4    0.36    0.12
 -10  -4  -4    5.26    0.33
  10   4   4    4.66    0.33
 -11  -4  -4    5.06    0.35
  11   4   4    5.51    0.37
  16  -5  -4    1.08    0.23
 -16   5   4    1.14    0.22
  15  -5  -4    1.06    0.21
 -15   5   4    0.57    0.16
  14  -5  -4    0.05    0.14
 -14   5   4    0.00    0.11
  13  -5  -4    1.78    0.15
  13  -5  -4    1.59    0.21
 -13   5   4    1.35    0.19
  12  -5  -4    3.74    0.28
  12  -5  -4    3.46    0.20
 -12   5   4    3.93    0.28
  11  -5  -4    3.59    0.26
  11  -5  -4    3.54    0.20
 -11   5   4    4.02    0.28
  10  -5  -4    7.71    0.30
  10  -5  -4    7.17    0.35
 -10   5   4    7.09    0.36
 -10   5   4    7.30    0.27
   9  -5  -4    6.89    0.28
   9  -5  -4    7.25    0.33
  -9   5   4    7.09    0.27
  -9   5   4    7.10    0.34
   8  -5  -4    1.11    0.11
   8  -5  -4    0.68    0.12
  -8   5   4    0.95    0.13
  -8   5   4    0.94    0.09
  -8   5   4    1.01    0.09
   7  -5  -4   43.60    1.37
   7  -5  -4   46.14    1.34
   7  -5  -4   44.48    1.46
  -7   5   4   44.92    1.48
  -7   5   4   45.48    1.36
  -7   5   4   42.85    1.33
   6  -5  -4    5.09    0.25
   6  -5  -4    5.97    0.23
  -6   5   4    5.55    0.22
  -6   5   4    5.02    0.26
   5  -5  -4    1.55    0.13
   5  -5  -4    1.69    0.12
   5  -5  -4    1.71    0.13
  -5   5   4    1.56    0.14
  -5   5   4    1.50    0.10
   4  -5  -4   54.80    1.63
   4  -5  -4   53.47    1.75
   4  -5  -4   53.13    1.63
  -4   5   4   52.73    1.75
  -4   5   4   57.53    1.62
  -4   5   4   55.22    1.62
   3  -5  -4    0.52    0.09
   3  -5  -4    0.50    0.08
   3  -5  -4    0.48    0.09
  -3   5   4    0.61    0.08
  -3   5   4    0.48    0.08
  -3   5   4    0.60    0.09
   2  -5  -4    2.98    0.17
   2  -5  -4    2.75    0.17
  -2   5   4    2.77    0.16
  -2   5   4    2.82    0.17
  -2   5   4    2.96    0.18
   1  -5  -4   12.30    0.47
   1  -5  -4   11.58    0.45
  -1   5   4   12.86    0.47
   0  -5  -4    8.47    0.35
   0  -5  -4    7.81    0.34
  -1  -5  -4   16.20    0.62
  -1  -5  -4   16.38    0.60
  -1  -5  -4   17.16    0.61
  -2  -5  -4    0.36    0.09
  -3  -5  -4   29.47    1.02
  -4  -5  -4    5.29    0.29
  -5  -5  -4   10.54    0.46
  -6  -5  -4    0.51    0.12
  -7  -5  -4   20.11    0.78
  -8  -5  -4    4.62    0.30
  -9  -5  -4    8.95    0.45
 -10  -5  -4    5.49    0.35
 -11  -5  -4    3.85    0.31
  11   5   4    3.74    0.33
  16  -6  -4    0.43    0.17
  15  -6  -4    0.09    0.13
 -15   6   4    0.40    0.14
  14  -6  -4   -0.01    0.14
 -14   6   4    0.09    0.11
  13  -6  -4    0.23    0.14
  13  -6  -4    0.38    0.10
 -13   6   4    0.46    0.14
  12  -6  -4    0.24    0.12
  12  -6  -4    0.12    0.08
 -12   6   4    0.13    0.11
  11  -6  -4   15.02    0.61
  11  -6  -4   15.68    0.54
 -11   6   4   14.81    0.63
  10  -6  -4   22.47    0.80
  10  -6  -4   22.77    0.75
 -10   6   4   23.02    0.86
   9  -6  -4    9.25    0.40
   9  -6  -4    8.96    0.35
  -9   6   4    9.16    0.42
   8  -6  -4   60.07    1.86
   8  -6  -4   54.99    1.71
   8  -6  -4   57.00    1.68
  -8   6   4   50.80    1.82
   7  -6  -4    0.23    0.08
   7  -6  -4    0.09    0.06
   7  -6  -4    0.07    0.05
  -7   6   4    0.14    0.06
   6  -6  -4   15.10    0.54
   6  -6  -4   15.99    0.57
   6  -6  -4   14.55    0.52
  -6   6   4   15.25    0.51
  -6   6   4   14.82    0.58
   5  -6  -4    0.24    0.08
   5  -6  -4    0.29    0.07
   5  -6  -4    0.19    0.06
  -5   6   4    0.24    0.07
   4  -6  -4   16.76    0.58
   4  -6  -4   16.51    0.60
   4  -6  -4   16.55    0.58
  -4   6   4   16.63    0.61
   3  -6  -4    8.00    0.34
   3  -6  -4    8.00    0.34
  -3   6   4    8.18    0.35
   2  -6  -4    9.69    0.40
   2  -6  -4   10.31    0.40
  -2   6   4    9.89    0.40
   1  -6  -4   21.09    0.72
   1  -6  -4   20.38    0.73
   0  -6  -4    0.35    0.10
   0  -6  -4    0.14    0.07
  -1  -6  -4   37.95    1.24
  -1  -6  -4   37.97    1.30
  -1  -6  -4   38.63    1.28
  -2  -6  -4    3.55    0.23
  -2  -6  -4    3.69    0.23
  -3  -6  -4   23.14    0.85
  -4  -6  -4    7.54    0.37
  -5  -6  -4   32.34    1.14
  -6  -6  -4    4.48    0.29
  -7  -6  -4    0.77    0.15
  -8  -6  -4    1.14    0.17
  -9  -6  -4    2.69    0.26
 -10  -6  -4    1.06    0.18
  16  -7  -4    4.19    0.39
  15  -7  -4    0.38    0.16
  14  -7  -4    9.35    0.49
 -14   7   4    9.18    0.49
  13  -7  -4    0.99    0.14
  13  -7  -4    1.04    0.20
 -13   7   4    0.78    0.17
  12  -7  -4    1.06    0.14
  12  -7  -4    1.01    0.18
 -12   7   4    0.67    0.15
  11  -7  -4    5.21    0.31
  11  -7  -4    5.33    0.26
 -11   7   4    4.58    0.30
  10  -7  -4    2.66    0.23
  10  -7  -4    2.50    0.18
 -10   7   4    2.56    0.23
   9  -7  -4   11.14    0.46
   9  -7  -4   11.22    0.43
  -9   7   4   11.15    0.49
   8  -7  -4    2.88    0.18
   8  -7  -4    2.55    0.18
   8  -7  -4    2.42    0.19
  -8   7   4    2.41    0.20
   7  -7  -4    4.36    0.23
   7  -7  -4    4.57    0.25
  -7   7   4    4.05    0.25
   6  -7  -4   23.25    0.79
   6  -7  -4   23.82    0.78
   6  -7  -4   22.82    0.81
  -6   7   4   22.53    0.83
   5  -7  -4   15.70    0.55
   5  -7  -4   14.44    0.56
  -5   7   4   14.95    0.58
   4  -7  -4    7.59    0.32
   4  -7  -4    6.84    0.33
   4  -7  -4    7.14    0.33
  -4   7   4    7.34    0.33
   3  -7  -4   20.40    0.72
   3  -7  -4   20.59    0.74
  -3   7   4   21.59    0.75
   2  -7  -4   35.34    1.14
   2  -7  -4   33.82    1.17
  -2   7   4   35.70    1.18
   1  -7  -4   11.82    0.46
   1  -7  -4   10.41    0.46
   0  -7  -4   11.08    0.46
   0  -7  -4   11.78    0.49
  -1  -7  -4   10.29    0.44
  -1  -7  -4   10.10    0.45
  -1  -7  -4   10.11    0.46
  -2  -7  -4   58.76    1.92
  -2  -7  -4   57.40    1.91
  -3  -7  -4    1.85    0.19
  -3  -7  -4    1.75    0.18
  -4  -7  -4    7.33    0.38
  -5  -7  -4    5.09    0.31
  -6  -7  -4   -0.01    0.09
  -7  -7  -4    5.13    0.33
  -8  -7  -4    3.46    0.28
  -9  -7  -4    3.31    0.29
  16  -8  -4    2.65    0.32
  15  -8  -4    0.05    0.15
  14  -8  -4    4.05    0.33
  13  -8  -4   14.58    0.55
  13  -8  -4   13.98    0.62
 -13   8   4   14.03    0.64
  12  -8  -4    0.57    0.12
  12  -8  -4    0.78    0.17
 -12   8   4    0.54    0.15
  11  -8  -4    8.54    0.37
  11  -8  -4    8.58    0.43
 -11   8   4    8.04    0.43
  10  -8  -4   31.21    1.01
  10  -8  -4   29.82    1.04
 -10   8   4   30.49    1.11
   9  -8  -4    0.55    0.11
   9  -8  -4    0.25    0.10
  -9   8   4    0.22    0.09
   8  -8  -4    8.15    0.38
   8  -8  -4    7.97    0.38
   8  -8  -4    8.50    0.37
  -8   8   4    9.08    0.41
   7  -8  -4    0.39    0.11
   7  -8  -4    0.41    0.10
   7  -8  -4    0.39    0.09
  -7   8   4    0.32    0.10
   6  -8  -4   24.58    0.85
   6  -8  -4   25.12    0.84
   6  -8  -4   25.78    0.88
  -6   8   4   23.18    0.88
   5  -8  -4    1.81    0.19
   5  -8  -4    1.81    0.15
   5  -8  -4    1.47    0.17
  -5   8   4    1.59    0.16
   4  -8  -4    5.61    0.29
   4  -8  -4    5.89    0.28
   4  -8  -4    5.16    0.29
  -4   8   4    5.14    0.28
   3  -8  -4   78.00    2.39
   3  -8  -4   79.12    2.52
  -3   8   4   78.82    2.52
   2  -8  -4   48.87    1.62
   2  -8  -4   49.67    1.57
   1  -8  -4   37.79    1.29
   1  -8  -4   38.72    1.27
   0  -8  -4   21.68    0.82
   0  -8  -4   22.94    0.82
  -1  -8  -4    0.90    0.15
  -1  -8  -4    0.78    0.16
  -1  -8  -4    0.75    0.12
  -2  -8  -4   64.64    2.17
  -2  -8  -4   67.05    2.17
  -3  -8  -4    0.36    0.12
  -4  -8  -4    4.57    0.30
  -5  -8  -4    0.04    0.09
  -6  -8  -4    2.01    0.22
  -7  -8  -4    5.48    0.35
  -8  -8  -4    5.93    0.37
  16  -9  -4    4.57    0.39
  15  -9  -4    4.30    0.36
  14  -9  -4    0.40    0.16
  13  -9  -4    0.67    0.19
  13  -9  -4    0.79    0.14
  12  -9  -4    0.14    0.12
  12  -9  -4    0.02    0.10
  11  -9  -4    0.07    0.10
  11  -9  -4    0.08    0.13
 -11   9   4    0.05    0.10
  10  -9  -4   15.25    0.61
  10  -9  -4   14.56    0.57
 -10   9   4   15.02    0.64
   9  -9  -4   28.49    0.99
   9  -9  -4   29.74    1.02
  -9   9   4   30.82    1.08
   8  -9  -4    0.00    0.03
   8  -9  -4    0.01    0.08
   8  -9  -4   -0.02    0.10
  -8   9   4    0.01    0.08
   7  -9  -4    4.79    0.29
   7  -9  -4    4.81    0.27
   7  -9  -4    5.22    0.31
  -7   9   4    5.28    0.30
   6  -9  -4   12.40    0.52
   6  -9  -4   12.74    0.51
   6  -9  -4   11.99    0.51
  -6   9   4   12.70    0.53
   5  -9  -4   23.28    0.87
   5  -9  -4   24.66    0.87
   5  -9  -4   25.84    0.88
  -5   9   4   24.79    0.89
   4  -9  -4    7.12    0.36
   4  -9  -4    6.30    0.32
  -4   9   4    6.83    0.33
   3  -9  -4    2.91    0.24
   3  -9  -4    2.46    0.19
  -3   9   4    2.30    0.19
   2  -9  -4    0.78    0.17
   2  -9  -4    1.34    0.15
   1  -9  -4    2.51    0.20
   1  -9  -4    2.61    0.26
   0  -9  -4    2.53    0.21
   0  -9  -4    2.81    0.28
  -1  -9  -4    8.15    0.45
  -1  -9  -4    8.61    0.43
  -2  -9  -4    9.61    0.46
  -3  -9  -4    0.08    0.10
  -4  -9  -4    8.55    0.43
  -5  -9  -4    0.74    0.15
  -6  -9  -4    0.91    0.16
  -7  -9  -4    1.56    0.21
  16 -10  -4    0.90    0.21
  15 -10  -4    3.47    0.35
  14 -10  -4    0.13    0.16
  13 -10  -4   12.19    0.52
  13 -10  -4   12.45    0.59
  12 -10  -4    1.13    0.17
  12 -10  -4    0.87    0.19
  11 -10  -4    6.31    0.34
  11 -10  -4    6.34    0.38
  10 -10  -4    1.13    0.17
  10 -10  -4    1.51    0.21
   9 -10  -4    0.43    0.13
   9 -10  -4    0.48    0.13
   8 -10  -4    8.53    0.41
   8 -10  -4    8.55    0.43
  -8  10   4    8.67    0.43
   7 -10  -4    5.19    0.31
   7 -10  -4    4.93    0.31
  -7  10   4    4.96    0.30
   6 -10  -4    2.63    0.23
   6 -10  -4    2.39    0.19
   6 -10  -4    2.47    0.22
  -6  10   4    2.36    0.21
   5 -10  -4    2.01    0.18
   5 -10  -4    1.82    0.21
  -5  10   4    2.01    0.19
   4 -10  -4    0.18    0.13
   4 -10  -4    0.15    0.07
  -4  10   4    0.40    0.10
   3 -10  -4    0.06    0.11
   3 -10  -4    0.08    0.07
   2 -10  -4    3.86    0.25
   2 -10  -4    4.04    0.30
   1 -10  -4    0.58    0.15
   0 -10  -4    0.44    0.16
  -1 -10  -4    7.40    0.41
  -1 -10  -4    7.79    0.45
  -2 -10  -4    0.10    0.11
  -3 -10  -4    0.05    0.10
  -4 -10  -4    0.03    0.10
  -5 -10  -4    1.51    0.20
  -6 -10  -4    1.38    0.20
  15 -11  -4    0.84    0.20
  14 -11  -4    9.34    0.52
  13 -11  -4    2.84    0.30
  13 -11  -4    3.43    0.28
  12 -11  -4    8.06    0.47
  12 -11  -4    9.20    0.45
  11 -11  -4    5.49    0.34
  11 -11  -4    5.22    0.37
  10 -11  -4    4.76    0.33
  10 -11  -4    4.83    0.32
   9 -11  -4    6.29    0.38
   9 -11  -4    5.79    0.35
   8 -11  -4    9.54    0.48
   8 -11  -4   10.03    0.47
   7 -11  -4   15.96    0.66
   7 -11  -4   16.24    0.66
   6 -11  -4    0.34    0.13
   6 -11  -4    0.25    0.12
   5 -11  -4    0.11    0.11
   4 -11  -4    8.92    0.46
   3 -11  -4   11.06    0.54
   2 -11  -4    1.48    0.22
   1 -11  -4    2.51    0.28
   0 -11  -4    9.97    0.53
   0 -11  -4   10.50    0.51
  -1 -11  -4    2.66    0.26
  -1 -11  -4    2.32    0.29
  -2 -11  -4    0.03    0.11
  -3 -11  -4    0.55    0.15
  -4 -11  -4    1.96    0.23
  -5 -11  -4    1.20    0.19
  15 -12  -4    0.24    0.18
  14 -12  -4    1.55    0.26
  13 -12  -4    0.63    0.20
  13 -12  -4    0.50    0.15
  12 -12  -4    1.82    0.25
  12 -12  -4    1.74    0.23
  11 -12  -4    8.88    0.50
  11 -12  -4    9.30    0.47
  10 -12  -4    0.09    0.12
  10 -12  -4   -0.04    0.12
   9 -12  -4    1.13    0.20
   9 -12  -4    1.41    0.21
   8 -12  -4    2.39    0.26
   8 -12  -4    2.42    0.26
   7 -12  -4   13.21    0.60
   7 -12  -4   13.43    0.61
   6 -12  -4    0.03    0.12
   5 -12  -4   22.54    0.89
   4 -12  -4    1.41    0.24
   3 -12  -4    1.39    0.22
   2 -12  -4    0.35    0.16
   1 -12  -4    0.82    0.21
   0 -12  -4    9.40    0.50
   0 -12  -4    9.96    0.56
  -1 -12  -4    7.06    0.42
  -2 -12  -4    1.04    0.18
  -3 -12  -4    6.06    0.39
  13 -13  -4    1.94    0.29
  13 -13  -4    1.95    0.26
  12 -13  -4    0.36    0.15
  12 -13  -4    0.16    0.16
  11 -13  -4    2.21    0.27
  11 -13  -4    2.92    0.33
  10 -13  -4    3.32    0.34
  10 -13  -4    3.93    0.36
   9 -13  -4    0.19    0.14
   9 -13  -4    0.14    0.14
   8 -13  -4    1.05    0.20
   8 -13  -4    1.39    0.24
   7 -13  -4    0.55    0.17
   6 -13  -4   20.11    0.85
   5 -13  -4    8.38    0.50
   4 -13  -4   21.80    0.90
   3 -13  -4    4.41    0.41
   2 -13  -4   14.73    0.71
   1 -13  -4    0.51    0.21
   0 -13  -4    9.19    0.55
   0 -13  -4    9.37    0.51
  -1 -13  -4   -0.09    0.11
  -2 -13  -4    5.83    0.39
  14 -14  -4    1.93    0.29
  13 -14  -4    0.24    0.16
  13 -14  -4   -0.20    0.12
  12 -14  -4    2.53    0.31
  12 -14  -4    2.27    0.28
  11 -14  -4    3.57    0.37
  11 -14  -4    3.83    0.36
  10 -14  -4    2.90    0.32
  10 -14  -4    3.13    0.35
   9 -14  -4    0.11    0.17
   9 -14  -4    0.02    0.15
   8 -14  -4   28.79    1.11
   7 -14  -4    2.51    0.33
   6 -14  -4   -0.10    0.15
   5 -14  -4    1.31    0.25
   4 -14  -4    1.49    0.27
   3 -14  -4    0.81    0.21
   2 -14  -4    7.54    0.51
   1 -14  -4    7.99    0.48
   1 -14  -4    8.28    0.54
   0 -14  -4    4.33    0.36
   0 -14  -4    4.00    0.43
  12 -15  -4    0.36    0.20
  12 -15  -4    0.19    0.16
  11 -15  -4    0.17    0.18
  11 -15  -4   -0.02    0.15
  10 -15  -4    0.36    0.18
  10 -15  -4    0.16    0.17
   9 -15  -4    2.98    0.35
   8 -15  -4    4.17    0.42
   7 -15  -4    0.19    0.18
   6 -15  -4    5.17    0.44
   5 -15  -4    1.62    0.28
   4 -15  -4    0.33    0.19
   3 -15  -4    5.24    0.43
   2 -15  -4    1.92    0.31
  10 -16  -4    2.83    0.37
   9 -16  -4    3.12    0.37
   8 -16  -4    0.96    0.26
   7 -16  -4    0.99    0.27
   6 -16  -4    1.60    0.30
   5 -16  -4    0.34    0.19
   4 -17   5    0.13    0.19
   5 -17   5   -0.16    0.17
   6 -17   5    0.84    0.23
   6 -17   5    1.04    0.25
   7 -17   5    6.08    0.49
   7 -17   5    6.40    0.49
   8 -17   5   14.96    0.76
   8 -17   5   15.26    0.76
   9 -17   5    0.22    0.20
   9 -17   5    0.05    0.17
  10 -17   5    0.06    0.16
  10 -17   5   -0.11    0.14
  11 -17   5    1.61    0.29
  11 -17   5    1.95    0.30
   1 -16   5    0.96    0.14
   1 -16   5    1.04    0.26
   2 -16   5    0.85    0.24
   3 -16   5   12.79    0.67
   4 -16   5    1.18    0.26
   5 -16   5    4.40    0.42
   5 -16   5    3.57    0.38
   6 -16   5    0.90    0.23
   6 -16   5    0.85    0.22
   7 -16   5    1.20    0.24
   7 -16   5    1.54    0.27
   8 -16   5    1.39    0.27
   8 -16   5    1.71    0.29
   9 -16   5    9.18    0.55
   9 -16   5    8.52    0.54
  10 -16   5    1.44    0.26
  10 -16   5    0.74    0.21
  11 -16   5    5.95    0.43
  11 -16   5    5.28    0.43
  12 -16   5    1.57    0.27
  12 -16   5    1.66    0.30
  13 -16   5    0.22    0.18
  -1 -15   5    7.08    0.34
   0 -15   5    0.12    0.19
   0 -15   5    0.30    0.10
   1 -15   5    4.98    0.41
   2 -15   5    0.32    0.20
   3 -15   5    4.50    0.42
   4 -15   5    3.52    0.36
   4 -15   5    5.26    0.41
   5 -15   5    0.27    0.16
   5 -15   5    0.21    0.18
   6 -15   5   22.44    0.91
   6 -15   5   21.32    0.90
   7 -15   5    5.79    0.43
   7 -15   5    5.67    0.41
   8 -15   5    4.60    0.39
   8 -15   5    4.12    0.39
   9 -15   5    0.12    0.15
   9 -15   5    0.20    0.18
  10 -15   5    4.95    0.40
  10 -15   5    3.90    0.37
  11 -15   5    0.17    0.16
  11 -15   5   -0.02    0.15
  12 -15   5    0.80    0.21
  12 -15   5    0.55    0.20
  13 -15   5   -0.01    0.17
  13 -15   5    0.10    0.15
  14 -15   5    1.69    0.27
  -3 -14   5   -0.08    0.07
  -2 -14   5    2.40    0.18
  -1 -14   5    6.15    0.30
   0 -14   5    4.47    0.38
   0 -14   5    4.71    0.27
   1 -14   5    0.03    0.16
   2 -14   5   14.36    0.68
   3 -14   5    1.70    0.27
   3 -14   5    1.84    0.27
   4 -14   5   -0.01    0.13
   4 -14   5    0.04    0.13
   5 -14   5    4.65    0.37
   5 -14   5    4.28    0.35
   6 -14   5   -0.16    0.13
   6 -14   5    0.01    0.13
   7 -14   5   11.22    0.56
   7 -14   5   11.01    0.55
   8 -14   5    3.63    0.34
   8 -14   5    3.30    0.33
   9 -14   5    0.06    0.13
   9 -14   5    0.12    0.14
  10 -14   5   -0.06    0.12
  10 -14   5   -0.14    0.11
  11 -14   5    5.20    0.37
  11 -14   5    4.42    0.34
  12 -14   5    0.00    0.13
  12 -14   5    0.06    0.14
  13 -14   5    4.78    0.37
  13 -14   5    4.64    0.40
  14 -14   5    6.16    0.43
  14 -14   5    5.94    0.42
  -4 -13   5    2.77    0.19
  -3 -13   5    5.24    0.26
  -2 -13   5    4.44    0.24
  -1 -13   5    0.27    0.09
  -1 -13   5    0.34    0.18
   0 -13   5    2.32    0.14
   1 -13   5    0.53    0.17
   1 -13   5    0.60    0.09
   2 -13   5    9.07    0.36
   2 -13   5    8.96    0.49
   3 -13   5    0.73    0.10
   3 -13   5    0.71    0.17
   3 -13   5    0.82    0.19
   4 -13   5   18.13    0.75
   4 -13   5   18.08    0.75
   5 -13   5    3.50    0.30
   5 -13   5    3.31    0.29
   6 -13   5    0.72    0.17
   6 -13   5    0.74    0.17
   7 -13   5   10.33    0.53
   7 -13   5   11.94    0.55
   8 -13   5    4.88    0.35
   8 -13   5    4.24    0.34
   9 -13   5    1.16    0.21
   9 -13   5    0.66    0.18
  10 -13   5    1.46    0.21
  10 -13   5    1.72    0.24
  11 -13   5    0.09    0.14
  11 -13   5    0.20    0.13
  12 -13   5    0.97    0.21
  12 -13   5    0.52    0.16
  13 -13   5    0.37    0.16
  13 -13   5    0.46    0.19
  14 -13   5    6.44    0.43
  14 -13   5    6.14    0.40
  15 -13   5    4.02    0.40
  15 -13   5    3.32    0.33
  -5 -12   5    2.91    0.19
  -4 -12   5    4.93    0.25
  -3 -12   5    0.36    0.08
  -2 -12   5    0.39    0.08
  -2 -12   5    0.52    0.09
  -1 -12   5    5.40    0.26
  -1 -12   5    5.27    0.24
  -1 -12   5    5.74    0.40
   0 -12   5    4.20    0.33
   0 -12   5    4.50    0.21
   1 -12   5    2.23    0.14
   1 -12   5    2.29    0.27
   2 -12   5    4.84    0.23
   2 -12   5    4.91    0.35
   2 -12   5    4.78    0.35
   3 -12   5    2.19    0.26
   3 -12   5    1.77    0.22
   3 -12   5    1.51    0.13
   4 -12   5    9.36    0.46
   4 -12   5    8.37    0.35
   4 -12   5    8.38    0.44
   5 -12   5    9.46    0.39
   5 -12   5    9.50    0.48
   5 -12   5    9.09    0.46
   6 -12   5   22.41    0.83
   6 -12   5   21.26    0.83
   7 -12   5    0.04    0.12
   7 -12   5    0.24    0.14
   8 -12   5   18.40    0.72
   8 -12   5   17.63    0.71
   9 -12   5    3.88    0.29
   9 -12   5    3.90    0.31
  10 -12   5    3.19    0.30
  10 -12   5    3.29    0.28
  11 -12   5   12.10    0.57
  11 -12   5   12.29    0.56
  12 -12   5    0.58    0.17
  12 -12   5    0.73    0.18
  13 -12   5    1.10    0.20
  13 -12   5    0.97    0.19
  14 -12   5    2.87    0.29
  14 -12   5    3.23    0.33
  15 -12   5    0.52    0.17
  15 -12   5    0.74    0.20
  -6 -11   5    4.15    0.23
  -5 -11   5   -0.03    0.06
  -4 -11   5    1.93    0.15
  -3 -11   5    3.01    0.18
  -3 -11   5    2.99    0.18
  -2 -11   5   25.48    0.85
  -2 -11   5   24.48    0.84
  -1 -11   5    4.54    0.22
  -1 -11   5    4.27    0.20
  -1 -11   5    3.96    0.33
   0 -11   5    2.51    0.15
   0 -11   5    2.85    0.28
   1 -11   5    7.45    0.41
   1 -11   5    7.48    0.42
   1 -11   5    7.87    0.30
   2 -11   5    5.53    0.35
   2 -11   5    5.54    0.24
   2 -11   5    5.10    0.34
   3 -11   5   13.72    0.48
   3 -11   5   12.81    0.56
   3 -11   5   12.16    0.55
   4 -11   5   -0.17    0.10
   4 -11   5    0.09    0.13
   4 -11   5   -0.01    0.05
  -5  11  -5   48.10    1.56
   5 -11   5   50.46    1.57
   5 -11   5   48.60    1.57
   5 -11   5   46.95    1.57
  -6  11  -5    8.43    0.35
   6 -11   5    7.88    0.40
   6 -11   5    8.19    0.36
   6 -11   5    8.26    0.42
   7 -11   5    0.22    0.12
   7 -11   5    0.26    0.12
   7 -11   5    0.18    0.08
   8 -11   5    3.30    0.26
   8 -11   5    3.88    0.27
   9 -11   5    0.03    0.11
   9 -11   5    0.03    0.12
  10 -11   5   -0.11    0.08
  10 -11   5    0.06    0.11
  11 -11   5    5.66    0.36
  11 -11   5    6.60    0.37
  12 -11   5    2.84    0.29
  12 -11   5    2.19    0.23
  13 -11   5    0.46    0.17
  13 -11   5    0.27    0.13
  14 -11   5    0.08    0.13
  14 -11   5   -0.15    0.09
  15 -11   5    2.71    0.31
  15 -11   5    2.87    0.30
  -7 -10   5    1.28    0.14
  -6 -10   5    5.37    0.26
  -5 -10   5    5.85    0.27
  -4 -10   5    0.64    0.10
  -4 -10   5    0.69    0.09
  -3 -10   5    0.07    0.06
  -3 -10   5    0.15    0.06
  -2 -10   5    2.69    0.16
  -2 -10   5    2.85    0.16
  -1 -10   5    2.25    0.14
  -1 -10   5    2.83    0.27
  -1 -10   5    2.62    0.15
   0 -10   5   20.24    0.69
   0 -10   5   21.46    0.79
   1 -10   5   30.68    1.06
   1 -10   5   29.68    1.05
   1 -10   5   30.98    0.99
   2 -10   5   60.88    1.88
   2 -10   5   58.20    1.87
   2 -10   5   59.85    1.88
   3 -10   5   69.06    2.15
   3 -10   5   67.54    2.10
   3 -10   5   68.09    2.11
  -4  10  -5    7.86    0.31
   4 -10   5    7.86    0.38
   4 -10   5    8.03    0.38
   4 -10   5    8.02    0.32
  -5  10  -5   35.96    1.21
   5 -10   5   35.40    1.21
   5 -10   5   39.25    1.22
   5 -10   5   37.30    1.21
  -6  10  -5    0.57    0.10
   6 -10   5    0.51    0.13
   6 -10   5    0.48    0.12
   6 -10   5    0.44    0.09
  -7  10  -5   -0.03    0.06
   7 -10   5    0.04    0.06
   7 -10   5   -0.02    0.10
   7 -10   5   -0.01    0.10
  -8  10  -5    0.11    0.07
   8 -10   5    0.11    0.09
   8 -10   5    0.02    0.07
   8 -10   5    0.04    0.09
   9 -10   5    0.32    0.12
   9 -10   5    0.32    0.12
  10 -10   5    3.56    0.28
  10 -10   5    3.20    0.26
  11 -10   5    0.85    0.18
  11 -10   5    0.50    0.13
  12 -10   5    4.24    0.30
  12 -10   5    4.88    0.34
  13 -10   5    0.54    0.17
  13 -10   5    0.42    0.14
  14 -10   5    1.95    0.26
  14 -10   5    1.59    0.22
  15 -10   5    0.05    0.13
  15 -10   5    0.28    0.17
  16 -10   5    0.09    0.13
  -8  -9   5    0.56    0.11
  -7  -9   5   12.47    0.49
  -6  -9   5    0.46    0.09
  -5  -9   5   -0.02    0.05
  -4  -9   5   10.75    0.40
  -3  -9   5    3.00    0.16
  -2  -9   5   28.65    0.99
  -2  -9   5   27.66    0.91
  -2  -9   5   27.13    0.90
  -1  -9   5    0.71    0.07
  -1  -9   5    0.67    0.14
   0  -9   5    2.52    0.22
   0  -9   5    2.43    0.13
   0  -9   5    2.74    0.23
   1  -9   5   44.28    1.41
   1  -9   5   46.73    1.44
   1  -9   5   42.78    1.42
   2  -9   5   69.72    2.10
   2  -9   5   66.87    2.14
   2  -9   5   68.87    2.10
  -3   9  -5    4.35    0.19
   3  -9   5    4.60    0.26
   3  -9   5    4.02    0.25
   3  -9   5    4.36    0.20
  -4   9  -5   54.56    1.72
   4  -9   5   53.22    1.69
   4  -9   5   54.08    1.72
   4  -9   5   53.62    1.68
   4  -9   5   55.30    1.69
  -5   9  -5    1.19    0.11
   5  -9   5    1.23    0.15
   5  -9   5    1.31    0.16
   5  -9   5    1.51    0.12
   5  -9   5    1.24    0.15
  -6   9  -5   53.96    1.68
   6  -9   5   51.49    1.62
   6  -9   5   53.32    1.68
   6  -9   5   51.09    1.61
   6  -9   5   49.79    1.62
  -7   9  -5    0.36    0.08
   7  -9   5    0.40    0.10
   7  -9   5    0.41    0.08
   7  -9   5    0.56    0.12
   7  -9   5    0.26    0.10
  -8   9  -5   30.72    1.07
   8  -9   5   32.49    1.04
   8  -9   5   29.32    1.06
   8  -9   5   31.72    1.03
   8  -9   5   31.28    1.04
  -9   9  -5    0.71    0.12
   9  -9   5    0.62    0.15
   9  -9   5    0.71    0.12
   9  -9   5    0.73    0.13
   9  -9   5    0.74    0.13
 -10   9  -5    0.84    0.14
  10  -9   5    0.72    0.13
  10  -9   5    0.88    0.16
  10  -9   5    0.89    0.14
  11  -9   5   10.21    0.48
  11  -9   5   10.73    0.46
  12  -9   5    1.12    0.17
  12  -9   5    1.28    0.19
  13  -9   5    1.24    0.20
  13  -9   5    1.25    0.18
  14  -9   5    0.43    0.18
  14  -9   5    0.58    0.15
  15  -9   5    4.95    0.34
  15  -9   5    4.49    0.38
  16  -9   5    1.03    0.25
  16  -9   5    0.79    0.18
  -9  -8   5   -0.05    0.08
  -8  -8   5    0.36    0.10
  -7  -8   5    2.61    0.18
  -6  -8   5    8.82    0.36
  -5  -8   5    2.60    0.16
  -4  -8   5   25.03    0.83
  -3  -8   5   16.90    0.57
  -2  -8   5    5.01    0.30
  -2  -8   5    4.77    0.20
  -1  -8   5    3.58    0.15
  -1  -8   5    3.45    0.24
   0  -8   5    4.53    0.26
   0  -8   5    3.84    0.16
   0  -8   5    4.18    0.26
   1  -8   5    2.42    0.19
   1  -8   5    2.62    0.19
   1  -8   5    2.44    0.12
   2  -8   5    7.74    0.35
   2  -8   5    7.21    0.34
   2  -8   5    8.33    0.29
   2  -8   5    7.27    0.33
  -3   8  -5   19.07    0.65
   3  -8   5   19.07    0.68
   3  -8   5   19.30    0.68
   3  -8   5   20.41    0.69
   3  -8   5   20.61    0.66
  -4   8  -5   17.35    0.60
   4  -8   5   17.35    0.61
   4  -8   5   18.20    0.63
   4  -8   5   18.00    0.63
   4  -8   5   18.39    0.63
  -5   8  -5    0.18    0.05
   5  -8   5    0.07    0.08
   5  -8   5    0.07    0.05
   5  -8   5    0.12    0.08
   5  -8   5    0.04    0.08
  -6   8  -5   -0.01    0.05
   6  -8   5    0.01    0.05
   6  -8   5    0.00    0.06
   6  -8   5    0.00    0.06
   6  -8   5    0.14    0.08
  -7   8  -5    1.17    0.13
   7  -8   5    1.10    0.12
   7  -8   5    1.08    0.14
   7  -8   5    0.96    0.13
   7  -8   5    0.83    0.12
  -8   8  -5    3.81    0.23
   8  -8   5    3.82    0.22
   8  -8   5    3.87    0.23
   8  -8   5    3.96    0.25
   8  -8   5    3.73    0.23
  -9   8  -5    4.68    0.27
   9  -8   5    5.28    0.30
   9  -8   5    4.87    0.27
   9  -8   5    4.92    0.26
 -10   8  -5    4.83    0.29
  10  -8   5    5.68    0.33
  10  -8   5    5.15    0.27
  10  -8   5    5.21    0.32
  10  -8   5    5.05    0.29
 -11   8  -5    0.15    0.11
  11  -8   5    0.20    0.11
  11  -8   5    0.35    0.12
  11  -8   5    0.45    0.11
  12  -8   5    0.42    0.15
  12  -8   5    0.43    0.13
  13  -8   5    1.59    0.22
  13  -8   5    1.55    0.19
  14  -8   5   13.00    0.56
  14  -8   5   12.50    0.60
  15  -8   5    6.26    0.37
  15  -8   5    6.01    0.41
  16  -8   5    9.00    0.46
  16  -8   5    8.29    0.51
 -10  -7   5    0.02    0.08
  -9  -7   5    5.86    0.30
  -8  -7   5   11.47    0.47
  -7  -7   5   19.67    0.70
  -6  -7   5   11.05    0.42
  -5  -7   5    9.86    0.37
  -4  -7   5    3.19    0.16
  -3  -7   5    7.87    0.29
  -2  -7   5    0.06    0.07
  -2  -7   5    0.03    0.03
  -1  -7   5   49.81    1.54
  -1  -7   5   48.92    1.53
  -1  -7   5   49.56    1.54
   0  -7   5   16.19    0.58
   0  -7   5   16.55    0.58
   0  -7   5   14.99    0.51
   1  -7   5    4.89    0.24
   1  -7   5    4.89    0.25
   1  -7   5    4.86    0.25
   1  -7   5    5.15    0.19
  -2   7  -5    3.27    0.13
   2  -7   5    3.67    0.15
   2  -7   5    3.49    0.20
   2  -7   5    3.72    0.20
   2  -7   5    3.86    0.21
  -3   7  -5   32.45    1.04
   3  -7   5   31.32    1.03
   3  -7   5   33.79    1.04
   3  -7   5   32.46    1.04
   3  -7   5   33.83    1.05
  -4   7  -5   27.63    0.90
   4  -7   5   27.29    0.88
   4  -7   5   26.94    0.89
   4  -7   5   27.35    0.90
   4  -7   5   28.36    0.89
  -5   7  -5   28.26    0.90
   5  -7   5   27.34    0.91
   5  -7   5   27.18    0.88
   5  -7   5   26.76    0.88
   5  -7   5   26.37    0.88
  -6   7  -5    0.97    0.10
   6  -7   5    0.68    0.10
   6  -7   5    0.83    0.10
   6  -7   5    0.66    0.10
   6  -7   5    0.73    0.09
  -7   7  -5   20.60    0.74
   7  -7   5   19.65    0.70
   7  -7   5   21.23    0.74
   7  -7   5   21.14    0.71
   7  -7   5   21.59    0.72
  -8   7  -5    5.17    0.26
   8  -7   5    4.82    0.25
   8  -7   5    4.94    0.27
   8  -7   5    4.92    0.26
   8  -7   5    4.83    0.24
  -9   7  -5    0.13    0.08
   9  -7   5   -0.06    0.07
   9  -7   5    0.03    0.07
   9  -7   5    0.26    0.10
   9  -7   5    0.37    0.09
 -10   7  -5    1.06    0.15
  10  -7   5    1.22    0.13
  10  -7   5    0.97    0.15
  10  -7   5    1.19    0.15
 -11   7  -5    1.87    0.20
  11  -7   5    1.87    0.22
  11  -7   5    1.86    0.19
  11  -7   5    1.67    0.16
 -12   7  -5    5.01    0.31
  12  -7   5    4.63    0.29
  12  -7   5    4.62    0.25
  12  -7   5    4.78    0.32
  13  -7   5    0.28    0.11
  13  -7   5    0.62    0.17
  14  -7   5    0.26    0.14
  14  -7   5    0.25    0.12
  15  -7   5    1.53    0.23
  15  -7   5    1.26    0.20
  16  -7   5    0.53    0.16
 -11  -6   5    4.89    0.31
 -10  -6   5   -0.05    0.08
  -9  -6   5   -0.04    0.07
  -8  -6   5    4.26    0.24
  -7  -6   5    9.98    0.40
  -6  -6   5   21.20    0.73
   5   6  -5   15.12    0.51
  -5  -6   5   15.60    0.54
   4   6  -5   46.29    1.40
  -4  -6   5   46.58    1.47
   3   6  -5    3.29    0.17
  -3  -6   5    3.63    0.15
   2   6  -5   -0.04    0.04
  -2  -6   5    0.13    0.03
  -2  -6   5    0.10    0.07
   1   6  -5    0.33    0.06
  -1  -6   5    0.38    0.09
  -1  -6   5    0.31    0.07
  -1  -6   5    0.31    0.08
   0   6  -5    0.35    0.07
   0   6  -5    0.41    0.08
   0  -6   5    0.45    0.09
   0  -6   5    0.41    0.08
   0  -6   5    0.50    0.09
   0  -6   5    0.51    0.04
  -1   6  -5   20.52    0.62
  -1   6  -5   18.57    0.61
   1  -6   5   17.67    0.62
   1  -6   5   18.13    0.63
   1  -6   5   18.90    0.60
   1  -6   5   18.51    0.62
  -2   6  -5   50.92    1.50
  -2   6  -5   52.98    1.53
  -2   6  -5   48.45    1.56
   2  -6   5   49.81    1.57
   2  -6   5   49.38    1.51
   2  -6   5   51.04    1.53
   2  -6   5   50.46    1.52
  -3   6  -5   65.38    1.94
  -3   6  -5   66.30    1.84
   3  -6   5   58.16    1.94
   3  -6   5   64.34    1.85
   3  -6   5   60.19    1.85
   3  -6   5   59.57    1.86
  -4   6  -5   13.43    0.46
  -4   6  -5   13.01    0.45
   4  -6   5   12.92    0.46
   4  -6   5   13.10    0.46
   4  -6   5   12.79    0.46
  -5   6  -5   17.26    0.61
   5  -6   5   17.50    0.60
   5  -6   5   17.96    0.60
   5  -6   5   18.73    0.60
   5  -6   5   17.34    0.61
  -6   6  -5   82.23    2.65
   6  -6   5   86.93    2.50
   6  -6   5   81.31    2.48
   6  -6   5   82.34    2.48
   6  -6   5   88.25    2.66
  -7   6  -5   -0.12    0.05
   7  -6   5   -0.07    0.05
   7  -6   5    0.01    0.06
   7  -6   5    0.12    0.06
   7  -6   5    0.00    0.06
  -8   6  -5   31.94    1.10
   8  -6   5   33.55    1.03
   8  -6   5   32.54    1.05
   8  -6   5   31.88    1.04
  -9   6  -5    2.09    0.18
   9  -6   5    1.58    0.16
   9  -6   5    1.81    0.14
   9  -6   5    2.33    0.20
 -10   6  -5   19.42    0.73
  10  -6   5   17.77    0.69
  10  -6   5   19.39    0.68
  10  -6   5   19.52    0.65
 -11   6  -5    0.43    0.12
  11  -6   5    0.43    0.11
  11  -6   5    0.18    0.13
  11  -6   5    0.35    0.09
 -12   6  -5    2.73    0.25
  12  -6   5    2.84    0.23
  12  -6   5    2.60    0.18
  12  -6   5    2.91    0.25
 -13   6  -5    4.09    0.30
  13  -6   5    3.46    0.25
  13  -6   5    4.74    0.33
  14  -6   5    1.55    0.24
  14  -6   5    1.47    0.19
  15  -6   5    0.30    0.17
  15  -6   5    0.03    0.11
 -12  -5   5    0.22    0.12
 -11  -5   5    0.16    0.10
 -10  -5   5    3.97    0.26
  -9  -5   5    0.23    0.08
  -8  -5   5    6.71    0.31
  -7  -5   5   31.46    1.05
   6   5  -5   30.52    0.91
  -6  -5   5   29.81    1.00
   5   5  -5    1.49    0.10
  -5  -5   5    1.53    0.11
   4   5  -5    3.25    0.15
  -4  -5   5    3.20    0.15
   3   5  -5   26.77    0.84
  -3  -5   5   27.61    0.86
   2   5  -5    0.20    0.06
   2   5  -5    0.15    0.05
  -2  -5   5    0.26    0.06
  -2  -5   5    0.21    0.03
   1   5  -5   82.43    2.43
   1   5  -5   82.75    2.44
   1   5  -5   85.61    2.44
  -1  -5   5   80.03    2.44
  -1  -5   5   85.39    2.45
  -1  -5   5   82.62    2.45
   0   5  -5    3.01    0.15
   0   5  -5    2.90    0.15
   0   5  -5    2.90    0.15
   0  -5   5    3.05    0.17
   0  -5   5    2.76    0.15
   0  -5   5    2.99    0.16
  -1   5  -5    4.38    0.19
  -1   5  -5    3.71    0.17
  -1   5  -5    4.19    0.18
   1  -5   5    3.89    0.15
   1  -5   5    4.09    0.19
   1  -5   5    3.85    0.19
  -2   5  -5   13.31    0.44
  -2   5  -5   12.92    0.43
  -2   5  -5   13.24    0.43
  -2   5  -5   13.64    0.44
   2  -5   5   13.06    0.44
   2  -5   5   12.30    0.44
   2  -5   5   12.75    0.44
   2  -5   5   12.56    0.43
  -3   5  -5    0.38    0.07
  -3   5  -5    0.46    0.06
  -3   5  -5    0.31    0.05
  -3   5  -5    0.42    0.07
   3  -5   5    0.40    0.07
   3  -5   5    0.34    0.05
   3  -5   5    0.22    0.06
   3  -5   5    0.47    0.08
  -4   5  -5   40.00    1.17
  -4   5  -5   40.61    1.17
  -4   5  -5   39.92    1.24
   4  -5   5   38.91    1.17
   4  -5   5   38.10    1.17
   4  -5   5   37.59    1.18
   4  -5   5   35.19    1.24
  -5   5  -5    3.72    0.18
   5  -5   5    3.57    0.18
   5  -5   5    3.43    0.17
   5  -5   5    3.72    0.19
   5  -5   5    3.30    0.18
  -6   5  -5    0.97    0.10
   6  -5   5    0.97    0.09
   6  -5   5    1.10    0.11
   6  -5   5    1.12    0.11
   6  -5   5    1.09    0.12
  -7   5  -5    8.29    0.34
   7  -5   5    7.68    0.30
   7  -5   5    8.06    0.33
   7  -5   5    7.79    0.34
   7  -5   5    7.77    0.32
  -8   5  -5    8.44    0.36
   8  -5   5    8.08    0.36
   8  -5   5    8.77    0.38
   8  -5   5    8.26    0.32
   8  -5   5    7.70    0.34
  -9   5  -5    1.57    0.16
   9  -5   5    1.68    0.13
   9  -5   5    1.76    0.16
   9  -5   5    1.28    0.15
 -10   5  -5    7.78    0.38
  10  -5   5    7.75    0.31
  10  -5   5    7.80    0.35
  10  -5   5    7.28    0.37
 -11   5  -5    1.95    0.20
  11  -5   5    2.01    0.22
  11  -5   5    1.53    0.14
  11  -5   5    1.63    0.18
 -12   5  -5    1.08    0.16
  12  -5   5    0.98    0.18
  12  -5   5    1.04    0.15
 -13   5  -5    0.55    0.15
  13  -5   5    0.46    0.15
  13  -5   5    0.56    0.14
 -14   5  -5    0.59    0.16
  14  -5   5    0.63    0.17
  14  -5   5    0.42    0.13
  15  -5   5    0.13    0.15
  15  -5   5    0.21    0.12
 -12  -4   5    0.01    0.09
 -11  -4   5    0.49    0.12
 -10  -4   5    0.87    0.13
  -9  -4   5    3.34    0.22
  -8  -4   5    1.56    0.15
  -7  -4   5    9.25    0.37
  -6  -4   5    0.10    0.05
  -5  -4   5   53.27    1.68
   4   4  -5    0.67    0.09
   4   4  -5    0.66    0.06
  -4  -4   5    0.65    0.06
   3   4  -5    5.64    0.21
   3   4  -5    6.10    0.24
   3   4  -5    5.57    0.26
  -3  -4   5    5.87    0.21
  -3  -4   5    6.00    0.23
   2   4  -5    4.59    0.21
   2   4  -5    4.10    0.17
   2   4  -5    4.25    0.18
  -2  -4   5    4.18    0.18
  -2  -4   5    4.18    0.15
   1   4  -5   30.21    0.92
   1   4  -5   29.72    0.93
   1   4  -5   31.32    0.92
  -1  -4   5   28.98    0.92
  -1  -4   5   30.74    0.93
  -1  -4   5   30.53    0.93
   0   4  -5   29.37    0.87
   0   4  -5   27.96    0.86
   0   4  -5   27.66    0.86
   0  -4   5   29.01    0.87
   0  -4   5   27.73    0.88
   0  -4   5   29.03    0.87
   0  -4   5   29.24    0.87
  -1   4  -5  320.25    9.25
  -1   4  -5  320.92    9.88
  -1   4  -5  311.46    9.27
  -1   4  -5  321.72    9.19
   1  -4   5  325.16    9.36
   1  -4   5  316.99    9.21
   1  -4   5  326.78    9.38
   1  -4   5  332.64    9.93
  -2   4  -5  244.69    6.74
  -2   4  -5  216.86    6.21
  -2   4  -5  204.85    6.23
   2  -4   5  211.56    6.23
   2  -4   5  214.62    6.35
   2  -4   5  224.83    6.22
   2  -4   5  211.24    6.79
  -3   4  -5   69.38    2.27
  -3   4  -5   78.61    2.14
  -3   4  -5   73.35    2.12
   3  -4   5   73.15    2.13
   3  -4   5   71.26    2.14
   3  -4   5   74.71    2.15
   3  -4   5   72.13    2.28
  -4   4  -5    9.96    0.36
  -4   4  -5    9.56    0.37
   4  -4   5   10.32    0.36
   4  -4   5   10.90    0.38
   4  -4   5   10.06    0.36
   4  -4   5   10.57    0.36
  -5   4  -5    9.80    0.38
   5  -4   5   10.42    0.36
   5  -4   5   10.20    0.37
   5  -4   5    9.81    0.36
   5  -4   5   10.21    0.39
  -6   4  -5    4.32    0.21
   6  -4   5    4.22    0.21
   6  -4   5    4.35    0.19
   6  -4   5    4.00    0.20
   6  -4   5    4.04    0.21
  -7   4  -5    9.78    0.40
   7  -4   5    9.70    0.37
   7  -4   5    9.40    0.40
   7  -4   5    9.87    0.35
   7  -4   5    9.61    0.38
  -8   4  -5    0.37    0.08
   8  -4   5    0.52    0.10
   8  -4   5    0.22    0.08
   8  -4   5    0.50    0.07
  -9   4  -5    1.54    0.16
   9  -4   5    1.35    0.11
   9  -4   5    1.55    0.16
   9  -4   5    1.31    0.15
 -10   4  -5    0.40    0.11
  10  -4   5    0.31    0.07
  10  -4   5    0.20    0.11
  10  -4   5    0.17    0.09
 -11   4  -5   -0.02    0.09
  11  -4   5    0.14    0.12
  11  -4   5    0.04    0.05
  11  -4   5   -0.01    0.09
 -12   4  -5    8.54    0.43
  12  -4   5    8.74    0.45
  12  -4   5    8.17    0.40
 -13   4  -5   14.52    0.64
  13  -4   5   14.40    0.59
  13  -4   5   15.58    0.66
 -14   4  -5   -0.06    0.10
  14  -4   5   -0.02    0.10
  14  -4   5    0.05    0.14
 -15   4  -5    0.15    0.13
  15  -4   5    0.32    0.17
  15  -4   5    0.13    0.12
 -13  -3   5    4.02    0.30
 -12  -3   5    0.66    0.14
  11   3  -5    9.28    0.42
 -11  -3   5    9.03    0.43
  10   3  -5    1.52    0.16
 -10  -3   5    1.72    0.18
  -9  -3   5    0.16    0.08
  -8  -3   5   18.00    0.65
  -7  -3   5    6.71    0.29
  -6  -3   5    0.71    0.08
   5   3  -5    6.70    0.27
  -5  -3   5    6.59    0.26
   4   3  -5   -0.06    0.04
  -4  -3   5    0.06    0.04
   3   3  -5   10.12    0.37
   3   3  -5   10.26    0.35
   3   3  -5   10.22    0.33
  -3  -3   5   10.52    0.34
  -3  -3   5    9.79    0.34
   2   3  -5  197.64    5.74
   2   3  -5  200.94    5.73
  -2  -3   5  203.51    6.18
  -2  -3   5  200.80    5.89
  -2  -3   5  201.90    5.74
   1   3  -5    2.35    0.11
   1   3  -5    2.39    0.12
  -1  -3   5    2.35    0.09
  -1  -3   5    2.61    0.12
  -1  -3   5    2.31    0.11
  -1  -3   5    2.38    0.12
   0   3  -5  334.88    9.36
   0   3  -5  341.32    9.45
   0  -3   5  330.30   10.08
   0  -3   5  333.58    9.60
   0  -3   5  306.53    9.45
   0  -3   5  323.90    9.35
  -1   3  -5   61.11    1.77
  -1   3  -5   63.25    1.76
  -1   3  -5   62.61    1.88
   1  -3   5   60.80    1.79
   1  -3   5   61.29    1.76
   1  -3   5   61.50    1.89
   1  -3   5   56.65    1.77
  -2   3  -5    0.03    0.03
  -2   3  -5    0.12    0.04
  -2   3  -5    0.06    0.03
   2  -3   5    0.09    0.04
   2  -3   5    0.07    0.04
   2  -3   5    0.16    0.04
   2  -3   5    0.08    0.05
  -3   3  -5   16.58    0.55
   3  -3   5   16.16    0.56
   3  -3   5   16.35    0.52
   3  -3   5   16.71    0.52
   3  -3   5   16.72    0.53
  -4   3  -5   79.22    2.67
   4  -3   5   86.09    2.68
   4  -3   5   86.81    2.50
   4  -3   5   89.48    2.51
   4  -3   5   87.33    2.49
  -5   3  -5    2.19    0.14
   5  -3   5    2.11    0.14
   5  -3   5    2.21    0.12
   5  -3   5    2.32    0.14
   5  -3   5    2.09    0.15
  -6   3  -5   16.34    0.59
   6  -3   5   17.10    0.56
   6  -3   5   16.18    0.53
   6  -3   5   16.19    0.56
  -7   3  -5   15.68    0.59
   7  -3   5   16.89    0.56
   7  -3   5   15.30    0.52
   7  -3   5   17.06    0.61
  -8   3  -5   19.61    0.72
   8  -3   5   20.70    0.64
   8  -3   5   19.27    0.67
  -9   3  -5    2.50    0.20
   9  -3   5    2.70    0.19
   9  -3   5    2.65    0.14
 -10   3  -5    6.57    0.34
  10  -3   5    6.10    0.24
  10  -3   5    5.89    0.30
 -11   3  -5    9.93    0.46
  11  -3   5   10.22    0.35
  11  -3   5    8.96    0.42
 -12   3  -5   12.57    0.56
  12  -3   5   12.47    0.52
  12  -3   5   11.76    0.55
 -13   3  -5   -0.05    0.10
  13  -3   5    0.09    0.12
  13  -3   5    0.09    0.11
 -14   3  -5    1.07    0.19
  14  -3   5    0.69    0.16
  14  -3   5    1.38    0.23
 -15   3  -5    4.03    0.35
  15  -3   5    3.99    0.30
  15  -3   5    3.98    0.39
 -13  -2   5    3.70    0.29
 -12  -2   5   14.05    0.60
  11   2  -5   -0.02    0.07
 -11  -2   5    0.00    0.08
  10   2  -5    2.08    0.16
 -10  -2   5    1.98    0.19
   9   2  -5    4.72    0.23
  -9  -2   5    4.44    0.26
  -8  -2   5    6.46    0.30
  -7  -2   5   12.22    0.46
  -6  -2   5   15.25    0.54
  -5  -2   5    7.91    0.30
   4   2  -5  101.48    2.91
  -4  -2   5  100.77    2.91
  -4  -2   5  100.26    3.12
   3   2  -5    0.48    0.05
   3   2  -5    0.40    0.04
  -3  -2   5    0.49    0.05
  -3  -2   5    0.41    0.05
   2   2  -5   19.01    0.58
   2   2  -5   18.81    0.59
   2   2  -5   18.77    0.56
  -2  -2   5   18.69    0.57
  -2  -2   5   18.69    0.60
  -2  -2   5   18.31    0.57
   1   2  -5  167.46    5.15
   1   2  -5  163.99    4.78
   1   2  -5  165.94    5.18
   1   2  -5  172.68    4.78
  -1  -2   5  166.48    4.83
  -1  -2   5  172.87    5.19
   0   2  -5   48.23    1.39
   0   2  -5   47.52    1.40
   0   2  -5   49.50    1.51
   0   2  -5   48.94    1.50
   0  -2   5   49.01    1.39
   0  -2   5   49.72    1.41
   0  -2   5   47.27    1.51
   0  -2   5   47.88    1.51
  -1   2  -5    5.38    0.20
  -1   2  -5    5.30    0.19
  -1   2  -5    5.43    0.18
   1  -2   5    5.84    0.21
   1  -2   5    5.15    0.19
   1  -2   5    5.37    0.18
  -2   2  -5   62.05    2.00
  -2   2  -5   62.76    1.86
   2  -2   5   67.67    2.01
   2  -2   5   64.95    1.87
   2  -2   5   63.66    1.85
  -3   2  -5  449.22   14.40
   3  -2   5  443.08   14.20
   3  -2   5  499.36   13.46
  -4   2  -5   40.31    1.32
   4  -2   5   42.23    1.24
   4  -2   5   40.75    1.33
  -5   2  -5    6.88    0.29
   5  -2   5    6.75    0.30
   5  -2   5    7.29    0.28
  -6   2  -5   12.14    0.44
   6  -2   5   10.84    0.44
   6  -2   5   10.65    0.41
  -7   2  -5    0.68    0.10
   7  -2   5    0.65    0.09
  -8   2  -5    0.02    0.07
   8  -2   5    0.07    0.07
  -9   2  -5    4.21    0.26
   9  -2   5    4.55    0.19
   9  -2   5    4.76    0.26
 -10   2  -5    0.39    0.11
  10  -2   5    0.35    0.06
  10  -2   5    0.26    0.09
 -11   2  -5    0.15    0.11
  11  -2   5    0.26    0.11
 -12   2  -5    1.31    0.19
  12  -2   5    1.14    0.17
 -13   2  -5    0.17    0.12
  13  -2   5    0.09    0.11
 -14   2  -5    0.02    0.12
  14  -2   5    0.20    0.13
 -14  -1   5    1.11    0.19
 -13  -1   5    1.51    0.20
 -12  -1   5    0.04    0.10
  11   1  -5   41.11    1.30
 -11  -1   5   43.28    1.45
  10   1  -5   11.70    0.44
 -10  -1   5   12.61    0.51
   9   1  -5   75.80    2.22
  -9  -1   5   74.85    2.42
   8   1  -5   12.86    0.44
  -8  -1   5   13.37    0.51
   7   1  -5   32.10    0.98
  -7  -1   5   32.31    1.07
  -6  -1   5    7.83    0.31
  -5  -1   5    0.78    0.08
  -5  -1   5    0.75    0.04
  -4  -1   5   14.44    0.45
  -4  -1   5   15.94    0.52
   3   1  -5    0.43    0.04
  -3  -1   5    0.51    0.05
   2   1  -5  212.37    6.14
  -2  -1   5  221.54    6.13
  -2  -1   5  211.58    6.68
   1   1  -5   85.47    2.46
  -1  -1   5   86.30    2.66
  -1  -1   5   87.15    2.46
   0   1  -5   59.23    1.76
   0   1  -5   60.98    1.91
   0   1  -5   63.02    1.91
   0  -1   5   60.75    1.76
   0  -1   5   63.65    1.92
   0  -1   5   60.73    1.91
  -1   1  -5   30.05    0.88
  -1   1  -5   30.38    0.95
   1  -1   5   29.51    0.88
   1  -1   5   28.41    0.95
  -2   1  -5   99.75    3.27
   2  -1   5  106.79    3.04
   2  -1   5  110.23    3.28
  -3   1  -5   53.12    1.61
   3  -1   5   50.80    1.62
   3  -1   5   47.79    1.49
  -4   1  -5    9.28    0.34
   4  -1   5    8.24    0.34
   4  -1   5    7.96    0.31
  -5   1  -5   33.06    1.13
   5  -1   5   33.10    1.06
   5  -1   5   36.78    1.15
  -6   1  -5    0.32    0.08
   6  -1   5    0.34    0.07
  -7   1  -5   18.79    0.67
   7  -1   5   17.31    0.62
  -8   1  -5   10.32    0.45
   8  -1   5   11.79    0.45
  -9   1  -5    4.25    0.27
   9  -1   5    4.66    0.26
 -10   1  -5    4.04    0.27
  10  -1   5    4.55    0.27
  10  -1   5    4.48    0.19
 -11   1  -5    5.38    0.33
  11  -1   5    5.18    0.31
 -12   1  -5    0.79    0.16
  12  -1   5    1.03    0.17
 -13   1  -5    6.74    0.41
  13  -1   5    6.68    0.38
 -14   1  -5    0.47    0.16
  14  -1   5    0.29    0.14
 -14   0   5    0.02    0.12
 -13   0   5    7.51    0.42
 -12   0   5    0.46    0.13
  11   0  -5    0.99    0.11
 -11   0   5    1.14    0.15
  10   0  -5    0.83    0.10
 -10   0   5    0.83    0.13
   9   0  -5    0.35    0.07
  -9   0   5    0.34    0.09
   8   0  -5   13.87    0.46
  -8   0   5   14.13    0.53
   7   0  -5   55.03    1.60
  -7   0   5   54.57    1.76
   6   0  -5   66.37    1.92
  -6   0   5   67.00    2.11
   5   0  -5   49.76    1.42
  -5   0   5   48.90    1.57
   4   0  -5  211.18    6.02
   4   0  -5  210.81    6.48
  -4   0   5  211.92    6.59
   2   0  -5   27.11    0.78
   2   0  -5   25.41    0.86
  -2   0   5   26.76    0.86
  -2   0   5   27.84    0.76
   1   0  -5   65.20    2.01
   1   0  -5   65.53    1.84
  -1   0   5   66.40    2.02
  -1   0   5   63.76    1.85
  -1   0   5   62.44    1.84
   0   0  -5    0.63    0.07
   0   0  -5    0.65    0.08
   0   0   5    0.59    0.07
   0   0   5    0.77    0.05
  -1   0  -5   -0.03    0.04
   1   0   5    0.03    0.05
  -2   0  -5   16.56    0.58
   2   0   5   17.24    0.59
  -3   0  -5    0.06    0.05
   3   0   5    0.18    0.06
  -4   0  -5   38.65    1.26
   4   0   5   38.17    1.27
  -5   0  -5   50.35    1.64
   5   0   5   50.94    1.54
  -6   0  -5    5.47    0.27
   6   0   5    6.08    0.27
  -7   0  -5   16.02    0.60
   7   0   5   15.57    0.57
  -8   0  -5   13.35    0.54
   8   0   5   13.52    0.52
  -9   0  -5   43.13    1.45
   9   0   5   41.75    1.36
 -10   0  -5    1.04    0.16
  10   0   5    1.07    0.15
 -11   0  -5    2.99    0.25
  11   0   5    2.26    0.22
 -12   0  -5    0.42    0.14
  12   0   5    0.18    0.11
 -13   0  -5    4.23    0.33
  13   0   5    4.01    0.30
  15  -1  -5    5.80    0.39
 -15   1   5    5.11    0.37
  14  -1  -5    2.83    0.29
 -14   1   5    2.09    0.25
  13  -1  -5    5.61    0.37
 -13   1   5    5.02    0.34
  12  -1  -5    1.51    0.16
 -12   1   5    1.54    0.19
  11  -1  -5    9.99    0.38
 -11   1   5   10.67    0.48
  10  -1  -5    7.68    0.30
 -10   1   5    7.94    0.37
   9  -1  -5   15.69    0.52
  -9   1   5   16.20    0.61
   8  -1  -5    2.14    0.11
  -8   1   5    2.24    0.17
   7  -1  -5   12.57    0.40
  -7   1   5   12.22    0.47
   6  -1  -5   41.72    1.20
  -6   1   5   40.53    1.34
   5  -1  -5   30.55    0.90
   5  -1  -5   31.27    1.00
   5  -1  -5   30.65    0.94
  -5   1   5   30.84    1.01
   4  -1  -5   17.13    0.55
   4  -1  -5   17.46    0.51
  -4   1   5   17.60    0.51
  -4   1   5   17.07    0.59
   3  -1  -5  553.76   16.20
   3  -1  -5  565.83   17.58
  -3   1   5  583.96   16.11
  -3   1   5  565.09   17.57
   2  -1  -5   12.04    0.41
   2  -1  -5   11.41    0.36
  -2   1   5   11.65    0.36
  -2   1   5   10.99    0.41
   1  -1  -5  404.59   11.15
   1  -1  -5  391.77   12.03
  -1   1   5  392.70   12.02
  -1   1   5  369.79   11.10
   0  -1  -5   47.35    1.41
   0  -1  -5   50.34    1.54
   0   1   5   47.81    1.41
  -1  -1  -5    4.78    0.22
   1   1   5    4.69    0.19
  -2  -1  -5   12.12    0.44
   2   1   5   11.40    0.44
   2   1   5   11.80    0.41
  -3  -1  -5    0.47    0.08
   3   1   5    0.53    0.08
  -4  -1  -5    0.05    0.06
  -5  -1  -5    0.62    0.10
  -6  -1  -5    1.05    0.13
  -7  -1  -5    0.02    0.07
   7   1   5    0.05    0.08
  -8  -1  -5   18.06    0.68
   8   1   5   16.72    0.64
  -9  -1  -5    2.59    0.22
   9   1   5    2.50    0.23
 -10  -1  -5    6.20    0.35
  10   1   5    5.67    0.33
 -11  -1  -5    1.13    0.17
  11   1   5    1.52    0.20
 -12  -1  -5    3.90    0.30
  12   1   5    4.03    0.30
 -13  -1  -5    0.76    0.18
  13   1   5    0.62    0.17
  15  -2  -5    0.47    0.16
 -15   2   5    0.52    0.16
  14  -2  -5    0.24    0.13
 -14   2   5    0.08    0.12
  13  -2  -5    0.56    0.16
 -13   2   5    0.73    0.16
  12  -2  -5    0.06    0.11
  12  -2  -5   -0.06    0.06
 -12   2   5    0.05    0.10
  11  -2  -5   20.08    0.67
  11  -2  -5   21.10    0.77
 -11   2   5   21.24    0.80
  10  -2  -5   25.76    0.89
  10  -2  -5   25.54    0.81
 -10   2   5   26.95    0.94
   9  -2  -5   11.61    0.38
   9  -2  -5   11.22    0.45
  -9   2   5   10.86    0.47
   8  -2  -5   18.43    0.65
   8  -2  -5   19.11    0.58
  -8   2   5   19.02    0.56
  -8   2   5   18.07    0.68
   7  -2  -5    0.72    0.06
   7  -2  -5    0.86    0.11
  -7   2   5    0.44    0.08
  -7   2   5    0.80    0.06
   6  -2  -5  102.14    2.92
   6  -2  -5  102.11    2.96
  -6   2   5  103.00    3.19
  -6   2   5  100.19    2.91
   5  -2  -5  116.06    3.26
   5  -2  -5  115.75    3.30
   5  -2  -5  112.14    3.55
  -5   2   5  114.17    3.56
  -5   2   5  112.99    3.26
   4  -2  -5   89.74    2.62
   4  -2  -5   89.49    2.64
   4  -2  -5   89.61    2.85
  -4   2   5   94.51    2.87
  -4   2   5   93.17    2.64
  -4   2   5   93.23    2.62
   3  -2  -5    4.20    0.17
   3  -2  -5    5.02    0.20
  -3   2   5    4.15    0.20
  -3   2   5    4.15    0.17
  -3   2   5    4.42    0.16
   2  -2  -5   11.53    0.39
   2  -2  -5   13.34    0.44
  -2   2   5   12.54    0.39
  -2   2   5   12.12    0.44
  -2   2   5   11.80    0.39
   1  -2  -5   30.23    0.91
  -1   2   5   29.40    0.99
  -1   2   5   31.04    0.90
   0  -2  -5  198.75    5.70
   0  -2  -5  198.56    6.15
   0   2   5  201.58    5.69
  -1  -2  -5    5.71    0.27
   1   2   5    6.28    0.25
  -2  -2  -5   19.27    0.68
   2   2   5   19.22    0.64
  -3  -2  -5   72.33    2.31
  -4  -2  -5   42.93    1.42
  -5  -2  -5   12.88    0.51
  -6  -2  -5    0.98    0.13
  -7  -2  -5   -0.03    0.07
  -8  -2  -5   19.02    0.73
  -9  -2  -5   16.31    0.66
   9   2   5   16.26    0.64
 -10  -2  -5    3.98    0.29
  10   2   5    3.79    0.28
 -11  -2  -5    0.04    0.11
  11   2   5   -0.01    0.11
 -12  -2  -5    0.04    0.11
  12   2   5   -0.06    0.12
  15  -3  -5    3.35    0.33
 -15   3   5    4.02    0.33
  14  -3  -5    1.05    0.20
 -14   3   5    1.11    0.19
  13  -3  -5   42.76    1.43
 -13   3   5   42.50    1.50
  12  -3  -5    0.82    0.10
  12  -3  -5    0.74    0.16
 -12   3   5    0.63    0.14
  11  -3  -5   31.91    1.06
  11  -3  -5   30.69    0.97
 -11   3   5   30.97    1.11
  10  -3  -5   22.69    0.73
  10  -3  -5   22.20    0.81
 -10   3   5   24.96    0.87
   9  -3  -5    0.26    0.06
   9  -3  -5    0.33    0.10
  -9   3   5    0.26    0.04
  -9   3   5    0.33    0.10
   8  -3  -5   98.51    2.78
   8  -3  -5   98.66    2.84
  -8   3   5   98.42    3.05
  -8   3   5   87.86    2.77
  -8   3   5   97.43    2.79
   7  -3  -5    1.06    0.08
   7  -3  -5    0.97    0.11
  -7   3   5    0.93    0.11
  -7   3   5    1.03    0.07
   6  -3  -5   35.43    1.04
   6  -3  -5   34.68    1.08
   6  -3  -5   34.07    1.15
  -6   3   5   35.90    1.17
  -6   3   5   34.88    1.03
   5  -3  -5   14.77    0.50
   5  -3  -5   15.97    0.47
  -5   3   5   14.82    0.50
  -5   3   5   14.96    0.46
  -5   3   5   14.23    0.54
   4  -3  -5    2.27    0.13
   4  -3  -5    2.14    0.11
   4  -3  -5    2.26    0.12
  -4   3   5    2.32    0.11
  -4   3   5    2.28    0.15
   3  -3  -5   25.62    0.81
  -3   3   5   26.45    0.80
  -3   3   5   25.84    0.80
  -3   3   5   27.49    0.89
   2  -3  -5    0.37    0.07
   2  -3  -5    0.50    0.07
  -2   3   5    0.46    0.07
  -2   3   5    0.38    0.07
  -2   3   5    0.40    0.06
   1  -3  -5   77.81    2.47
   1  -3  -5   79.22    2.28
  -1   3   5   78.33    2.28
  -1   3   5   77.89    2.47
   0  -3  -5   66.99    2.11
   0  -3  -5   65.95    1.96
  -1  -3  -5    3.46    0.19
  -1  -3  -5    3.21    0.20
  -1  -3  -5    3.47    0.19
   1   3   5    3.52    0.18
  -2  -3  -5   14.90    0.56
  -3  -3  -5    3.08    0.20
  -4  -3  -5    3.66    0.22
  -5  -3  -5   10.71    0.45
  -6  -3  -5   10.47    0.45
  -7  -3  -5    2.43    0.21
  -8  -3  -5    4.86    0.30
  -9  -3  -5    0.07    0.10
   9   3   5    0.12    0.11
 -10  -3  -5    2.31    0.24
  10   3   5    2.27    0.25
 -11  -3  -5    0.04    0.12
  11   3   5    0.20    0.12
 -12  -3  -5    4.11    0.32
  12   3   5    4.84    0.35
  16  -4  -5    0.08    0.16
 -16   4   5   -0.30    0.11
  15  -4  -5    1.59    0.24
 -15   4   5    1.51    0.22
  14  -4  -5    2.04    0.25
 -14   4   5    2.22    0.25
  13  -4  -5    0.09    0.13
 -13   4   5    0.16    0.11
  12  -4  -5    9.91    0.37
  12  -4  -5   10.05    0.47
 -12   4   5    9.20    0.46
  11  -4  -5    9.23    0.42
  11  -4  -5    9.15    0.34
 -11   4   5    8.15    0.42
  10  -4  -5  107.50    3.09
  10  -4  -5  106.39    3.17
 -10   4   5  104.79    3.09
 -10   4   5  107.61    3.40
   9  -4  -5    3.85    0.23
   9  -4  -5    3.93    0.18
  -9   4   5    4.34    0.18
  -9   4   5    3.75    0.24
   7  -4  -5   14.47    0.46
   7  -4  -5   13.66    0.50
  -7   4   5   13.74    0.54
  -7   4   5   13.99    0.45
   6  -4  -5   38.22    1.16
   6  -4  -5   37.27    1.23
   6  -4  -5   37.12    1.12
  -6   4   5   36.74    1.25
  -6   4   5   38.06    1.11
   5  -4  -5   16.69    0.52
   5  -4  -5   16.33    0.58
   5  -4  -5   15.69    0.54
  -5   4   5   15.02    0.58
  -5   4   5   16.76    0.51
  -5   4   5   16.24    0.54
   4  -4  -5   12.28    0.41
   4  -4  -5   11.91    0.42
   4  -4  -5   12.49    0.45
  -4   4   5   11.78    0.40
  -4   4   5   11.79    0.46
  -4   4   5   12.09    0.42
   3  -4  -5    6.75    0.27
   3  -4  -5    6.30    0.28
  -3   4   5    6.37    0.29
   2  -4  -5    8.40    0.33
   2  -4  -5    7.61    0.31
  -2   4   5    7.99    0.33
   1  -4  -5   28.05    0.93
   1  -4  -5   26.98    0.87
  -1   4   5   27.58    0.93
  -1   4   5   26.33    0.87
  -1   4   5   27.56    0.86
   0  -4  -5    0.00    0.06
   0  -4  -5    0.00    0.05
   0   4   5   -0.02    0.05
  -1  -4  -5   10.45    0.43
  -1  -4  -5   10.54    0.41
  -1  -4  -5    9.85    0.41
  -2  -4  -5   37.90    1.28
  -3  -4  -5    8.10    0.37
  -4  -4  -5   61.41    2.01
  -5  -4  -5    8.47    0.40
  -6  -4  -5   25.40    0.93
  -7  -4  -5    0.19    0.10
  -8  -4  -5    0.22    0.11
  -9  -4  -5    0.04    0.10
 -10  -4  -5    1.12    0.18
  10   4   5    1.14    0.20
 -11  -4  -5    0.35    0.15
  11   4   5    1.13    0.20
  16  -5  -5    1.31    0.24
 -16   5   5    0.55    0.18
  15  -5  -5    0.20    0.14
 -15   5   5    0.12    0.13
  14  -5  -5    0.20    0.13
 -14   5   5   -0.06    0.09
  13  -5  -5    3.91    0.31
 -13   5   5    4.56    0.31
  12  -5  -5   11.06    0.49
  12  -5  -5   10.81    0.41
 -12   5   5   10.04    0.50
  11  -5  -5    0.66    0.10
  11  -5  -5    0.64    0.14
 -11   5   5    0.65    0.14
  10  -5  -5    0.68    0.09
  10  -5  -5    0.69    0.14
 -10   5   5    0.95    0.09
 -10   5   5    0.84    0.15
   9  -5  -5   14.41    0.55
   9  -5  -5   14.50    0.49
  -9   5   5   14.34    0.48
  -9   5   5   14.36    0.49
  -9   5   5   14.44    0.58
   8  -5  -5    3.43    0.21
   8  -5  -5    3.87    0.18
  -8   5   5    3.89    0.24
  -8   5   5    3.72    0.17
  -8   5   5    3.76    0.18
   7  -5  -5   10.36    0.37
   7  -5  -5    9.89    0.39
   7  -5  -5   10.01    0.41
  -7   5   5   10.77    0.43
  -7   5   5   10.07    0.35
   6  -5  -5    2.78    0.17
   6  -5  -5    2.71    0.15
  -6   5   5    2.52    0.18
  -6   5   5    2.33    0.13
   5  -5  -5    8.77    0.36
   5  -5  -5    9.44    0.35
   5  -5  -5   10.24    0.39
  -5   5   5    9.94    0.40
  -5   5   5    9.59    0.34
   4  -5  -5    9.83    0.39
   4  -5  -5    9.42    0.37
   4  -5  -5    9.84    0.37
  -4   5   5    9.87    0.38
  -4   5   5   10.18    0.36
  -4   5   5    9.70    0.40
   3  -5  -5    0.33    0.08
   3  -5  -5    0.42    0.08
  -3   5   5    0.31    0.08
  -3   5   5    0.35    0.07
  -3   5   5    0.41    0.08
   2  -5  -5    3.10    0.19
   2  -5  -5    3.70    0.20
  -2   5   5    3.49    0.20
   1  -5  -5  100.93    3.15
   1  -5  -5   98.64    2.94
   0  -5  -5    2.93    0.20
   0  -5  -5    2.86    0.18
  -1  -5  -5   37.29    1.31
  -1  -5  -5   40.58    1.30
  -1  -5  -5   38.29    1.24
  -2  -5  -5   42.53    1.43
  -3  -5  -5   71.01    2.30
  -4  -5  -5    6.10    0.33
  -5  -5  -5   63.38    2.09
  -6  -5  -5    8.77    0.42
  -7  -5  -5    0.07    0.09
  -8  -5  -5    9.77    0.48
  -9  -5  -5    0.75    0.16
 -10  -5  -5    0.03    0.11
  16  -6  -5   -0.08    0.12
  15  -6  -5   -0.02    0.14
 -15   6   5    0.01    0.12
  14  -6  -5    0.13    0.12
 -14   6   5    0.13    0.13
  13  -6  -5    1.27    0.20
 -13   6   5    1.05    0.19
  12  -6  -5    2.20    0.17
  12  -6  -5    2.07    0.22
 -12   6   5    2.09    0.23
  11  -6  -5    8.31    0.34
  11  -6  -5    7.28    0.39
 -11   6   5    8.52    0.42
  10  -6  -5   48.01    1.48
  10  -6  -5   50.15    1.54
 -10   6   5   47.50    1.64
   9  -6  -5   24.92    0.80
   9  -6  -5   25.62    0.85
  -9   6   5   24.00    0.91
   8  -6  -5    9.33    0.38
   8  -6  -5    8.75    0.35
  -8   6   5    8.77    0.41
   7  -6  -5    0.35    0.08
   7  -6  -5    0.30    0.07
   7  -6  -5    0.42    0.09
  -7   6   5    0.46    0.10
  -7   6   5    0.42    0.07
   6  -6  -5   25.51    0.90
   6  -6  -5   25.56    0.85
   6  -6  -5   26.34    0.84
  -6   6   5   25.59    0.91
  -6   6   5   26.73    0.82
   5  -6  -5   12.70    0.47
   5  -6  -5   13.08    0.47
   5  -6  -5   12.48    0.49
  -5   6   5   13.54    0.52
   4  -6  -5   14.04    0.51
   4  -6  -5   14.76    0.53
   4  -6  -5   13.29    0.50
  -4   6   5   13.68    0.54
   3  -6  -5  120.76    3.58
   3  -6  -5  120.99    3.84
  -3   6   5  125.96    3.85
   2  -6  -5   72.43    2.17
   2  -6  -5   70.48    2.30
  -2   6   5   73.36    2.31
   1  -6  -5    0.36    0.09
   1  -6  -5    0.37    0.10
   0  -6  -5    0.49    0.10
   0  -6  -5    0.39    0.11
  -1  -6  -5    2.36    0.21
  -1  -6  -5    3.12    0.23
  -1  -6  -5    3.33    0.21
  -2  -6  -5    7.60    0.38
  -2  -6  -5    7.57    0.36
  -3  -6  -5   36.33    1.26
  -4  -6  -5    2.77    0.23
  -5  -6  -5   18.44    0.73
  -6  -6  -5    4.66    0.30
  -7  -6  -5   10.54    0.50
  -8  -6  -5    2.48    0.25
  -9  -6  -5    0.22    0.12
 -10  -6  -5   -0.10    0.10
  16  -7  -5    0.46    0.17
  15  -7  -5    3.36    0.34
  14  -7  -5    2.93    0.29
 -14   7   5    3.26    0.29
  13  -7  -5   11.80    0.55
  13  -7  -5   11.55    0.46
 -13   7   5   11.65    0.56
  12  -7  -5    3.54    0.28
  12  -7  -5    3.70    0.22
 -12   7   5    3.72    0.29
  11  -7  -5    0.25    0.09
  11  -7  -5    0.18    0.12
 -11   7   5    0.23    0.12
  10  -7  -5    0.00    0.10
  10  -7  -5    0.07    0.08
 -10   7   5    0.03    0.09
   9  -7  -5    9.51    0.42
   9  -7  -5    9.68    0.39
  -9   7   5    9.42    0.44
   8  -7  -5    0.59    0.11
   8  -7  -5    0.41    0.09
   8  -7  -5    0.66    0.11
  -8   7   5    0.58    0.12
   7  -7  -5   29.01    0.97
   7  -7  -5   29.88    0.95
  -7   7   5   28.78    1.03
   6  -7  -5    3.72    0.22
   6  -7  -5    3.72    0.21
   6  -7  -5    3.91    0.22
  -6   7   5    3.80    0.24
   5  -7  -5   -0.05    0.06
   5  -7  -5   -0.05    0.06
   5  -7  -5    0.04    0.05
  -5   7   5    0.09    0.07
   4  -7  -5    0.55    0.11
   4  -7  -5    0.43    0.08
  -4   7   5    0.47    0.10
   3  -7  -5   12.29    0.48
   3  -7  -5   12.62    0.49
  -3   7   5   11.39    0.48
   2  -7  -5   28.39    0.99
   2  -7  -5   28.07    0.96
  -2   7   5   28.73    0.99
   1  -7  -5    1.48    0.18
   1  -7  -5    1.24    0.14
   0  -7  -5    0.77    0.12
   0  -7  -5    0.47    0.12
  -1  -7  -5    0.97    0.15
  -1  -7  -5    0.88    0.16
  -1  -7  -5    1.07    0.14
  -2  -7  -5    5.26    0.31
  -2  -7  -5    5.00    0.29
  -3  -7  -5   18.19    0.71
  -3  -7  -5   17.49    0.71
  -4  -7  -5    4.11    0.28
  -5  -7  -5    5.07    0.32
  -6  -7  -5   18.87    0.76
  -7  -7  -5    2.19    0.23
  -8  -7  -5    4.25    0.32
  -9  -7  -5    0.36    0.14
  16  -8  -5    2.99    0.32
  15  -8  -5   -0.30    0.13
  14  -8  -5    0.89    0.20
  13  -8  -5    1.08    0.15
  13  -8  -5    1.27    0.21
 -13   8   5    1.28    0.21
  12  -8  -5    4.23    0.25
  12  -8  -5    4.57    0.32
 -12   8   5    4.43    0.32
  11  -8  -5   12.97    0.56
  11  -8  -5   13.48    0.52
 -11   8   5   14.26    0.61
  10  -8  -5   -0.01    0.08
  10  -8  -5    0.08    0.11
 -10   8   5    0.08    0.10
   9  -8  -5    5.62    0.32
   9  -8  -5    5.24    0.28
  -9   8   5    5.56    0.33
   8  -8  -5    8.14    0.37
   8  -8  -5    7.85    0.37
   8  -8  -5    7.11    0.34
  -8   8   5    7.11    0.38
   7  -8  -5    3.19    0.23
   7  -8  -5    3.27    0.22
  -7   8   5    3.56    0.24
   6  -8  -5   21.13    0.78
   6  -8  -5   22.03    0.77
   6  -8  -5   21.53    0.76
  -6   8   5   22.23    0.81
   5  -8  -5    3.01    0.23
   5  -8  -5    3.73    0.22
   5  -8  -5    3.04    0.22
   4  -8  -5   55.90    1.81
   4  -8  -5   55.61    1.73
  -4   8   5   53.98    1.82
   3  -8  -5    0.13    0.11
   3  -8  -5    0.21    0.08
  -3   8   5    0.20    0.08
   2  -8  -5   18.00    0.67
   2  -8  -5   17.10    0.66
   1  -8  -5   -0.11    0.08
   1  -8  -5    0.05    0.07
   0  -8  -5   11.70    0.50
   0  -8  -5   11.34    0.52
  -1  -8  -5    0.11    0.10
  -1  -8  -5    0.19    0.12
  -1  -8  -5    0.10    0.08
  -2  -8  -5    0.47    0.12
  -3  -8  -5    0.72    0.14
  -4  -8  -5    1.20    0.18
  -5  -8  -5    3.82    0.28
  -6  -8  -5    0.26    0.12
  -7  -8  -5   11.10    0.54
  -8  -8  -5    9.11    0.48
  16  -9  -5    1.90    0.27
  15  -9  -5   10.31    0.53
  14  -9  -5    1.55    0.24
  13  -9  -5    5.34    0.30
  13  -9  -5    5.33    0.37
  12  -9  -5   13.37    0.54
  12  -9  -5   14.02    0.60
  11  -9  -5    9.63    0.46
  11  -9  -5    9.11    0.41
 -11   9   5    9.49    0.48
  10  -9  -5   21.85    0.82
  10  -9  -5   22.82    0.79
 -10   9   5   22.57    0.88
   9  -9  -5    0.96    0.15
   9  -9  -5    1.23    0.19
  -9   9   5    0.72    0.15
   8  -9  -5   17.14    0.65
   8  -9  -5   18.53    0.68
   8  -9  -5   18.31    0.68
  -8   9   5   16.01    0.69
   7  -9  -5   11.92    0.52
   7  -9  -5   12.80    0.52
   7  -9  -5   12.46    0.51
  -7   9   5   12.70    0.54
   6  -9  -5    0.74    0.13
   6  -9  -5    0.67    0.11
   6  -9  -5    0.82    0.15
  -6   9   5    0.68    0.12
   5  -9  -5    0.99    0.16
   5  -9  -5    0.81    0.12
  -5   9   5    0.82    0.13
   4  -9  -5    2.17    0.22
   4  -9  -5    2.16    0.18
  -4   9   5    1.97    0.18
   3  -9  -5   14.63    0.58
   3  -9  -5   15.10    0.61
  -3   9   5   14.35    0.58
   2  -9  -5    0.28    0.12
   2  -9  -5    0.29    0.09
   1  -9  -5   16.77    0.68
   1  -9  -5   16.54    0.66
   0  -9  -5    4.59    0.33
  -1  -9  -5    1.24    0.20
  -1  -9  -5    1.51    0.19
  -2  -9  -5    0.75    0.15
  -3  -9  -5    6.75    0.38
  -4  -9  -5    2.67    0.25
  -5  -9  -5    2.47    0.25
  -6  -9  -5    0.11    0.11
  -7  -9  -5    1.18    0.19
  16 -10  -5    0.30    0.18
  15 -10  -5    0.91    0.22
  14 -10  -5    0.23    0.15
  13 -10  -5    2.68    0.24
  13 -10  -5    3.01    0.30
  12 -10  -5   28.46    1.03
  12 -10  -5   27.57    0.97
  11 -10  -5    0.96    0.20
  11 -10  -5    1.08    0.17
  10 -10  -5    4.14    0.29
  10 -10  -5    3.17    0.25
   9 -10  -5    2.45    0.25
   9 -10  -5    2.27    0.23
   8 -10  -5    4.81    0.31
   8 -10  -5    5.15    0.32
   7 -10  -5    9.58    0.46
   7 -10  -5    9.93    0.46
  -7  10   5    9.72    0.47
   6 -10  -5    2.94    0.25
   6 -10  -5    2.25    0.23
  -6  10   5    3.02    0.23
   5 -10  -5   12.22    0.54
   4 -10  -5    4.51    0.32
   3 -10  -5   -0.05    0.10
   2 -10  -5    0.10    0.12
   1 -10  -5    8.70    0.46
   0 -10  -5   10.53    0.53
  -1 -10  -5    1.68    0.25
  -1 -10  -5    1.17    0.19
  -2 -10  -5    0.00    0.10
  -3 -10  -5    4.68    0.33
  -4 -10  -5    3.87    0.30
  -5 -10  -5    0.69    0.16
  -6 -10  -5    0.29    0.13
  15 -11  -5   -0.07    0.16
  14 -11  -5   11.69    0.59
  13 -11  -5   15.41    0.67
  13 -11  -5   13.81    0.60
  12 -11  -5    3.34    0.27
  12 -11  -5    3.03    0.31
  11 -11  -5    4.32    0.34
  11 -11  -5    4.83    0.32
  10 -11  -5    3.46    0.29
  10 -11  -5    3.77    0.29
   9 -11  -5    0.91    0.17
   9 -11  -5    0.68    0.17
   8 -11  -5    4.97    0.33
   8 -11  -5    4.29    0.31
   7 -11  -5    1.19    0.19
   7 -11  -5    1.59    0.21
   6 -11  -5   11.30    0.53
   5 -11  -5    0.15    0.12
   4 -11  -5    0.02    0.13
   3 -11  -5   16.69    0.71
   2 -11  -5   -0.04    0.12
   1 -11  -5    2.79    0.29
   0 -11  -5    0.32    0.15
   0 -11  -5    0.18    0.11
  -1 -11  -5    0.38    0.14
  -2 -11  -5    0.58    0.16
  -3 -11  -5    5.50    0.37
  -4 -11  -5    2.31    0.25
  15 -12  -5   -0.01    0.14
  14 -12  -5    1.67    0.27
  13 -12  -5   11.07    0.55
  13 -12  -5    9.98    0.50
  12 -12  -5    6.70    0.43
  12 -12  -5    6.52    0.39
  11 -12  -5   23.35    0.88
  11 -12  -5   22.97    0.91
  10 -12  -5   18.01    0.74
  10 -12  -5   18.25    0.76
   9 -12  -5    0.45    0.15
   9 -12  -5    0.44    0.15
   8 -12  -5    1.33    0.21
   8 -12  -5    0.96    0.18
   7 -12  -5    0.41    0.16
   6 -12  -5    0.61    0.17
   5 -12  -5    6.81    0.41
   4 -12  -5    1.95    0.26
   3 -12  -5    3.14    0.33
   2 -12  -5    0.18    0.14
   1 -12  -5    0.94    0.21
   0 -12  -5    1.45    0.22
   0 -12  -5    1.71    0.26
  -1 -12  -5    0.54    0.16
  -2 -12  -5    0.16    0.13
  -3 -12  -5    0.11    0.13
  14 -13  -5    1.38    0.25
  13 -13  -5    2.39    0.30
  13 -13  -5    2.43    0.28
  12 -13  -5    1.75    0.24
  12 -13  -5    1.48    0.25
  11 -13  -5    1.88    0.25
  11 -13  -5    2.15    0.29
  10 -13  -5   13.07    0.63
  10 -13  -5   12.61    0.60
   9 -13  -5   22.12    0.89
   9 -13  -5   23.70    0.93
   8 -13  -5    4.79    0.38
   7 -13  -5   17.95    0.78
   6 -13  -5    6.58    0.43
   5 -13  -5    6.21    0.42
   4 -13  -5    0.11    0.15
   3 -13  -5    0.04    0.15
   2 -13  -5    5.47    0.43
   1 -13  -5    0.16    0.17
   1 -13  -5    0.13    0.14
   0 -13  -5    9.86    0.59
   0 -13  -5   10.27    0.54
  -1 -13  -5    1.28    0.22
  13 -14  -5    0.61    0.19
  13 -14  -5    0.64    0.22
  12 -14  -5    0.22    0.18
  12 -14  -5    0.52    0.18
  11 -14  -5    0.20    0.16
  11 -14  -5    0.28    0.16
  10 -14  -5    0.02    0.15
  10 -14  -5   -0.26    0.12
   9 -14  -5    0.52    0.18
   8 -14  -5    6.96    0.47
   7 -14  -5    0.23    0.16
   6 -14  -5   15.01    0.71
   5 -14  -5    0.54    0.20
   4 -14  -5    5.19    0.43
   3 -14  -5    0.61    0.20
   2 -14  -5    0.06    0.16
   1 -14  -5    1.34    0.23
   1 -14  -5    0.92    0.25
   0 -14  -5    2.30    0.28
  12 -15  -5    1.53    0.25
  12 -15  -5    1.78    0.30
  11 -15  -5    0.63    0.22
  11 -15  -5    1.04    0.21
  10 -15  -5   -0.05    0.15
   9 -15  -5    0.24    0.18
   8 -15  -5    1.60    0.28
   7 -15  -5    6.08    0.45
   6 -15  -5    3.45    0.39
   5 -15  -5   -0.10    0.17
   4 -15  -5    4.97    0.42
   3 -15  -5    1.84    0.30
   2 -15  -5    1.13    0.25
   2 -15  -5    0.96    0.28
   9 -16  -5    1.32    0.28
   8 -16  -5    3.15    0.37
   7 -16  -5    0.19    0.20
   6 -16  -5    1.63    0.29
   3 -17   6   13.31    0.71
   4 -17   6    2.29    0.33
   5 -17   6    0.69    0.22
   5 -17   6    1.33    0.26
   6 -17   6    0.15    0.18
   6 -17   6    0.37    0.21
   7 -17   6    6.29    0.47
   7 -17   6    5.86    0.47
   8 -17   6    0.26    0.20
   8 -17   6    0.15    0.17
   9 -17   6    0.21    0.20
   9 -17   6    0.28    0.20
  10 -17   6    0.07    0.17
  10 -17   6    0.37    0.20
  11 -17   6    4.79    0.41
  11 -17   6    5.37    0.44
   1 -16   6    0.29    0.19
   1 -16   6    0.04    0.08
   2 -16   6    1.29    0.25
   3 -16   6    0.19    0.18
   4 -16   6    3.04    0.35
   4 -16   6    2.66    0.33
   5 -16   6    6.88    0.48
   5 -16   6    6.40    0.48
   6 -16   6    2.24    0.32
   6 -16   6    2.50    0.33
   7 -16   6    2.41    0.32
   7 -16   6    2.78    0.34
   8 -16   6    5.48    0.43
   8 -16   6    4.55    0.43
   9 -16   6    3.62    0.37
   9 -16   6    4.18    0.41
  10 -16   6    0.19    0.16
  10 -16   6    0.30    0.19
  11 -16   6    0.79    0.21
  11 -16   6    0.59    0.19
  12 -16   6   11.01    0.60
  12 -16   6   10.94    0.62
  -1 -15   6    0.16    0.08
   0 -15   6    1.47    0.27
   0 -15   6    1.05    0.13
   1 -15   6   -0.09    0.13
   2 -15   6   -0.04    0.14
   3 -15   6    1.44    0.25
   4 -15   6    0.20    0.17
   4 -15   6    0.07    0.15
   5 -15   6    0.33    0.19
   5 -15   6    0.06    0.15
   6 -15   6    7.02    0.46
   6 -15   6    7.67    0.47
   7 -15   6   10.59    0.56
   7 -15   6    9.84    0.55
   8 -15   6    1.79    0.28
   8 -15   6    1.72    0.26
   9 -15   6    7.46    0.46
   9 -15   6    7.09    0.45
  10 -15   6    1.54    0.26
  10 -15   6    1.13    0.23
  11 -15   6    5.41    0.42
  11 -15   6    6.03    0.42
  12 -15   6    0.81    0.21
  12 -15   6    0.48    0.20
  13 -15   6    3.67    0.37
  13 -15   6    4.58    0.36
  -3 -14   6   -0.06    0.06
  -2 -14   6    3.16    0.19
  -1 -14   6    6.70    0.30
   0 -14   6    0.46    0.18
   0 -14   6    0.28    0.09
   1 -14   6   10.33    0.57
   2 -14   6    1.20    0.23
   3 -14   6    0.59    0.18
   3 -14   6    0.63    0.18
   4 -14   6    0.53    0.17
   4 -14   6    0.58    0.18
   5 -14   6   15.10    0.68
   5 -14   6   14.92    0.68
   6 -14   6    3.00    0.32
   6 -14   6    2.24    0.27
   7 -14   6   30.56    1.10
   7 -14   6   28.24    1.08
   8 -14   6    4.43    0.36
   8 -14   6    4.11    0.35
   9 -14   6   10.52    0.53
   9 -14   6   10.03    0.53
  10 -14   6    1.16    0.20
  10 -14   6    1.17    0.21
  11 -14   6    4.50    0.34
  11 -14   6    4.27    0.34
  12 -14   6    4.09    0.38
  12 -14   6    3.85    0.33
  13 -14   6    0.67    0.22
  13 -14   6    0.70    0.20
  14 -14   6    0.05    0.17
  14 -14   6    0.00    0.13
  -4 -13   6    8.01    0.33
  -3 -13   6    0.21    0.07
  -2 -13   6    0.66    0.09
  -1 -13   6    1.00    0.11
  -1 -13   6    0.92    0.21
   0 -13   6    5.38    0.23
   0 -13   6    5.23    0.39
   1 -13   6   -0.07    0.14
   1 -13   6    0.02    0.05
   2 -13   6    2.09    0.26
   2 -13   6    2.31    0.14
   2 -13   6    1.62    0.25
   3 -13   6    5.59    0.26
   3 -13   6    5.98    0.38
   3 -13   6    5.82    0.38
   4 -13   6    4.42    0.35
   4 -13   6    4.84    0.36
   4 -13   6    5.03    0.24
   5 -13   6    8.57    0.46
   5 -13   6    8.32    0.45
   6 -13   6    3.22    0.31
   6 -13   6    2.76    0.28
   7 -13   6    4.60    0.34
   7 -13   6    4.44    0.32
   8 -13   6    0.86    0.19
   8 -13   6    0.82    0.18
   9 -13   6    3.56    0.33
   9 -13   6    3.73    0.31
  10 -13   6    0.06    0.11
  10 -13   6    0.11    0.14
  11 -13   6    0.75    0.20
  11 -13   6    0.90    0.18
  12 -13   6    7.63    0.43
  12 -13   6    8.05    0.47
  13 -13   6    2.95    0.30
  13 -13   6    3.14    0.32
  14 -13   6    0.48    0.18
  14 -13   6    0.31    0.16
  15 -13   6    4.07    0.40
  15 -13   6    4.03    0.35
  -5 -12   6    1.84    0.15
  -4 -12   6    0.18    0.07
  -3 -12   6    0.85    0.10
  -2 -12   6    4.07    0.21
  -2 -12   6    4.31    0.20
  -1 -12   6    0.32    0.08
  -1 -12   6    0.44    0.16
  -1 -12   6    0.43    0.07
   0 -12   6    0.33    0.14
   0 -12   6    0.37    0.06
   1 -12   6    0.19    0.13
   1 -12   6    0.32    0.06
   2 -12   6   27.41    0.93
   2 -12   6   28.51    1.03
   2 -12   6   29.15    1.04
   3 -12   6   21.89    0.84
   3 -12   6   22.71    0.85
   3 -12   6   21.46    0.75
   4 -12   6    7.22    0.42
   4 -12   6    7.69    0.42
   4 -12   6    7.79    0.32
   5 -12   6   31.87    1.15
   5 -12   6   34.26    1.17
   5 -12   6   33.75    1.12
   6 -12   6    7.76    0.42
   6 -12   6    6.95    0.34
   6 -12   6    7.69    0.40
   7 -12   6    4.64    0.33
   7 -12   6    5.27    0.33
   8 -12   6    1.26    0.19
   8 -12   6    1.20    0.19
   9 -12   6    1.12    0.18
   9 -12   6    1.13    0.19
  10 -12   6    2.57    0.26
  10 -12   6    3.20    0.26
  11 -12   6    9.00    0.48
  11 -12   6    8.91    0.47
  12 -12   6    8.43    0.47
  12 -12   6    8.24    0.45
  13 -12   6    1.47    0.22
  13 -12   6    1.35    0.23
  14 -12   6    4.42    0.36
  14 -12   6    5.11    0.36
  15 -12   6    0.00    0.15
  15 -12   6   -0.07    0.12
  -6 -11   6    0.30    0.08
  -5 -11   6    0.16    0.07
  -3 -11   6    5.09    0.23
  -3 -11   6    5.07    0.23
  -2 -11   6    9.23    0.34
  -2 -11   6    8.56    0.34
  -1 -11   6    4.43    0.34
  -1 -11   6    4.88    0.20
  -1 -11   6    4.61    0.22
   0 -11   6    9.13    0.34
   0 -11   6    9.53    0.47
   1 -11   6    0.82    0.16
   1 -11   6    0.93    0.09
   1 -11   6    0.93    0.17
   2 -11   6   -0.04    0.11
   2 -11   6    0.02    0.10
   2 -11   6    0.00    0.04
   3 -11   6    9.06    0.35
   3 -11   6   10.01    0.45
   3 -11   6    8.58    0.44
   4 -11   6   33.70    1.13
   4 -11   6   34.98    1.18
   4 -11   6   34.48    1.16
   5 -11   6    8.20    0.34
   5 -11   6    7.36    0.39
   5 -11   6    7.81    0.39
  -6  11  -6   29.26    1.02
   6 -11   6   30.57    1.03
   6 -11   6   30.88    1.05
   6 -11   6   30.80    1.05
   7 -11   6   27.61    0.98
   7 -11   6   29.57    0.99
   7 -11   6   27.55    0.98
   8 -11   6   37.29    1.24
   8 -11   6   36.59    1.24
   9 -11   6   16.92    0.68
   9 -11   6   18.68    0.70
  10 -11   6    7.87    0.41
  10 -11   6    8.50    0.43
  11 -11   6    0.54    0.15
  11 -11   6    0.90    0.17
  12 -11   6   11.15    0.53
  12 -11   6    9.48    0.48
  13 -11   6   14.23    0.63
  13 -11   6   13.35    0.60
  14 -11   6    2.92    0.32
  14 -11   6    3.13    0.30
  15 -11   6    1.26    0.21
  15 -11   6    0.96    0.22
  -8 -10   6    1.53    0.15
  -7 -10   6   -0.06    0.06
  -6 -10   6    2.05    0.15
  -5 -10   6    0.46    0.08
  -4 -10   6    0.03    0.05
  -3 -10   6    2.10    0.13
  -3 -10   6    1.93    0.13
  -2 -10   6    1.70    0.11
  -2 -10   6    1.61    0.11
  -1 -10   6   11.70    0.42
  -1 -10   6   11.89    0.53
  -1 -10   6   11.57    0.41
   0 -10   6    0.13    0.04
   0 -10   6    0.12    0.11
   0 -10   6    0.15    0.11
   1 -10   6    3.07    0.24
   1 -10   6    2.94    0.14
   1 -10   6    2.78    0.24
   2 -10   6    0.81    0.14
   2 -10   6    0.84    0.15
   2 -10   6    0.63    0.07
   3 -10   6    8.52    0.40
   3 -10   6    7.92    0.32
   3 -10   6    8.60    0.39
   4 -10   6   55.42    1.86
   4 -10   6   59.91    1.83
   4 -10   6   60.67    1.84
  -5  10  -6    2.11    0.15
   5 -10   6    2.05    0.20
   5 -10   6    2.23    0.22
   5 -10   6    1.99    0.15
   5 -10   6    2.05    0.20
  -6  10  -6    0.62    0.10
   6 -10   6    0.84    0.11
   6 -10   6    0.61    0.13
   6 -10   6    0.52    0.12
   6 -10   6    0.45    0.13
  -7  10  -6    0.04    0.06
   7 -10   6    0.01    0.08
   7 -10   6    0.05    0.09
   7 -10   6    0.07    0.11
   7 -10   6    0.11    0.06
  -8  10  -6    5.77    0.29
   8 -10   6    5.25    0.28
   8 -10   6    5.49    0.30
   8 -10   6    5.64    0.32
   8 -10   6    5.71    0.33
   9 -10   6   50.05    1.65
   9 -10   6   53.18    1.67
   9 -10   6   53.59    1.67
  10 -10   6   50.89    1.62
  10 -10   6   50.25    1.62
  10 -10   6   50.41    1.61
  11 -10   6    0.09    0.12
  11 -10   6    0.12    0.11
  12 -10   6    2.40    0.25
  12 -10   6    3.18    0.25
  13 -10   6    0.10    0.14
  13 -10   6    0.11    0.12
  14 -10   6    7.47    0.44
  14 -10   6    6.26    0.39
  15 -10   6    6.67    0.40
  15 -10   6    6.34    0.44
  -8  -9   6    5.41    0.28
  -7  -9   6    0.69    0.11
  -6  -9   6    1.26    0.12
  -5  -9   6   16.90    0.59
  -4  -9   6    6.54    0.26
  -3  -9   6    0.27    0.05
  -2  -9   6    3.08    0.15
  -2  -9   6    3.22    0.26
  -1  -9   6    0.07    0.04
  -1  -9   6    0.01    0.09
   0  -9   6    6.77    0.35
   0  -9   6    6.52    0.24
   0  -9   6    6.84    0.35
   1  -9   6    0.30    0.11
   1  -9   6    0.33    0.05
   1  -9   6    0.21    0.11
   2  -9   6    4.64    0.27
   2  -9   6    5.14    0.20
   2  -9   6    4.60    0.27
   3  -9   6    7.84    0.37
   3  -9   6    8.33    0.38
   3  -9   6    8.65    0.32
   3  -9   6    8.62    0.38
  -4   9  -6   10.60    0.38
   4  -9   6   10.77    0.44
   4  -9   6    9.65    0.43
   4  -9   6   11.02    0.45
   4  -9   6   10.76    0.39
  -5   9  -6   19.16    0.64
   5  -9   6   18.72    0.67
   5  -9   6   17.41    0.64
   5  -9   6   19.25    0.67
   5  -9   6   17.35    0.66
  -6   9  -6    5.43    0.25
   6  -9   6    5.73    0.30
   6  -9   6    5.15    0.26
   6  -9   6    5.57    0.29
  -7   9  -6   10.45    0.42
   7  -9   6   10.77    0.45
   7  -9   6   10.75    0.44
   7  -9   6   10.97    0.44
   7  -9   6   10.28    0.43
  -8   9  -6    1.88    0.16
   8  -9   6    1.77    0.18
   8  -9   6    1.82    0.18
   8  -9   6    2.21    0.21
   8  -9   6    1.80    0.16
  -9   9  -6    1.20    0.15
   9  -9   6    1.21    0.16
   9  -9   6    1.00    0.14
   9  -9   6    1.39    0.17
   9  -9   6    1.10    0.16
 -10   9  -6    0.69    0.13
  10  -9   6    0.87    0.14
  10  -9   6    0.48    0.13
  10  -9   6    0.68    0.15
  11  -9   6    0.58    0.14
  11  -9   6    0.47    0.12
  11  -9   6    0.60    0.12
  12  -9   6    1.74    0.22
  12  -9   6    2.10    0.20
  12  -9   6    2.45    0.24
  13  -9   6    6.12    0.39
  13  -9   6    6.23    0.35
  14  -9   6    2.12    0.23
  14  -9   6    2.29    0.28
  15  -9   6    0.65    0.17
  15  -9   6    1.20    0.24
  16  -9   6    1.49    0.23
  -9  -8   6    5.62    0.30
  -8  -8   6    0.13    0.08
  -7  -8   6    1.77    0.15
  -6  -8   6    0.13    0.06
  -5  -8   6    0.21    0.06
  -4  -8   6    0.21    0.05
  -3  -8   6    8.31    0.30
  -2  -8   6    0.17    0.04
  -2  -8   6    0.03    0.08
  -1  -8   6   10.02    0.34
  -1  -8   6   10.18    0.44
  -1  -8   6   11.17    0.45
   0  -8   6   91.88    2.79
   0  -8   6   88.79    2.71
   0  -8   6   91.35    2.72
   1  -8   6    5.83    0.29
   1  -8   6    6.18    0.31
   1  -8   6    6.62    0.23
   1  -8   6    6.15    0.31
   2  -8   6   -0.11    0.05
   2  -8   6   -0.01    0.07
   2  -8   6   -0.07    0.07
   2  -8   6    0.00    0.03
  -3   8  -6    0.92    0.07
   3  -8   6    1.00    0.13
   3  -8   6    0.81    0.12
   3  -8   6    0.91    0.08
   3  -8   6    0.90    0.12
  -4   8  -6   22.92    0.75
   4  -8   6   22.09    0.77
   4  -8   6   23.14    0.77
   4  -8   6   22.17    0.76
   4  -8   6   22.75    0.76
  -5   8  -6    7.72    0.31
   5  -8   6    7.95    0.35
   5  -8   6    7.88    0.32
   5  -8   6    8.15    0.35
   5  -8   6    8.20    0.35
  -6   8  -6   17.19    0.61
   6  -8   6   15.89    0.60
   6  -8   6   16.08    0.60
   6  -8   6   17.26    0.61
   6  -8   6   18.39    0.62
  -7   8  -6    0.04    0.06
   7  -8   6    0.04    0.06
   7  -8   6    0.07    0.07
   7  -8   6    0.06    0.07
   7  -8   6    0.04    0.06
  -8   8  -6    7.45    0.34
   8  -8   6    7.57    0.34
   8  -8   6    6.77    0.34
   8  -8   6    7.69    0.35
   8  -8   6    8.27    0.36
  -9   8  -6    1.97    0.18
   9  -8   6    2.27    0.20
   9  -8   6    2.30    0.19
   9  -8   6    1.97    0.18
 -10   8  -6   10.39    0.47
  10  -8   6   10.52    0.43
  10  -8   6   11.53    0.48
  10  -8   6   10.59    0.45
 -11   8  -6   20.94    0.81
  11  -8   6   21.66    0.80
  11  -8   6   21.01    0.74
  11  -8   6   21.99    0.77
  12  -8   6    5.75    0.29
  12  -8   6    5.77    0.36
  12  -8   6    5.77    0.32
  13  -8   6    5.44    0.32
  13  -8   6    6.02    0.37
  14  -8   6    0.13    0.12
  14  -8   6    0.11    0.13
  15  -8   6    1.94    0.24
  15  -8   6    2.05    0.27
  16  -8   6    0.19    0.15
 -10  -7   6    1.61    0.17
  -9  -7   6    0.19    0.08
  -8  -7   6    0.44    0.10
  -7  -7   6   22.45    0.78
  -6  -7   6    1.78    0.14
  -5  -7   6    4.01    0.19
  -4  -7   6    0.13    0.04
  -3  -7   6   13.17    0.44
  -2  -7   6    2.77    0.11
  -2  -7   6    2.66    0.20
  -1  -7   6    0.67    0.11
  -1  -7   6    0.75    0.12
   0  -7   6   37.90    1.16
   0  -7   6   36.81    1.18
   0  -7   6   36.71    1.18
   0  -7   6   38.22    1.19
   1  -7   6   15.38    0.50
   1  -7   6   15.53    0.55
   1  -7   6   15.75    0.55
   1  -7   6   15.39    0.55
  -2   7  -6   65.57    2.04
   2  -7   6   66.69    2.00
   2  -7   6   65.49    2.06
   2  -7   6   69.72    1.99
   2  -7   6   64.77    1.99
  -3   7  -6   15.91    0.52
   3  -7   6   15.55    0.53
   3  -7   6   16.08    0.55
   3  -7   6   15.07    0.54
   3  -7   6   15.10    0.54
  -4   7  -6    1.42    0.10
   4  -7   6    1.24    0.13
   4  -7   6    1.45    0.14
   4  -7   6    1.46    0.14
   4  -7   6    1.49    0.11
  -5   7  -6    0.03    0.04
   5  -7   6    0.07    0.04
   5  -7   6    0.03    0.06
   5  -7   6    0.05    0.05
   5  -7   6    0.03    0.07
  -6   7  -6    1.32    0.11
   6  -7   6    0.98    0.10
   6  -7   6    1.02    0.12
   6  -7   6    1.09    0.12
   6  -7   6    1.24    0.13
  -7   7  -6   71.45    2.34
   7  -7   6   71.51    2.20
   7  -7   6   77.75    2.22
   7  -7   6   72.58    2.35
   7  -7   6   74.57    2.21
  -8   7  -6    7.87    0.34
   8  -7   6    7.31    0.34
   8  -7   6    7.10    0.32
   8  -7   6    7.37    0.33
   8  -7   6    7.55    0.35
  -9   7  -6    6.94    0.35
   9  -7   6    7.53    0.32
   9  -7   6    7.48    0.36
   9  -7   6    7.55    0.34
 -10   7  -6    0.04    0.09
  10  -7   6    0.10    0.09
  10  -7   6    0.21    0.08
  10  -7   6    0.10    0.10
 -11   7  -6    0.23    0.11
  11  -7   6    0.36    0.10
  11  -7   6    0.20    0.11
  11  -7   6    0.45    0.14
 -12   7  -6    2.09    0.22
  12  -7   6    2.02    0.17
  12  -7   6    1.93    0.22
  12  -7   6    1.91    0.21
  13  -7   6    4.44    0.33
  13  -7   6    4.10    0.28
  14  -7   6    3.53    0.30
  14  -7   6    3.20    0.27
  15  -7   6    5.80    0.36
  15  -7   6    6.01    0.42
 -11  -6   6    0.80    0.14
 -10  -6   6   -0.11    0.07
  -9  -6   6    1.84    0.17
  -8  -6   6    0.27    0.08
  -7  -6   6   13.30    0.50
  -6  -6   6    1.98    0.14
   5   6  -6    6.82    0.27
  -5  -6   6    7.01    0.27
   4   6  -6   17.72    0.58
  -4  -6   6   17.59    0.58
   3   6  -6   13.49    0.46
  -3  -6   6   13.52    0.44
  -2  -6   6    1.69    0.14
  -2  -6   6    2.10    0.08
  -1  -6   6    1.88    0.14
  -1  -6   6    2.08    0.16
  -1  -6   6    2.11    0.16
   0   6  -6   34.07    1.05
   0  -6   6   34.23    1.06
   0  -6   6   33.44    1.06
   0  -6   6   35.02    1.05
   0  -6   6   32.81    1.06
  -1   6  -6   14.65    0.50
  -1   6  -6   14.88    0.51
   1  -6   6   15.04    0.52
   1  -6   6   15.55    0.48
   1  -6   6   14.96    0.52
   1  -6   6   14.67    0.52
  -2   6  -6    0.16    0.03
  -2   6  -6    0.08    0.05
   2  -6   6    0.07    0.06
   2  -6   6    0.03    0.03
   2  -6   6    0.03    0.06
   2  -6   6    0.12    0.06
  -3   6  -6    6.32    0.24
  -3   6  -6    6.39    0.26
   3  -6   6    6.49    0.25
   3  -6   6    6.39    0.26
   3  -6   6    6.43    0.27
   3  -6   6    6.10    0.26
  -4   6  -6   41.58    1.22
  -4   6  -6   40.00    1.28
   4  -6   6   41.39    1.29
   4  -6   6   39.27    1.22
   4  -6   6   39.05    1.24
   4  -6   6   40.02    1.24
  -5   6  -6    2.81    0.16
   5  -6   6    2.94    0.17
   5  -6   6    3.06    0.17
   5  -6   6    3.01    0.17
   5  -6   6    2.96    0.17
  -6   6  -6   13.56    0.51
   6  -6   6   13.93    0.50
   6  -6   6   13.43    0.50
   6  -6   6   15.11    0.53
   6  -6   6   13.99    0.49
  -7   6  -6   11.23    0.42
   7  -6   6    9.67    0.40
   7  -6   6   10.85    0.41
   7  -6   6   10.37    0.39
   7  -6   6   10.00    0.42
  -8   6  -6   63.47    2.09
   8  -6   6   66.85    1.96
   8  -6   6   64.10    1.96
   8  -6   6   65.04    1.97
  -9   6  -6    1.54    0.17
   9  -6   6    1.99    0.18
   9  -6   6    1.91    0.15
   9  -6   6    1.54    0.17
 -10   6  -6   57.20    1.91
  10  -6   6   58.23    1.81
  10  -6   6   57.93    1.76
  10  -6   6   57.73    1.78
 -11   6  -6    2.01    0.21
  11  -6   6    1.93    0.22
  11  -6   6    2.00    0.16
  11  -6   6    2.21    0.19
 -12   6  -6   11.49    0.52
  12  -6   6   10.27    0.46
  12  -6   6   11.00    0.42
  12  -6   6   11.10    0.51
 -13   6  -6    1.96    0.22
  13  -6   6    2.28    0.26
  13  -6   6    2.07    0.22
  14  -6   6    0.25    0.14
  14  -6   6    0.01    0.10
  15  -6   6    2.74    0.31
  15  -6   6    2.75    0.27
 -12  -5   6   -0.10    0.09
 -11  -5   6    0.83    0.14
 -10  -5   6   -0.01    0.07
  -9  -5   6    0.06    0.07
  -8  -5   6    0.11    0.08
  -7  -5   6   52.16    1.68
  -6  -5   6  101.98    3.18
  -5  -5   6    9.45    0.35
   4   5  -6    6.39    0.24
  -4  -5   6    6.49    0.24
   3   5  -6   24.42    0.76
   3   5  -6   24.17    0.78
  -3  -5   6   24.55    0.77
  -3  -5   6   23.91    0.77
   2   5  -6   10.77    0.36
   2   5  -6   10.09    0.39
   2   5  -6   10.56    0.38
  -2  -5   6   10.64    0.33
  -2  -5   6   10.19    0.37
   1   5  -6   48.00    1.42
   1   5  -6   46.88    1.41
   1   5  -6   46.85    1.41
  -1  -5   6   48.87    1.42
  -1  -5   6   45.73    1.42
  -1  -5   6   47.05    1.43
   0   5  -6   62.63    2.00
   0   5  -6   67.22    2.00
   0   5  -6   70.75    2.02
   0  -5   6   71.39    2.02
   0  -5   6   68.22    2.02
   0  -5   6   68.84    2.09
   0  -5   6   69.39    2.01
  -1   5  -6  108.25    3.21
  -1   5  -6  109.40    3.19
  -1   5  -6  110.82    3.24
   1  -5   6  111.12    3.24
   1  -5   6  114.21    3.21
   1  -5   6  114.62    3.41
   1  -5   6  108.38    3.21
  -2   5  -6   63.46    2.07
  -2   5  -6   69.28    1.98
  -2   5  -6   67.07    1.95
  -2   5  -6   63.85    1.96
   2  -5   6   67.16    1.98
   2  -5   6   70.44    2.08
   2  -5   6   65.57    1.97
   2  -5   6   68.27    1.96
  -3   5  -6   10.10    0.35
  -3   5  -6    9.68    0.36
  -3   5  -6   10.35    0.35
   3  -5   6   10.07    0.36
   3  -5   6   10.86    0.37
   3  -5   6    9.39    0.35
   3  -5   6    9.84    0.36
  -4   5  -6  247.83    7.28
  -4   5  -6  242.39    6.67
   4  -5   6  238.76    6.68
   4  -5   6  223.36    6.69
   4  -5   6  218.00    7.18
   4  -5   6  233.22    6.75
  -5   5  -6   14.10    0.49
   5  -5   6   14.03    0.50
   5  -5   6   13.85    0.48
   5  -5   6   13.76    0.47
   5  -5   6   12.96    0.47
  -6   5  -6    0.40    0.07
   6  -5   6    0.21    0.06
   6  -5   6    0.42    0.07
   6  -5   6    0.32    0.08
   6  -5   6    0.29    0.08
  -7   5  -6   33.14    1.19
   7  -5   6   37.26    1.12
   7  -5   6   37.11    1.22
   7  -5   6   37.06    1.13
   7  -5   6   35.86    1.13
  -8   5  -6    0.11    0.07
   8  -5   6    0.23    0.07
   8  -5   6    0.06    0.08
   8  -5   6    0.02    0.07
   8  -5   6    0.04    0.08
  -9   5  -6   -0.06    0.07
   9  -5   6   -0.03    0.05
   9  -5   6    0.03    0.07
   9  -5   6    0.00    0.07
 -10   5  -6    4.91    0.29
  10  -5   6    4.97    0.30
  10  -5   6    4.88    0.23
  10  -5   6    5.23    0.28
 -11   5  -6   21.24    0.83
  11  -5   6   22.05    0.78
  11  -5   6   22.41    0.72
  11  -5   6   22.02    0.81
 -12   5  -6   19.13    0.78
  12  -5   6   20.15    0.78
  12  -5   6   20.79    0.75
 -13   5  -6    0.11    0.12
  13  -5   6    0.16    0.12
  13  -5   6    0.12    0.11
 -14   5  -6    7.05    0.43
  14  -5   6    7.35    0.39
  14  -5   6    6.82    0.42
  15  -5   6    0.70    0.20
  15  -5   6    0.54    0.16
 -12  -4   6    0.18    0.11
 -11  -4   6    0.51    0.12
  10   4  -6    4.51    0.26
 -10  -4   6    4.84    0.28
  -9  -4   6    0.06    0.08
  -8  -4   6    0.28    0.08
  -7  -4   6    1.12    0.12
  -6  -4   6    0.03    0.04
   5   4  -6    0.71    0.09
  -5  -4   6    0.50    0.07
   4   4  -6   45.51    1.35
  -4  -4   6   43.86    1.40
   3   4  -6   39.59    1.18
   3   4  -6   37.44    1.15
  -3  -4   6   38.24    1.19
  -3  -4   6   37.33    1.15
   2   4  -6    0.13    0.05
   2   4  -6    0.16    0.05
  -2  -4   6    0.08    0.04
  -2  -4   6    0.11    0.02
  -2  -4   6    0.20    0.06
   1   4  -6    8.85    0.31
   1   4  -6    8.88    0.33
  -1  -4   6    9.25    0.33
  -1  -4   6    9.41    0.29
  -1  -4   6    9.22    0.33
  -1  -4   6    9.14    0.32
   0   4  -6   47.48    1.43
   0   4  -6   47.63    1.44
   0  -4   6   48.81    1.44
   0  -4   6   50.26    1.51
   0  -4   6   50.98    1.44
   0  -4   6   47.81    1.45
  -1   4  -6   73.77    2.37
  -1   4  -6   77.74    2.22
  -1   4  -6   76.51    2.24
  -1   4  -6   79.25    2.38
   1  -4   6   78.06    2.23
   1  -4   6   74.87    2.38
   1  -4   6   75.20    2.26
   1  -4   6   81.31    2.25
  -2   4  -6  119.61    3.40
  -2   4  -6  121.83    3.42
  -2   4  -6  116.05    3.65
   2  -4   6  118.98    3.45
   2  -4   6  119.30    3.42
   2  -4   6  123.40    3.41
   2  -4   6  112.53    3.66
  -3   4  -6    2.67    0.13
  -3   4  -6    2.39    0.13
  -3   4  -6    2.64    0.13
   3  -4   6    2.35    0.13
   3  -4   6    2.29    0.13
   3  -4   6    2.50    0.13
   3  -4   6    2.55    0.14
  -4   4  -6   83.14    2.49
   4  -4   6   82.28    2.34
   4  -4   6   81.34    2.32
   4  -4   6   73.84    2.32
   4  -4   6   77.19    2.50
  -5   4  -6  100.99    3.10
   5  -4   6   97.21    2.88
   5  -4   6  100.18    2.89
   5  -4   6   98.60    3.11
   5  -4   6   98.56    2.90
  -6   4  -6    7.49    0.32
   6  -4   6    7.40    0.33
   6  -4   6    6.99    0.30
   6  -4   6    7.78    0.31
   6  -4   6    7.59    0.28
  -7   4  -6    0.39    0.08
   7  -4   6    0.46    0.07
   7  -4   6    0.53    0.09
   7  -4   6    0.45    0.10
   7  -4   6    0.38    0.08
  -8   4  -6   18.57    0.67
   8  -4   6   17.81    0.64
   8  -4   6   18.06    0.59
   8  -4   6   16.72    0.62
  -9   4  -6    1.93    0.19
   9  -4   6    1.39    0.16
   9  -4   6    1.53    0.12
   9  -4   6    1.42    0.15
 -10   4  -6   17.11    0.66
  10  -4   6   16.44    0.64
  10  -4   6   16.83    0.56
  10  -4   6   15.75    0.61
 -11   4  -6    0.76    0.15
  11  -4   6    0.89    0.10
  11  -4   6    0.80    0.14
  11  -4   6    0.73    0.16
 -12   4  -6    5.00    0.31
  12  -4   6    5.06    0.30
  12  -4   6    5.09    0.34
 -13   4  -6    1.27    0.19
  13  -4   6    1.32    0.20
  13  -4   6    1.57    0.19
 -14   4  -6    2.16    0.25
  14  -4   6    2.13    0.23
  14  -4   6    2.15    0.26
  15  -4   6    2.21    0.28
  15  -4   6    2.36    0.26
 -13  -3   6   -0.03    0.10
 -12  -3   6    0.14    0.11
 -11  -3   6    3.28    0.24
  10   3  -6    0.07    0.07
 -10  -3   6    0.08    0.08
  -9  -3   6    2.12    0.18
  -8  -3   6   28.03    0.96
  -7  -3   6   -0.03    0.05
   6   3  -6    2.81    0.16
  -6  -3   6    2.84    0.16
   5   3  -6    7.17    0.28
  -5  -3   6    7.04    0.27
   4   3  -6    1.86    0.12
   4   3  -6    1.59    0.14
  -4  -3   6    1.98    0.10
  -4  -3   6    1.92    0.10
   3   3  -6    4.17    0.19
   3   3  -6    3.80    0.14
   3   3  -6    4.24    0.17
  -3  -3   6    4.09    0.16
  -3  -3   6    3.83    0.16
   2   3  -6    4.10    0.18
   2   3  -6    3.99    0.16
  -2  -3   6    4.13    0.15
  -2  -3   6    4.02    0.16
  -2  -3   6    4.23    0.17
   1   3  -6    1.57    0.10
   1   3  -6    1.76    0.09
  -1  -3   6    1.71    0.10
  -1  -3   6    1.64    0.09
  -1  -3   6    1.76    0.08
  -1  -3   6    1.57    0.10
   0   3  -6   66.21    1.86
   0   3  -6   65.81    1.97
   0   3  -6   65.04    1.85
   0   3  -6   62.21    1.97
   0  -3   6   62.40    1.85
   0  -3   6   65.50    1.86
   0  -3   6   63.23    1.99
   0  -3   6   62.54    1.88
  -1   3  -6   13.85    0.43
  -1   3  -6   14.86    0.45
  -1   3  -6   14.22    0.47
   1  -3   6   15.12    0.46
   1  -3   6   13.49    0.44
   1  -3   6   13.82    0.47
  -2   3  -6    7.80    0.27
  -2   3  -6    6.93    0.28
  -2   3  -6    7.91    0.26
   2  -3   6    8.09    0.28
   2  -3   6    7.54    0.29
   2  -3   6    8.11    0.26
  -3   3  -6   15.52    0.56
  -3   3  -6   17.10    0.54
   3  -3   6   17.49    0.54
   3  -3   6   17.58    0.58
   3  -3   6   16.19    0.52
  -4   3  -6    0.74    0.08
   4  -3   6    1.01    0.10
   4  -3   6    1.03    0.09
   4  -3   6    0.94    0.09
  -5   3  -6    5.30    0.25
   5  -3   6    5.30    0.24
   5  -3   6    5.62    0.26
   5  -3   6    5.60    0.24
  -6   3  -6    9.17    0.37
   6  -3   6    9.15    0.35
  -7   3  -6   23.75    0.83
   7  -3   6   24.39    0.79
   7  -3   6   22.91    0.85
   7  -3   6   24.13    0.75
  -8   3  -6   17.50    0.65
   8  -3   6   16.32    0.60
   8  -3   6   17.65    0.57
  -9   3  -6    6.93    0.34
   9  -3   6    6.68    0.27
   9  -3   6    6.85    0.32
 -10   3  -6   -0.02    0.08
  10  -3   6   -0.02    0.08
  10  -3   6    0.07    0.05
 -11   3  -6    0.65    0.14
  11  -3   6    0.78    0.09
  11  -3   6    0.71    0.14
 -12   3  -6    1.09    0.17
  12  -3   6    1.07    0.16
  12  -3   6    1.24    0.20
 -13   3  -6    0.14    0.11
  13  -3   6    0.11    0.14
  13  -3   6    0.01    0.09
 -14   3  -6   10.85    0.55
  14  -3   6   11.11    0.51
  14  -3   6   10.58    0.56
 -13  -2   6    0.28    0.12
 -12  -2   6    2.27    0.23
 -11  -2   6    0.02    0.09
  10   2  -6    8.89    0.35
 -10  -2   6    8.67    0.40
   9   2  -6    0.51    0.09
  -9  -2   6    0.50    0.10
   8   2  -6    0.66    0.09
  -8  -2   6    0.60    0.10
  -7  -2   6    0.61    0.09
  -6  -2   6    7.08    0.29
   5   2  -6    0.68    0.07
  -5  -2   6    0.77    0.05
  -5  -2   6    0.68    0.07
   4   2  -6    0.18    0.04
  -4  -2   6    0.19    0.04
  -4  -2   6    0.10    0.03
   3   2  -6    7.86    0.27
   3   2  -6    8.19    0.26
  -3  -2   6    7.89    0.28
  -3  -2   6    8.16    0.27
   2   2  -6   13.21    0.42
   2   2  -6   12.71    0.42
   2   2  -6   13.42    0.40
  -2  -2   6   12.60    0.40
  -2  -2   6   12.95    0.43
   1   2  -6  157.63    4.80
   1   2  -6  153.63    4.82
   1   2  -6  164.66    4.49
   1   2  -6  151.94    4.45
  -1  -2   6  155.63    4.80
  -1  -2   6  156.22    4.48
   0   2  -6  158.35    4.60
   0   2  -6  158.78    4.95
   0   2  -6  161.71    4.59
   0  -2   6  164.05    4.97
   0  -2   6  163.16    4.60
   0  -2   6  164.91    5.01
   0  -2   6  160.29    4.59
  -1   2  -6   14.28    0.45
  -1   2  -6   14.61    0.48
   1  -2   6   14.32    0.49
   1  -2   6   14.48    0.43
   1  -2   6   13.71    0.45
  -2   2  -6   62.12    1.96
  -2   2  -6   63.20    1.83
   2  -2   6   63.57    1.97
   2  -2   6   61.64    1.82
   2  -2   6   62.59    1.80
  -3   2  -6   30.60    0.90
  -3   2  -6   29.02    0.96
   3  -2   6   29.29    0.97
   3  -2   6   28.82    0.90
  -4   2  -6   13.44    0.47
   4  -2   6   11.88    0.44
   4  -2   6   13.18    0.48
  -5   2  -6    1.16    0.11
   5  -2   6    1.31    0.11
  -6   2  -6    7.00    0.30
   6  -2   6    6.54    0.31
   6  -2   6    6.12    0.28
  -7   2  -6   24.71    0.84
   7  -2   6   22.80    0.78
  -8   2  -6   11.02    0.48
   8  -2   6   12.53    0.47
  -9   2  -6    0.77    0.13
   9  -2   6    0.93    0.14
   9  -2   6    0.98    0.09
 -10   2  -6   21.89    0.84
  10  -2   6   22.91    0.79
  10  -2   6   22.11    0.71
 -11   2  -6   17.27    0.70
  11  -2   6   16.65    0.65
 -12   2  -6    3.07    0.26
  12  -2   6    2.43    0.24
 -13   2  -6   -0.04    0.10
  13  -2   6    0.10    0.11
 -14   2  -6    2.76    0.29
  14  -2   6    2.95    0.29
 -14  -1   6    1.40    0.21
 -13  -1   6    1.22    0.19
 -12  -1   6   26.78    1.00
  11   1  -6   10.51    0.40
 -11  -1   6   11.13    0.49
  10   1  -6    4.36    0.21
 -10  -1   6    4.55    0.27
   9   1  -6   86.00    2.53
  -9  -1   6   87.42    2.77
   8   1  -6    4.24    0.19
  -8  -1   6    4.43    0.24
   7   1  -6    0.00    0.03
  -7  -1   6   -0.01    0.05
   6   1  -6   16.45    0.49
  -6  -1   6   14.60    0.55
  -5  -1   6   25.20    0.84
  -5  -1   6   25.71    0.75
   4   1  -6   19.88    0.58
  -4  -1   6   19.33    0.65
   3   1  -6   18.06    0.52
  -3  -1   6   17.59    0.59
   2   1  -6  271.71    7.71
  -2  -1   6  271.84    7.72
  -2  -1   6  267.90    8.41
   1   1  -6   28.81    0.84
   1   1  -6   29.35    0.85
  -1  -1   6   29.82    0.94
  -1  -1   6   29.54    0.85
   0   1  -6    8.69    0.31
   0   1  -6    8.45    0.27
   0   1  -6    8.61    0.31
   0  -1   6    8.15    0.31
   0  -1   6    8.17    0.27
  -1   1  -6   93.82    2.74
  -1   1  -6   95.99    2.96
   1  -1   6   96.63    2.97
   1  -1   6   94.72    2.74
  -2   1  -6   16.05    0.55
   2  -1   6   15.64    0.56
   2  -1   6   15.70    0.51
  -3   1  -6    1.68    0.12
   3  -1   6    1.70    0.11
   3  -1   6    1.89    0.14
  -4   1  -6  199.77    6.18
   4  -1   6  192.83    5.74
   4  -1   6  207.56    6.19
  -5   1  -6   33.26    1.05
   5  -1   6   29.35    1.05
   5  -1   6   30.60    0.98
  -6   1  -6    6.13    0.29
   6  -1   6    6.52    0.29
  -7   1  -6    2.62    0.18
   7  -1   6    2.81    0.18
  -8   1  -6    2.44    0.20
   8  -1   6    2.28    0.18
  -9   1  -6   17.25    0.67
   9  -1   6   17.03    0.64
 -10   1  -6    0.62    0.13
  10  -1   6    0.51    0.12
 -11   1  -6    5.50    0.34
  11  -1   6    5.81    0.32
 -12   1  -6   10.32    0.51
  12  -1   6    9.89    0.47
 -13   1  -6   21.72    0.89
  13  -1   6   21.87    0.83
 -14   1  -6   15.74    0.72
  14  -1   6   15.08    0.66
  14   0  -6    0.10    0.14
 -14   0   6   -0.07    0.11
 -13   0   6    1.23    0.19
 -12   0   6    3.52    0.27
  11   0  -6   20.52    0.67
 -11   0   6   20.63    0.79
  10   0  -6    3.65    0.18
 -10   0   6    3.88    0.25
   9   0  -6    2.53    0.14
  -9   0   6    2.50    0.20
   8   0  -6    1.84    0.11
  -8   0   6    1.88    0.15
   7   0  -6    5.00    0.19
  -7   0   6    5.74    0.26
   6   0  -6    8.62    0.27
  -6   0   6    8.48    0.34
   5   0  -6   97.24    2.74
  -5   0   6   95.34    3.00
   4   0  -6   16.96    0.57
  -4   0   6   17.15    0.58
   3   0  -6    0.09    0.03
   3   0  -6   -0.01    0.02
  -3   0   6    0.12    0.04
   2   0  -6  197.16    6.08
   2   0  -6  192.86    5.63
  -2   0   6  195.50    6.05
  -2   0   6  201.93    5.62
   1   0  -6   38.50    1.14
   1   0  -6   40.78    1.27
  -1   0   6   40.72    1.27
  -1   0   6   39.78    1.15
  -1   0   6   38.38    1.14
   0   0  -6   45.50    1.45
   0   0  -6   46.09    1.45
   0   0   6   46.02    1.45
   0   0   6   43.90    1.30
  -1   0  -6   43.46    1.36
   1   0   6   40.49    1.36
  -2   0  -6   83.99    2.65
   2   0   6   84.76    2.66
  -3   0  -6   30.13    0.97
   3   0   6   27.57    0.97
  -4   0  -6   28.81    0.98
   4   0   6   28.52    0.92
   4   0   6   29.63    0.99
  -5   0  -6    4.57    0.24
   5   0   6    4.11    0.22
  -6   0  -6    1.43    0.15
   6   0   6    1.23    0.13
  -7   0  -6    0.05    0.07
   7   0   6    0.06    0.07
  -8   0  -6   20.23    0.73
   8   0   6   17.54    0.67
  -9   0  -6    3.55    0.25
   9   0   6    4.04    0.26
 -10   0  -6   32.83    1.20
  10   0   6   34.22    1.13
 -11   0  -6    1.65    0.20
  11   0   6    1.27    0.18
 -12   0  -6    7.79    0.43
  12   0   6    7.92    0.42
 -13   0  -6    0.98    0.20
  13   0   6    0.90    0.19
  15  -1  -6    0.20    0.14
 -15   1   6    0.16    0.13
  14  -1  -6   -0.09    0.11
 -14   1   6   -0.01    0.11
  13  -1  -6    0.54    0.16
 -13   1   6    0.35    0.13
  12  -1  -6    3.37    0.28
 -12   1   6    3.36    0.26
  11  -1  -6   63.20    1.88
  11  -1  -6   64.59    1.99
 -11   1   6   63.18    2.10
  10  -1  -6    2.59    0.15
 -10   1   6    3.14    0.23
   9  -1  -6   30.05    0.92
  -9   1   6   30.93    1.06
   8  -1  -6    3.62    0.15
  -8   1   6    3.56    0.21
   7  -1  -6    4.35    0.16
   7  -1  -6    3.99    0.21
  -7   1   6    4.18    0.22
   6  -1  -6    3.19    0.12
   6  -1  -6    3.07    0.17
  -6   1   6    3.13    0.18
   5  -1  -6    2.08    0.14
   5  -1  -6    2.42    0.09
   5  -1  -6    2.58    0.14
  -5   1   6    2.61    0.15
   4  -1  -6  106.20    3.02
   4  -1  -6  101.59    3.26
  -4   1   6  102.18    2.98
  -4   1   6  110.77    3.28
   3  -1  -6    0.38    0.05
   3  -1  -6    0.30    0.05
  -3   1   6    0.31    0.06
  -3   1   6    0.34    0.05
  -3   1   6    0.38    0.04
   2  -1  -6   27.65    0.82
   2  -1  -6   26.16    0.91
  -2   1   6   29.59    0.92
  -2   1   6   28.19    0.82
   1  -1  -6    0.14    0.04
   1  -1  -6    0.16    0.05
  -1   1   6    0.14    0.06
  -1   1   6    0.21    0.04
   0  -1  -6  164.70    5.15
   0  -1  -6  163.71    4.75
   0   1   6  172.30    4.75
  -1  -1  -6   21.37    0.74
   1   1   6   21.23    0.66
  -2  -1  -6   28.47    0.91
   2   1   6   25.13    0.91
  -3  -1  -6    3.22    0.19
   3   1   6    3.38    0.20
  -4  -1  -6    2.83    0.19
  -5  -1  -6    0.65    0.11
  -6  -1  -6    1.57    0.16
  -7  -1  -6   28.12    1.01
   7   1   6   28.82    0.96
  -8  -1  -6   18.09    0.70
   8   1   6   17.86    0.67
  -9  -1  -6    0.19    0.10
   9   1   6    0.06    0.09
 -10  -1  -6    4.85    0.31
  10   1   6    4.83    0.31
 -11  -1  -6    4.59    0.32
  11   1   6    5.00    0.32
 -12  -1  -6    0.30    0.14
  12   1   6    0.46    0.14
 -13  -1  -6   11.69    0.59
  13   1   6   11.88    0.57
  15  -2  -6    2.15    0.27
 -15   2   6    1.76    0.24
  14  -2  -6    1.41    0.21
 -14   2   6    1.23    0.20
  13  -2  -6   -0.04    0.12
 -13   2   6    0.00    0.10
  12  -2  -6    4.31    0.29
 -12   2   6    4.32    0.29
  11  -2  -6    3.25    0.17
  11  -2  -6    3.02    0.25
 -11   2   6    3.11    0.24
  10  -2  -6    0.55    0.07
  10  -2  -6    0.45    0.12
 -10   2   6    0.52    0.12
   9  -2  -6    1.52    0.10
   9  -2  -6    1.70    0.17
  -9   2   6    1.41    0.16
   8  -2  -6   10.66    0.35
   8  -2  -6   10.83    0.42
  -8   2   6   10.80    0.34
  -8   2   6   11.00    0.45
   7  -2  -6    2.88    0.17
   7  -2  -6    2.66    0.11
  -7   2   6    2.45    0.17
   6  -2  -6   14.45    0.50
   6  -2  -6   15.13    0.45
  -6   2   6   14.61    0.54
  -6   2   6   14.62    0.45
   5  -2  -6  283.10    7.94
   5  -2  -6  290.21    8.01
   5  -2  -6  281.72    8.56
  -5   2   6  281.86    7.94
  -5   2   6  257.08    8.57
   4  -2  -6    0.03    0.03
   4  -2  -6    0.02    0.04
  -4   2   6    0.07    0.04
  -4   2   6    0.00    0.02
  -4   2   6    0.03    0.05
   3  -2  -6   17.23    0.55
   3  -2  -6   17.10    0.60
  -3   2   6   17.77    0.54
  -3   2   6   18.20    0.54
  -3   2   6   17.67    0.62
   2  -2  -6  147.78    4.73
   2  -2  -6  157.77    4.36
  -2   2   6  149.71    4.73
  -2   2   6  156.17    4.36
   1  -2  -6   12.89    0.48
   1  -2  -6   13.58    0.43
  -1   2   6   12.76    0.49
  -1   2   6   13.83    0.43
   0  -2  -6    1.08    0.10
   0  -2  -6    1.30    0.12
   0   2   6    1.15    0.09
  -1  -2  -6   19.75    0.69
  -1  -2  -6   18.61    0.67
  -2  -2  -6   31.62    1.08
   2   2   6   32.55    1.01
  -3  -2  -6   64.53    2.08
  -4  -2  -6   15.78    0.60
  -5  -2  -6   27.60    0.97
  -6  -2  -6   11.69    0.49
  -7  -2  -6    3.41    0.25
  -8  -2  -6   25.66    0.92
   8   2   6   23.74    0.87
  -9  -2  -6    1.19    0.17
   9   2   6    1.70    0.21
 -10  -2  -6    2.74    0.24
  10   2   6    2.24    0.24
 -11  -2  -6    0.16    0.12
  11   2   6    0.21    0.13
 -12  -2  -6    0.92    0.19
  12   2   6    0.89    0.18
  15  -3  -6    1.42    0.23
 -15   3   6    1.39    0.23
  14  -3  -6    1.21    0.21
 -14   3   6    1.04    0.18
  13  -3  -6    8.76    0.44
 -13   3   6    8.70    0.46
  12  -3  -6    0.70    0.16
 -12   3   6    0.87    0.15
  11  -3  -6    0.51    0.08
  11  -3  -6    0.52    0.14
 -11   3   6    0.50    0.13
  10  -3  -6   10.40    0.36
  10  -3  -6   10.12    0.44
 -10   3   6   10.04    0.32
 -10   3   6   10.89    0.47
   9  -3  -6    0.26    0.09
   9  -3  -6    0.30    0.06
  -9   3   6    0.13    0.07
  -9   3   6    0.31    0.05
   8  -3  -6   14.78    0.46
   8  -3  -6   14.90    0.53
  -8   3   6   13.27    0.55
  -8   3   6   14.56    0.46
   7  -3  -6    6.13    0.27
   7  -3  -6    5.94    0.22
  -7   3   6    5.91    0.29
  -7   3   6    5.87    0.21
   6  -3  -6    2.58    0.16
   6  -3  -6    2.41    0.16
   6  -3  -6    2.51    0.12
  -6   3   6    2.41    0.17
  -6   3   6    2.52    0.11
   5  -3  -6    0.29    0.07
   5  -3  -6    0.36    0.07
   5  -3  -6    0.30    0.05
  -5   3   6    0.23    0.07
  -5   3   6    0.43    0.07
  -5   3   6    0.36    0.05
   4  -3  -6    9.61    0.34
  -4   3   6    9.86    0.32
  -4   3   6    9.41    0.38
   3  -3  -6   40.64    1.43
   3  -3  -6   45.32    1.33
  -3   3   6   43.90    1.32
  -3   3   6   44.81    1.32
  -3   3   6   48.78    1.46
   2  -3  -6    9.97    0.40
   2  -3  -6   10.70    0.37
  -2   3   6   10.74    0.37
  -2   3   6   11.67    0.42
  -2   3   6   10.64    0.36
   1  -3  -6  117.27    3.60
   1  -3  -6  118.70    3.34
  -1   3   6  114.47    3.32
  -1   3   6  110.90    3.60
   0  -3  -6    1.30    0.13
   0  -3  -6    1.47    0.12
  -1  -3  -6    2.81    0.18
  -1  -3  -6    2.94    0.19
  -1  -3  -6    3.06    0.18
   1   3   6    2.86    0.17
  -2  -3  -6   48.10    1.59
  -3  -3  -6   57.00    1.86
  -4  -3  -6   44.32    1.48
  -5  -3  -6    0.72    0.12
  -6  -3  -6   21.05    0.79
  -7  -3  -6    4.60    0.29
  -8  -3  -6   17.41    0.70
  -9  -3  -6    2.55    0.24
   9   3   6    2.88    0.27
 -10  -3  -6   21.16    0.84
  10   3   6   21.14    0.82
 -11  -3  -6    7.64    0.43
  11   3   6    7.15    0.42
 -12  -3  -6    0.19    0.13
  12   3   6    0.31    0.14
  15  -4  -6   11.23    0.56
 -15   4   6   10.56    0.56
  14  -4  -6    3.96    0.31
 -14   4   6    3.92    0.32
  13  -4  -6    0.62    0.15
 -13   4   6    0.50    0.14
  12  -4  -6    1.23    0.12
  12  -4  -6    1.33    0.18
 -12   4   6    1.33    0.18
  11  -4  -6    0.53    0.08
  11  -4  -6    0.65    0.15
 -11   4   6    0.44    0.13
  10  -4  -6    1.31    0.17
  10  -4  -6    1.45    0.11
 -10   4   6    1.23    0.09
 -10   4   6    0.93    0.16
   9  -4  -6    0.03    0.07
   9  -4  -6    0.07    0.05
  -9   4   6    0.10    0.08
  -9   4   6    0.00    0.02
  -9   4   6    0.07    0.03
   8  -4  -6    6.46    0.29
   8  -4  -6    6.27    0.24
  -8   4   6    5.80    0.31
   7  -4  -6    9.71    0.38
   7  -4  -6    9.86    0.34
  -7   4   6    9.69    0.41
  -7   4   6    9.91    0.33
   6  -4  -6   29.68    1.02
   6  -4  -6   31.02    0.96
   6  -4  -6   30.29    0.93
  -6   4   6   30.08    1.04
  -6   4   6   31.17    0.91
   5  -4  -6    7.01    0.28
   5  -4  -6    6.86    0.27
  -5   4   6    7.51    0.32
  -5   4   6    7.11    0.25
  -5   4   6    6.52    0.27
   4  -4  -6   10.75    0.39
   4  -4  -6   10.85    0.42
  -4   4   6   10.53    0.38
  -4   4   6   11.00    0.43
  -4   4   6   10.87    0.37
   3  -4  -6   12.30    0.47
   3  -4  -6   12.04    0.43
  -3   4   6   12.53    0.42
  -3   4   6   12.33    0.48
   2  -4  -6    0.28    0.08
   2  -4  -6    0.07    0.06
  -2   4   6    0.16    0.06
  -2   4   6    0.11    0.07
  -2   4   6    0.24    0.07
   1  -4  -6   12.78    0.48
   1  -4  -6   12.12    0.44
  -1   4   6   12.44    0.44
  -1   4   6   11.84    0.47
   0  -4  -6   36.91    1.16
   0  -4  -6   35.77    1.23
   0   4   6   38.34    1.16
  -1  -4  -6    9.47    0.41
  -1  -4  -6    9.60    0.39
  -1  -4  -6    9.46    0.40
  -2  -4  -6    1.08    0.14
  -3  -4  -6    7.65    0.36
  -4  -4  -6    0.53    0.11
  -5  -4  -6    1.14    0.15
  -6  -4  -6   -0.03    0.08
  -7  -4  -6    1.04    0.16
  -8  -4  -6    3.19    0.26
  -9  -4  -6    2.45    0.25
 -10  -4  -6    1.23    0.19
  10   4   6    1.43    0.22
 -11  -4  -6    8.71    0.49
  11   4   6   10.19    0.51
  16  -5  -6    2.78    0.30
 -16   5   6    2.68    0.32
  15  -5  -6    1.73    0.25
 -15   5   6    1.78    0.23
  14  -5  -6   34.96    1.21
 -14   5   6   34.02    1.28
  13  -5  -6    2.64    0.27
 -13   5   6    2.44    0.26
  12  -5  -6    4.19    0.21
  12  -5  -6    4.45    0.30
 -12   5   6    4.21    0.30
  11  -5  -6    1.99    0.15
  11  -5  -6    2.19    0.23
 -11   5   6    2.47    0.24
  10  -5  -6    0.62    0.14
  10  -5  -6    0.64    0.09
 -10   5   6    0.34    0.11
 -10   5   6    0.56    0.08
 -10   5   6    0.62    0.08
   9  -5  -6    4.39    0.21
   9  -5  -6    4.70    0.26
  -9   5   6    4.42    0.19
  -9   5   6    4.44    0.27
  -9   5   6    4.74    0.21
   8  -5  -6    5.09    0.22
   8  -5  -6    5.03    0.26
  -8   5   6    5.27    0.21
  -8   5   6    5.38    0.29
   7  -5  -6    3.54    0.18
   7  -5  -6    3.31    0.20
  -7   5   6    3.47    0.16
  -7   5   6    4.32    0.24
   6  -5  -6    9.76    0.39
   6  -5  -6    9.57    0.37
   6  -5  -6    9.72    0.35
  -6   5   6    8.69    0.33
  -6   5   6    9.67    0.41
   5  -5  -6    0.54    0.08
   5  -5  -6    0.67    0.09
   5  -5  -6    0.47    0.08
  -5   5   6    0.59    0.07
  -5   5   6    0.71    0.10
   4  -5  -6    2.94    0.18
   4  -5  -6    3.09    0.18
  -4   5   6    2.97    0.19
  -4   5   6    2.90    0.16
   3  -5  -6   29.15    0.97
   3  -5  -6   27.76    0.91
  -3   5   6   29.96    0.91
  -3   5   6   27.10    0.98
   2  -5  -6    2.22    0.16
   2  -5  -6    2.44    0.17
  -2   5   6    2.13    0.16
   1  -5  -6    0.17    0.08
   1  -5  -6    0.12    0.08
   0  -5  -6   -0.09    0.07
   0  -5  -6    0.09    0.06
  -1  -5  -6    1.11    0.13
  -1  -5  -6    0.84    0.12
  -1  -5  -6    0.76    0.13
  -2  -5  -6    0.44    0.10
  -2  -5  -6    0.37    0.11
  -3  -5  -6    3.23    0.24
  -4  -5  -6   10.04    0.46
  -5  -5  -6    0.32    0.12
  -6  -5  -6   39.56    1.38
  -7  -5  -6    0.91    0.16
  -8  -5  -6   11.59    0.55
  -9  -5  -6    0.23    0.13
 -10  -5  -6    5.84    0.39
  10   5   6    6.32    0.41
  16  -6  -6    0.35    0.17
  15  -6  -6   -0.04    0.13
 -15   6   6    0.02    0.12
  14  -6  -6    1.15    0.21
 -14   6   6    1.27    0.21
  13  -6  -6   -0.04    0.11
 -13   6   6    0.05    0.11
  12  -6  -6    0.51    0.10
  12  -6  -6    0.50    0.15
 -12   6   6    0.62    0.14
  11  -6  -6   20.08    0.68
  11  -6  -6   20.74    0.75
 -11   6   6   19.79    0.80
  10  -6  -6    0.10    0.07
  10  -6  -6    0.17    0.11
 -10   6   6    0.10    0.09
   9  -6  -6   12.90    0.51
   9  -6  -6   12.36    0.46
  -9   6   6   13.25    0.55
   8  -6  -6   53.46    1.61
   8  -6  -6   53.64    1.65
  -8   6   6   53.36    1.78
   7  -6  -6   15.65    0.54
   7  -6  -6   15.00    0.56
   7  -6  -6   15.81    0.59
  -7   6   6   15.66    0.52
  -7   6   6   14.63    0.60
   6  -6  -6   39.78    1.19
   6  -6  -6   37.67    1.20
  -6   6   6   36.95    1.29
   5  -6  -6    6.43    0.28
   5  -6  -6    5.48    0.27
   5  -6  -6    5.83    0.28
  -5   6   6    5.73    0.29
   4  -6  -6    5.48    0.26
   4  -6  -6    5.44    0.27
  -4   6   6    5.05    0.27
   3  -6  -6    6.42    0.30
   3  -6  -6    6.15    0.30
  -3   6   6    6.59    0.31
   2  -6  -6   15.88    0.58
   2  -6  -6   16.39    0.61
  -2   6   6   16.02    0.61
   1  -6  -6    5.07    0.28
   1  -6  -6    5.24    0.27
   0  -6  -6   14.32    0.56
   0  -6  -6   13.86    0.55
  -1  -6  -6   26.18    0.93
  -1  -6  -6   25.45    0.90
  -1  -6  -6   26.42    0.95
  -2  -6  -6   74.77    2.41
  -2  -6  -6   73.51    2.42
  -3  -6  -6   22.26    0.83
  -3  -6  -6   21.79    0.83
  -4  -6  -6   30.39    1.10
  -5  -6  -6   12.11    0.54
  -6  -6  -6    0.11    0.10
  -7  -6  -6    6.36    0.38
  -8  -6  -6    0.38    0.14
  -9  -6  -6    4.88    0.35
  16  -7  -6    3.56    0.36
  15  -7  -6    1.12    0.22
  14  -7  -6    0.14    0.13
 -14   7   6   -0.06    0.10
  13  -7  -6    0.72    0.17
 -13   7   6    0.49    0.14
  12  -7  -6    1.62    0.16
  12  -7  -6    1.38    0.19
 -12   7   6    1.88    0.23
  11  -7  -6   67.61    2.15
  11  -7  -6   71.24    2.09
 -11   7   6   69.93    2.32
  10  -7  -6    2.56    0.18
  10  -7  -6    2.68    0.22
 -10   7   6    2.74    0.24
   9  -7  -6   30.95    1.06
   9  -7  -6   32.04    1.03
  -9   7   6   33.11    1.15
   8  -7  -6    3.62    0.24
   8  -7  -6    3.55    0.22
  -8   7   6    3.61    0.25
   7  -7  -6    2.70    0.19
   7  -7  -6    2.65    0.19
   7  -7  -6    2.33    0.18
  -7   7   6    2.32    0.20
   6  -7  -6    0.09    0.06
   6  -7  -6    0.05    0.08
   6  -7  -6    0.09    0.07
  -6   7   6   -0.04    0.06
   5  -7  -6   21.17    0.73
   5  -7  -6   22.06    0.77
  -5   7   6   19.58    0.77
   4  -7  -6    5.88    0.29
   4  -7  -6    5.90    0.29
  -4   7   6    5.18    0.29
   3  -7  -6   14.16    0.53
   3  -7  -6   13.23    0.52
  -3   7   6   12.53    0.53
   2  -7  -6   35.79    1.18
   2  -7  -6   36.52    1.24
  -2   7   6   36.81    1.24
   1  -7  -6   37.69    1.25
   1  -7  -6   38.81    1.31
   0  -7  -6    3.38    0.26
   0  -7  -6    3.43    0.23
  -1  -7  -6    8.58    0.43
  -1  -7  -6    8.54    0.40
  -1  -7  -6    8.47    0.43
  -2  -7  -6    1.98    0.21
  -2  -7  -6    2.47    0.23
  -3  -7  -6   38.92    1.37
  -4  -7  -6   20.48    0.81
  -5  -7  -6    5.00    0.32
  -6  -7  -6    0.65    0.15
  -7  -7  -6    0.91    0.18
  -8  -7  -6    0.81    0.17
  16  -8  -6   -0.01    0.15
  15  -8  -6    3.83    0.33
  14  -8  -6   -0.02    0.14
  13  -8  -6    0.18    0.13
 -13   8   6    0.15    0.14
  12  -8  -6    1.67    0.17
  12  -8  -6    1.36    0.19
 -12   8   6    1.21    0.19
  11  -8  -6    2.11    0.18
  11  -8  -6    1.75    0.22
 -11   8   6    2.12    0.23
  10  -8  -6   16.15    0.64
  10  -8  -6   16.21    0.60
 -10   8   6   17.02    0.70
   9  -8  -6    0.11    0.09
   9  -8  -6    0.02    0.10
  -9   8   6    0.10    0.10
   8  -8  -6   28.91    0.94
   8  -8  -6   28.21    0.96
   8  -8  -6   26.93    0.99
  -8   8   6   28.46    1.03
   7  -8  -6   19.63    0.69
   7  -8  -6   19.87    0.70
  -7   8   6   17.67    0.73
   6  -8  -6   14.69    0.57
   6  -8  -6   14.40    0.58
   6  -8  -6   15.07    0.57
  -6   8   6   15.03    0.61
   5  -8  -6    9.81    0.43
   5  -8  -6    9.85    0.43
  -5   8   6    9.65    0.44
   4  -8  -6    5.52    0.30
   4  -8  -6    5.91    0.31
  -4   8   6    5.86    0.31
   3  -8  -6    9.78    0.43
   3  -8  -6    9.35    0.41
  -3   8   6    8.92    0.41
   2  -8  -6    2.93    0.21
   2  -8  -6    3.13    0.25
   1  -8  -6    9.17    0.42
   1  -8  -6    9.33    0.45
   0  -8  -6   28.67    1.02
   0  -8  -6   28.81    1.03
  -1  -8  -6   60.03    1.95
  -1  -8  -6   55.10    1.84
  -2  -8  -6    5.43    0.34
  -3  -8  -6    6.17    0.36
  -4  -8  -6    2.83    0.26
  -5  -8  -6   33.30    1.22
  -6  -8  -6    5.77    0.37
  -7  -8  -6   -0.02    0.11
  16  -9  -6    0.20    0.17
  15  -9  -6    0.24    0.17
  14  -9  -6    0.08    0.15
  13  -9  -6    0.35    0.16
  12  -9  -6    3.87    0.31
  12  -9  -6    4.00    0.26
  11  -9  -6    2.30    0.25
  11  -9  -6    2.12    0.20
 -11   9   6    2.11    0.24
  10  -9  -6    0.09    0.12
  10  -9  -6   -0.06    0.09
 -10   9   6   -0.08    0.09
   9  -9  -6   20.94    0.77
   9  -9  -6   22.36    0.80
  -9   9   6   21.72    0.85
   8  -9  -6    2.25    0.22
   8  -9  -6    2.04    0.21
  -8   9   6    2.32    0.23
   7  -9  -6    1.31    0.17
   7  -9  -6    1.03    0.16
  -7   9   6    1.38    0.18
   6  -9  -6    0.03    0.07
   6  -9  -6    0.04    0.09
  -6   9   6   -0.02    0.08
   5  -9  -6    6.54    0.35
   5  -9  -6    6.92    0.34
  -5   9   6    7.07    0.36
   4  -9  -6   12.85    0.55
   4  -9  -6   13.35    0.57
  -4   9   6   13.95    0.56
   3  -9  -6   28.70    1.00
   3  -9  -6   27.28    1.00
  -3   9   6   28.46    1.01
   2  -9  -6    0.18    0.09
   2  -9  -6    0.06    0.11
   1  -9  -6    0.14    0.13
   0  -9  -6    3.85    0.31
  -1  -9  -6    0.90    0.18
  -1  -9  -6    0.84    0.16
  -2  -9  -6    8.11    0.44
  -3  -9  -6    1.94    0.22
  -4  -9  -6    0.32    0.13
  -5  -9  -6   12.12    0.57
  -6  -9  -6    1.94    0.23
  15 -10  -6    0.86    0.22
  14 -10  -6    2.52    0.28
  13 -10  -6    3.00    0.31
  12 -10  -6    0.60    0.17
  12 -10  -6    0.58    0.14
  11 -10  -6    8.73    0.41
  11 -10  -6    7.93    0.43
  10 -10  -6    1.52    0.22
  10 -10  -6    1.46    0.19
   9 -10  -6    4.12    0.29
   9 -10  -6    5.12    0.32
   8 -10  -6   34.77    1.20
   8 -10  -6   35.03    1.18
   7 -10  -6    0.22    0.10
   7 -10  -6    0.18    0.12
   6 -10  -6    6.87    0.39
   5 -10  -6    0.66    0.16
   4 -10  -6    0.84    0.18
   3 -10  -6    0.55    0.15
   2 -10  -6    6.05    0.37
   1 -10  -6    4.86    0.36
   0 -10  -6    0.29    0.12
   0 -10  -6    0.28    0.14
  -1 -10  -6    2.31    0.25
  -1 -10  -6    2.11    0.27
  -2 -10  -6    0.40    0.14
  -3 -10  -6   13.07    0.61
  -4 -10  -6    1.66    0.22
  -5 -10  -6    0.81    0.17
  15 -11  -6    0.07    0.16
  14 -11  -6   17.01    0.74
  13 -11  -6    2.46    0.29
  13 -11  -6    2.00    0.26
  12 -11  -6    1.42    0.23
  12 -11  -6    1.02    0.18
  11 -11  -6    2.74    0.26
  11 -11  -6    2.57    0.28
  10 -11  -6   29.94    1.09
  10 -11  -6   32.98    1.13
   9 -11  -6    3.45    0.30
   9 -11  -6    3.55    0.28
   8 -11  -6   13.68    0.60
   8 -11  -6   13.00    0.58
   7 -11  -6    7.18    0.40
   6 -11  -6    6.15    0.37
   5 -11  -6    1.38    0.21
   4 -11  -6   15.71    0.67
   3 -11  -6   16.12    0.70
   2 -11  -6   23.10    0.91
   1 -11  -6    4.20    0.35
   0 -11  -6    6.93    0.45
   0 -11  -6    6.88    0.42
  -1 -11  -6    0.58    0.16
  -2 -11  -6    0.11    0.12
  -3 -11  -6    1.56    0.23
  -4 -11  -6    4.37    0.34
  15 -12  -6    0.19    0.18
  14 -12  -6    7.09    0.46
  13 -12  -6   22.35    0.91
  13 -12  -6   23.83    0.93
  12 -12  -6    0.90    0.21
  12 -12  -6    0.75    0.17
  11 -12  -6    5.59    0.39
  11 -12  -6    4.96    0.34
  10 -12  -6    2.50    0.27
  10 -12  -6    2.19    0.28
   9 -12  -6    2.35    0.26
   9 -12  -6    1.82    0.24
   8 -12  -6   -0.07    0.11
   7 -12  -6    4.94    0.36
   6 -12  -6    9.14    0.50
   5 -12  -6    0.33    0.15
   4 -12  -6    1.78    0.27
   3 -12  -6    1.71    0.25
   2 -12  -6    0.03    0.14
   1 -12  -6   15.22    0.72
   0 -12  -6    7.05    0.47
   0 -12  -6    7.83    0.46
  -1 -12  -6    2.01    0.25
  -2 -12  -6    1.56    0.23
  -3 -12  -6    6.65    0.42
  14 -13  -6   -0.04    0.16
  13 -13  -6    3.44    0.36
  12 -13  -6    0.83    0.19
  12 -13  -6    1.11    0.23
  11 -13  -6    1.49    0.25
  11 -13  -6    1.46    0.22
  10 -13  -6    1.47    0.26
  10 -13  -6    1.60    0.24
   9 -13  -6    5.58    0.41
   8 -13  -6    6.74    0.45
   7 -13  -6    0.24    0.17
   6 -13  -6    2.98    0.32
   5 -13  -6    4.40    0.40
   4 -13  -6   -0.11    0.14
   3 -13  -6    0.57    0.18
   2 -13  -6    0.03    0.15
   1 -13  -6    4.32    0.38
   1 -13  -6    4.49    0.37
   0 -13  -6    9.79    0.58
   0 -13  -6    8.57    0.51
  -1 -13  -6    1.24    0.22
  13 -14  -6    0.17    0.18
  12 -14  -6    8.21    0.48
  12 -14  -6    7.95    0.50
  11 -14  -6    5.33    0.40
  11 -14  -6    6.70    0.46
  10 -14  -6    0.37    0.17
   9 -14  -6    0.33    0.18
   8 -14  -6    1.63    0.26
   7 -14  -6    0.07    0.17
   6 -14  -6    0.74    0.22
   5 -14  -6    7.18    0.50
   4 -14  -6    0.59    0.20
   3 -14  -6    0.71    0.22
   2 -14  -6    0.02    0.15
   1 -14  -6    0.19    0.15
   1 -14  -6   -0.06    0.15
  11 -15  -6    0.26    0.18
  10 -15  -6   10.49    0.59
   9 -15  -6    0.39    0.21
   8 -15  -6    1.91    0.30
   7 -15  -6    0.40    0.21
   6 -15  -6    8.42    0.53
   5 -15  -6    0.74    0.23
   4 -15  -6    0.04    0.18
   3 -15  -6    0.97    0.25
   3 -17   7    2.67    0.36
   4 -17   7    0.44    0.23
   5 -17   7    0.16    0.17
   5 -17   7    0.53    0.22
   6 -17   7    0.55    0.22
   6 -17   7    0.27    0.20
   7 -17   7    0.74    0.21
   7 -17   7    1.06    0.24
   8 -17   7    1.56    0.30
   8 -17   7    2.13    0.33
   9 -17   7    0.23    0.18
   9 -17   7    0.32    0.21
  10 -17   7    2.94    0.36
  10 -17   7    2.93    0.35
  11 -17   7   -0.25    0.16
  11 -17   7   -0.38    0.14
   1 -16   7    6.68    0.32
   1 -16   7    5.83    0.45
   2 -16   7    1.68    0.29
   3 -16   7    0.36    0.17
   4 -16   7    1.25    0.25
   4 -16   7    1.52    0.28
   5 -16   7    7.18    0.48
   5 -16   7    7.44    0.49
   6 -16   7   11.62    0.63
   6 -16   7   13.25    0.66
   7 -16   7    4.27    0.41
   7 -16   7    3.62    0.39
   8 -16   7    5.97    0.46
   8 -16   7    6.57    0.46
   9 -16   7    7.60    0.51
   9 -16   7    8.74    0.53
  10 -16   7   -0.08    0.14
  10 -16   7   -0.12    0.14
  11 -16   7    4.99    0.41
  11 -16   7    5.43    0.43
  12 -16   7    0.20    0.19
  12 -16   7    0.26    0.18
  -1 -15   7    4.71    0.23
   0 -15   7    2.21    0.17
   0 -15   7    1.70    0.29
   1 -15   7    1.14    0.25
   2 -15   7   11.93    0.63
   3 -15   7   -0.03    0.16
   3 -15   7    0.05    0.14
   4 -15   7    1.00    0.22
   4 -15   7    0.93    0.22
   5 -15   7    0.78    0.20
   5 -15   7    0.41    0.17
   6 -15   7    1.31    0.25
   6 -15   7    1.92    0.26
   7 -15   7    0.68    0.20
   7 -15   7    0.09    0.16
   8 -15   7    4.44    0.38
   8 -15   7    4.13    0.36
   9 -15   7   30.41    1.14
   9 -15   7   30.21    1.14
  10 -15   7    8.14    0.48
  10 -15   7    8.11    0.49
  11 -15   7    0.88    0.20
  11 -15   7    0.65    0.20
  12 -15   7   16.57    0.75
  12 -15   7   15.56    0.72
  13 -15   7    4.66    0.39
  13 -15   7    4.02    0.39
  -3 -14   7    0.03    0.05
  -2 -14   7    6.90    0.28
  -1 -14   7    0.01    0.06
   0 -14   7    2.90    0.19
   0 -14   7    3.90    0.38
   1 -14   7    0.79    0.19
   2 -14   7    4.77    0.37
   2 -14   7    4.60    0.38
   3 -14   7    5.06    0.38
   3 -14   7    5.54    0.40
   4 -14   7    0.05    0.14
   4 -14   7    0.20    0.15
   5 -14   7   20.42    0.83
   5 -14   7   20.11    0.83
   6 -14   7    1.92    0.26
   6 -14   7    2.02    0.28
   7 -14   7    1.27    0.22
   7 -14   7    1.08    0.20
   8 -14   7    1.33    0.23
   8 -14   7    1.42    0.24
   9 -14   7    5.36    0.38
   9 -14   7    4.30    0.35
  10 -14   7   -0.02    0.11
  10 -14   7    0.25    0.15
  11 -14   7    3.00    0.32
  11 -14   7    2.72    0.30
  12 -14   7    7.04    0.46
  12 -14   7    7.22    0.45
  13 -14   7    1.89    0.27
  13 -14   7    2.17    0.29
  14 -14   7    8.65    0.53
  14 -14   7    9.31    0.52
  -4 -13   7    0.43    0.07
  -3 -13   7   11.22    0.40
  -2 -13   7    0.08    0.04
  -2 -13   7    0.07    0.05
  -1 -13   7    0.26    0.05
  -1 -13   7    0.17    0.15
  -1 -13   7    0.13    0.06
   0 -13   7    0.16    0.15
   0 -13   7    0.03    0.04
   1 -13   7    3.99    0.34
   1 -13   7    4.21    0.19
   2 -13   7    2.70    0.30
   2 -13   7    3.23    0.17
   2 -13   7    3.95    0.31
   3 -13   7    1.93    0.14
   3 -13   7    1.82    0.25
   3 -13   7    1.59    0.23
   4 -13   7    0.91    0.19
   4 -13   7    1.38    0.13
   4 -13   7    1.92    0.25
   5 -13   7    0.12    0.13
   5 -13   7    0.25    0.13
   6 -13   7    4.46    0.33
   6 -13   7    4.19    0.32
   7 -13   7    2.08    0.25
   7 -13   7    2.05    0.24
   8 -13   7   21.29    0.85
   8 -13   7   22.34    0.86
   9 -13   7    0.16    0.14
   9 -13   7    0.31    0.16
  10 -13   7    2.90    0.29
  10 -13   7    3.62    0.32
  11 -13   7    0.12    0.14
  11 -13   7   -0.01    0.14
  12 -13   7    7.34    0.45
  12 -13   7    8.46    0.46
  13 -13   7    0.98    0.21
  13 -13   7    0.84    0.20
  14 -13   7    0.03    0.13
  14 -13   7   -0.17    0.13
  15 -13   7    0.49    0.19
  15 -13   7    0.31    0.20
  -5 -12   7    2.48    0.15
  -4 -12   7    5.53    0.23
  -3 -12   7    3.87    0.18
  -3 -12   7    3.84    0.19
  -2 -12   7    5.52    0.23
  -2 -12   7    5.62    0.23
  -1 -12   7    1.37    0.10
  -1 -12   7    1.16    0.11
  -1 -12   7    1.49    0.23
   0 -12   7    4.45    0.32
   0 -12   7    4.14    0.18
   1 -12   7    4.06    0.18
   1 -12   7    4.11    0.31
   1 -12   7    4.24    0.32
   2 -12   7   12.51    0.45
   2 -12   7   12.99    0.58
   2 -12   7   12.39    0.57
   3 -12   7    0.09    0.12
   3 -12   7    0.11    0.13
   3 -12   7    0.06    0.05
   4 -12   7   29.47    0.97
   4 -12   7   28.99    1.03
   4 -12   7   27.75    1.03
   5 -12   7    0.76    0.16
   5 -12   7    0.93    0.18
   5 -12   7    1.12    0.12
   6 -12   7   17.49    0.70
   6 -12   7   17.04    0.70
   6 -12   7   17.27    0.67
   7 -12   7   25.65    0.94
   7 -12   7   25.80    0.94
   8 -12   7    7.02    0.39
   8 -12   7    6.81    0.38
   9 -12   7    0.87    0.17
   9 -12   7    1.01    0.18
  10 -12   7    1.36    0.21
  10 -12   7    1.63    0.21
  11 -12   7    7.06    0.41
  11 -12   7    7.46    0.41
  12 -12   7   13.30    0.62
  12 -12   7   13.42    0.60
  13 -12   7    6.21    0.39
  13 -12   7    5.91    0.41
  14 -12   7    8.40    0.47
  14 -12   7    8.15    0.47
  15 -12   7    0.03    0.15
  15 -12   7    0.07    0.13
  -7 -11   7    5.04    0.25
  -6 -11   7    0.12    0.06
  -5 -11   7    0.91    0.09
  -4 -11   7    5.19    0.24
  -4 -11   7    5.19    0.22
  -3 -11   7    0.69    0.08
  -3 -11   7    0.69    0.08
  -2 -11   7    3.10    0.15
  -2 -11   7    2.99    0.15
  -1 -11   7    2.31    0.27
  -1 -11   7    2.22    0.13
  -1 -11   7    2.33    0.12
   0 -11   7    3.29    0.27
   0 -11   7    3.01    0.14
   1 -11   7   11.05    0.51
   1 -11   7   11.55    0.40
   1 -11   7   11.63    0.53
   2 -11   7    5.06    0.22
   2 -11   7    5.21    0.32
   2 -11   7    5.60    0.34
   3 -11   7   33.49    1.11
   3 -11   7   34.67    1.17
   3 -11   7   34.93    1.17
   4 -11   7   11.87    0.44
   4 -11   7   12.30    0.53
   4 -11   7   11.60    0.52
   5 -11   7   17.95    0.70
   5 -11   7   19.21    0.65
   5 -11   7   17.67    0.69
   5 -11   7   17.82    0.69
  -6  11  -7    1.61    0.14
   6 -11   7    1.50    0.15
   6 -11   7    1.43    0.18
   6 -11   7    1.95    0.21
   6 -11   7    1.47    0.19
   7 -11   7    0.52    0.10
   7 -11   7    0.71    0.16
   7 -11   7    0.50    0.14
   7 -11   7    0.47    0.14
   8 -11   7   24.82    0.89
   8 -11   7   24.98    0.89
   8 -11   7   24.43    0.89
   9 -11   7    0.12    0.11
   9 -11   7    0.17    0.12
   9 -11   7    0.20    0.12
  10 -11   7   12.89    0.55
  10 -11   7   12.15    0.53
  10 -11   7   12.21    0.54
  11 -11   7    0.64    0.15
  11 -11   7    0.35    0.12
  11 -11   7    0.46    0.16
  12 -11   7    1.83    0.25
  12 -11   7    1.71    0.23
  13 -11   7    0.37    0.16
  13 -11   7    0.50    0.14
  14 -11   7    0.64    0.18
  14 -11   7    0.14    0.14
  15 -11   7    3.93    0.33
  15 -11   7    4.04    0.39
  -8 -10   7    7.96    0.35
  -7 -10   7    0.24    0.08
  -6 -10   7    0.05    0.05
  -5 -10   7    0.30    0.06
  -4 -10   7    2.19    0.13
  -3 -10   7   10.43    0.38
  -3 -10   7   10.52    0.37
  -2 -10   7    4.71    0.19
  -1 -10   7   30.56    0.98
  -1 -10   7   30.37    0.97
  -1 -10   7   30.83    1.07
   0 -10   7    0.06    0.11
   0 -10   7    0.05    0.11
   0 -10   7    0.14    0.04
   1 -10   7    0.07    0.09
   1 -10   7    0.09    0.09
   1 -10   7    0.05    0.04
   2 -10   7    0.27    0.05
   2 -10   7    0.19    0.11
   2 -10   7    0.33    0.12
   3 -10   7    3.59    0.19
   3 -10   7    4.70    0.28
   3 -10   7    3.83    0.26
   3 -10   7    4.62    0.28
   4 -10   7   20.63    0.75
   4 -10   7   20.87    0.70
   4 -10   7   19.44    0.75
   4 -10   7   21.04    0.74
  -5  10  -7   35.32    1.20
   5 -10   7   36.86    1.21
   5 -10   7   37.46    1.22
   5 -10   7   38.30    1.22
   5 -10   7   37.90    1.23
  -6  10  -7   58.03    1.82
   6 -10   7   58.88    1.84
   6 -10   7   56.54    1.77
   6 -10   7   57.21    1.79
   6 -10   7   52.85    1.76
  -7  10  -7    7.29    0.32
   7 -10   7    7.11    0.32
   7 -10   7    7.12    0.35
   7 -10   7    6.58    0.34
   7 -10   7    6.48    0.35
  -8  10  -7   28.16    0.95
   8 -10   7   26.03    0.93
   8 -10   7   26.08    0.93
   8 -10   7   27.37    0.94
   8 -10   7   28.01    0.97
   9 -10   7    4.87    0.30
   9 -10   7    4.61    0.29
   9 -10   7    4.90    0.30
  10 -10   7   -0.02    0.09
  10 -10   7    0.21    0.11
  10 -10   7    0.01    0.10
  11 -10   7    8.56    0.43
  11 -10   7    9.15    0.44
  11 -10   7    8.45    0.41
  12 -10   7    0.27    0.13
  12 -10   7   -0.05    0.11
  12 -10   7   -0.08    0.08
  13 -10   7    1.01    0.21
  13 -10   7    0.98    0.19
  14 -10   7    8.43    0.47
  14 -10   7    8.42    0.45
  15 -10   7    0.62    0.19
  15 -10   7    0.37    0.16
  -8  -9   7   -0.01    0.07
  -7  -9   7    5.30    0.25
  -6  -9   7    6.46    0.28
  -5  -9   7    2.05    0.13
  -4  -9   7    0.22    0.05
  -3  -9   7    0.22    0.05
  -2  -9   7    1.43    0.09
  -2  -9   7    1.66    0.09
  -1  -9   7    7.03    0.37
   0  -9   7   12.07    0.51
   0  -9   7   12.50    0.40
   0  -9   7   12.05    0.51
   1  -9   7    1.53    0.16
   1  -9   7    1.46    0.08
   1  -9   7    1.38    0.17
   1  -9   7    1.47    0.17
   2  -9   7   13.87    0.53
   2  -9   7   13.68    0.46
   2  -9   7   13.46    0.53
   2  -9   7   13.28    0.53
   3  -9   7    8.15    0.37
   3  -9   7    8.20    0.37
   3  -9   7    8.74    0.31
   3  -9   7    7.83    0.36
  -4   9  -7    2.21    0.13
   4  -9   7    2.34    0.18
   4  -9   7    2.13    0.14
   4  -9   7    2.39    0.19
   4  -9   7    2.23    0.20
  -5   9  -7    1.20    0.11
   5  -9   7    1.07    0.14
   5  -9   7    1.09    0.14
   5  -9   7    1.25    0.11
   5  -9   7    1.07    0.14
  -6   9  -7   10.48    0.41
   6  -9   7   10.51    0.44
   6  -9   7   10.50    0.44
   6  -9   7   11.00    0.44
   6  -9   7   10.58    0.42
  -7   9  -7   15.68    0.59
   7  -9   7   15.35    0.59
   7  -9   7   16.79    0.61
   7  -9   7   16.20    0.60
   7  -9   7   16.02    0.60
  -8   9  -7   19.21    0.70
   8  -9   7   18.79    0.70
   8  -9   7   19.35    0.71
   8  -9   7   19.46    0.70
   8  -9   7   19.38    0.70
  -9   9  -7    7.79    0.38
   9  -9   7    8.14    0.40
   9  -9   7    8.73    0.40
   9  -9   7    8.36    0.38
  10  -9   7    2.90    0.22
  10  -9   7    2.12    0.22
  10  -9   7    2.76    0.22
  11  -9   7    0.74    0.13
  11  -9   7    0.49    0.15
  11  -9   7    1.07    0.17
  12  -9   7    1.97    0.22
  12  -9   7    1.95    0.24
  12  -9   7    2.26    0.21
  13  -9   7    0.00    0.10
  13  -9   7    0.09    0.13
  13  -9   7    0.16    0.09
  14  -9   7    3.67    0.29
  14  -9   7    4.01    0.33
  15  -9   7   -0.04    0.12
  15  -9   7   -0.32    0.14
  -9  -8   7    0.66    0.12
  -8  -8   7    0.35    0.09
  -7  -8   7    3.96    0.21
  -6  -8   7   44.11    1.42
  -5  -8   7   17.27    0.59
  -4  -8   7    1.19    0.09
  -3  -8   7    0.54    0.05
  -2  -8   7   36.65    1.21
  -1  -8   7    0.71    0.13
  -1  -8   7    0.76    0.13
   0  -8   7   22.99    0.72
   0  -8   7   24.15    0.80
   0  -8   7   23.02    0.78
   0  -8   7   21.63    0.79
   1  -8   7    2.87    0.12
   1  -8   7    2.82    0.19
   1  -8   7    2.99    0.21
   1  -8   7    3.05    0.21
   2  -8   7    0.02    0.03
   2  -8   7   -0.01    0.06
   2  -8   7   -0.07    0.06
   2  -8   7    0.11    0.08
  -3   8  -7   10.30    0.36
   3  -8   7   10.51    0.42
   3  -8   7   10.77    0.43
   3  -8   7   10.65    0.41
   3  -8   7   10.62    0.38
  -4   8  -7   14.34    0.49
   4  -8   7   13.95    0.52
   4  -8   7   13.39    0.49
   4  -8   7   14.23    0.52
   4  -8   7   14.13    0.52
  -5   8  -7   25.65    0.87
   5  -8   7   25.00    0.85
   5  -8   7   26.72    0.87
   5  -8   7   25.92    0.87
   5  -8   7   26.91    0.88
  -6   8  -7   11.81    0.45
   6  -8   7   11.69    0.45
   6  -8   7   11.81    0.46
   6  -8   7   11.57    0.46
   6  -8   7   11.66    0.46
  -7   8  -7    1.24    0.13
   7  -8   7    1.25    0.14
   7  -8   7    1.34    0.15
   7  -8   7    1.34    0.14
   7  -8   7    1.22    0.15
  -8   8  -7    0.28    0.08
   8  -8   7    0.39    0.10
   8  -8   7    0.16    0.08
   8  -8   7    0.15    0.09
   8  -8   7    0.25    0.10
  -9   8  -7   44.11    1.44
   9  -8   7   42.95    1.36
   9  -8   7   39.79    1.36
   9  -8   7   44.14    1.37
 -10   8  -7    4.66    0.29
  10  -8   7    5.37    0.27
  10  -8   7    4.81    0.29
  10  -8   7    4.85    0.30
 -11   8  -7   10.33    0.48
  11  -8   7   11.32    0.50
  11  -8   7   11.26    0.48
  11  -8   7   10.22    0.44
  12  -8   7   -0.14    0.11
  12  -8   7   -0.02    0.07
  12  -8   7    0.11    0.09
  13  -8   7    0.24    0.12
  13  -8   7    0.22    0.15
  13  -8   7    0.21    0.09
  14  -8   7   -0.05    0.12
  14  -8   7    0.34    0.13
  15  -8   7   -0.07    0.12
  15  -8   7    0.10    0.16
 -10  -7   7    2.78    0.22
  -9  -7   7    0.81    0.12
  -8  -7   7    6.53    0.31
  -7  -7   7    0.11    0.07
  -6  -7   7    6.21    0.26
  -5  -7   7   82.62    2.57
  -4  -7   7   10.76    0.37
  -3  -7   7   33.43    1.05
  -2  -7   7    2.32    0.18
  -1  -7   7   19.50    0.70
  -1  -7   7   21.06    0.69
  -1  -7   7   20.89    0.72
   0  -7   7   11.01    0.43
   0  -7   7   11.02    0.43
   0  -7   7   11.27    0.35
   0  -7   7   10.56    0.42
   1  -7   7  114.47    3.45
   1  -7   7  114.84    3.59
   1  -7   7  123.05    3.43
   1  -7   7  116.03    3.42
   2  -7   7  193.94    5.66
   2  -7   7  201.16    6.06
   2  -7   7  193.23    5.68
   2  -7   7  198.79    5.73
  -3   7  -7    0.03    0.03
   3  -7   7    0.04    0.05
   3  -7   7   -0.04    0.05
   3  -7   7    0.04    0.04
   3  -7   7   -0.06    0.06
  -4   7  -7    1.61    0.11
   4  -7   7    1.52    0.13
   4  -7   7    1.84    0.14
   4  -7   7    1.68    0.12
   4  -7   7    1.90    0.14
  -5   7  -7    0.39    0.07
   5  -7   7    0.44    0.09
   5  -7   7    0.47    0.08
   5  -7   7    0.30    0.06
   5  -7   7    0.31    0.08
  -6   7  -7   13.46    0.49
   6  -7   7   13.02    0.48
   6  -7   7   13.15    0.48
   6  -7   7   12.90    0.49
   6  -7   7   12.72    0.49
  -7   7  -7    1.72    0.15
   7  -7   7    1.90    0.16
   7  -7   7    1.96    0.15
   7  -7   7    1.10    0.13
   7  -7   7    1.95    0.17
  -8   7  -7   -0.07    0.06
   8  -7   7    0.06    0.06
   8  -7   7    0.02    0.06
   8  -7   7    0.10    0.08
   8  -7   7    0.14    0.08
  -9   7  -7   65.51    2.08
   9  -7   7   63.91    1.95
   9  -7   7   64.16    2.09
   9  -7   7   60.32    1.93
   9  -7   7   64.11    1.96
 -10   7  -7    1.51    0.18
  10  -7   7    1.30    0.15
  10  -7   7    1.50    0.19
  10  -7   7    1.71    0.18
 -11   7  -7    8.58    0.43
  11  -7   7    8.96    0.44
  11  -7   7    8.97    0.38
  11  -7   7   10.21    0.44
 -12   7  -7   -0.06    0.08
  12  -7   7   -0.10    0.09
  12  -7   7   -0.09    0.06
  12  -7   7    0.06    0.10
  13  -7   7    2.62    0.25
  13  -7   7    2.70    0.27
  14  -7   7    0.57    0.18
  14  -7   7    0.47    0.15
  15  -7   7    0.55    0.19
  15  -7   7    0.52    0.16
 -11  -6   7    1.03    0.16
 -10  -6   7    9.38    0.42
  -9  -6   7    6.57    0.32
  -8  -6   7    0.35    0.09
  -7  -6   7   26.69    0.90
  -6  -6   7    0.12    0.06
  -5  -6   7    8.59    0.32
   4   6  -7    1.58    0.11
  -4  -6   7    1.88    0.10
   3   6  -7    1.49    0.12
  -3  -6   7    1.55    0.08
  -2  -6   7  102.32    2.94
  -2  -6   7   96.98    2.93
  -1  -6   7   20.01    0.68
  -1  -6   7   19.89    0.67
  -1  -6   7   19.79    0.66
   0   6  -7    2.32    0.15
   0   6  -7    1.93    0.14
   0  -6   7    1.96    0.15
   0  -6   7    2.01    0.14
   0  -6   7    2.23    0.15
   0  -6   7    2.22    0.09
  -1   6  -7   23.56    0.73
  -1   6  -7   23.91    0.76
   1  -6   7   23.40    0.74
   1  -6   7   22.61    0.73
   1  -6   7   22.68    0.75
   1  -6   7   22.35    0.75
  -2   6  -7    0.47    0.07
  -2   6  -7    0.24    0.04
   2  -6   7    0.13    0.06
   2  -6   7    0.13    0.06
   2  -6   7    0.29    0.07
   2  -6   7    0.27    0.04
  -3   6  -7   18.84    0.59
  -3   6  -7   18.05    0.58
   3  -6   7   17.46    0.60
   3  -6   7   17.98    0.59
   3  -6   7   17.27    0.60
  -4   6  -7   11.13    0.39
  -4   6  -7   11.72    0.40
   4  -6   7   11.22    0.40
   4  -6   7   10.16    0.40
   4  -6   7   10.57    0.40
   4  -6   7   11.73    0.41
  -5   6  -7   32.50    1.03
   5  -6   7   31.98    0.99
   5  -6   7   30.21    0.98
   5  -6   7   30.31    1.04
   5  -6   7   31.75    0.99
  -6   6  -7    7.38    0.30
   6  -6   7    7.03    0.30
   6  -6   7    7.29    0.29
   6  -6   7    6.83    0.30
   6  -6   7    7.06    0.31
  -7   6  -7   49.44    1.58
   7  -6   7   53.20    1.61
   7  -6   7   48.03    1.49
   7  -6   7   45.15    1.49
   7  -6   7   47.06    1.48
  -8   6  -7   17.72    0.64
   8  -6   7   16.16    0.61
   8  -6   7   17.32    0.62
   8  -6   7   17.71    0.60
  -9   6  -7    3.22    0.22
   9  -6   7    3.70    0.20
   9  -6   7    3.27    0.23
   9  -6   7    3.32    0.23
 -10   6  -7   20.13    0.79
  10  -6   7   21.54    0.72
  10  -6   7   20.69    0.75
  10  -6   7   21.75    0.77
 -11   6  -7   11.79    0.53
  11  -6   7   12.07    0.53
  11  -6   7   13.09    0.51
  11  -6   7   11.23    0.45
 -12   6  -7    2.62    0.25
  12  -6   7    2.75    0.27
  12  -6   7    3.06    0.24
  12  -6   7    2.86    0.19
  13  -6   7    0.63    0.14
  13  -6   7    1.00    0.18
  14  -6   7    1.98    0.23
  14  -6   7    1.55    0.24
  15  -6   7    0.16    0.13
  15  -6   7    0.35    0.17
 -12  -5   7   -0.03    0.09
 -11  -5   7    0.09    0.09
 -10  -5   7    2.84    0.21
  -9  -5   7    8.50    0.38
  -8  -5   7    7.51    0.33
  -7  -5   7    8.83    0.36
  -6  -5   7   33.38    1.09
  -5  -5   7    1.71    0.11
  -4  -5   7   27.59    0.88
   3   5  -7   59.76    1.73
  -3  -5   7   57.69    1.74
  -3  -5   7   57.12    1.80
   2   5  -7   33.76    1.04
   2   5  -7   31.26    1.01
  -2  -5   7   32.37    1.03
  -2  -5   7   34.07    1.02
  -2  -5   7   34.32    1.03
   1   5  -7   66.14    1.95
   1   5  -7   66.57    1.96
  -1  -5   7   68.25    1.97
  -1  -5   7   67.57    1.97
  -1  -5   7   65.23    2.04
  -1  -5   7   65.02    1.97
   0   5  -7    4.47    0.20
   0   5  -7    4.82    0.20
   0  -5   7    4.53    0.21
   0  -5   7    4.58    0.21
   0  -5   7    4.69    0.20
   0  -5   7    4.72    0.17
  -1   5  -7  127.66    3.89
  -1   5  -7  131.56    3.89
  -1   5  -7  126.63    3.64
  -1   5  -7  125.06    3.66
   1  -5   7  123.47    3.65
   1  -5   7  125.11    3.90
   1  -5   7  129.27    3.70
   1  -5   7  127.28    3.67
  -2   5  -7   10.39    0.34
  -2   5  -7   10.16    0.34
  -2   5  -7   10.16    0.35
   2  -5   7    9.51    0.35
   2  -5   7    9.31    0.35
   2  -5   7   10.12    0.35
   2  -5   7    9.98    0.36
  -3   5  -7   16.11    0.55
  -3   5  -7   16.05    0.52
  -3   5  -7   16.25    0.54
   3  -5   7   15.95    0.53
   3  -5   7   17.26    0.56
  -4   5  -7   29.59    0.92
  -4   5  -7   28.28    0.87
   4  -5   7   27.81    0.88
   4  -5   7   27.52    0.88
   4  -5   7   27.86    0.93
   4  -5   7   27.73    0.87
  -5   5  -7   96.48    3.09
   5  -5   7  104.40    2.90
   5  -5   7   93.98    3.10
   5  -5   7   99.30    2.88
   5  -5   7  100.41    2.91
  -6   5  -7    8.10    0.34
   6  -5   7    8.47    0.33
   6  -5   7    9.13    0.35
   6  -5   7    8.03    0.34
   6  -5   7    8.50    0.36
  -7   5  -7   22.07    0.75
   7  -5   7   22.36    0.72
   7  -5   7   21.95    0.69
   7  -5   7   18.03    0.75
   7  -5   7   20.85    0.71
  -8   5  -7   20.88    0.72
   8  -5   7   18.40    0.73
   8  -5   7   19.09    0.68
   8  -5   7   19.52    0.68
   8  -5   7   19.33    0.65
  -9   5  -7    1.89    0.19
   9  -5   7    1.97    0.20
   9  -5   7    1.87    0.14
   9  -5   7    2.22    0.19
 -10   5  -7    0.24    0.10
  10  -5   7    0.14    0.09
  10  -5   7    0.21    0.11
  10  -5   7    0.22    0.08
 -11   5  -7    0.13    0.10
  11  -5   7    0.20    0.11
  11  -5   7    0.17    0.08
  11  -5   7    0.32    0.11
 -12   5  -7    0.01    0.09
  12  -5   7   -0.01    0.10
  12  -5   7    0.12    0.11
 -13   5  -7    5.37    0.35
  13  -5   7    5.38    0.37
  13  -5   7    5.37    0.33
  14  -5   7    0.40    0.15
  14  -5   7    0.32    0.17
  15  -5   7    0.49    0.19
  15  -5   7    0.29    0.14
 -12  -4   7    0.28    0.11
 -11  -4   7    0.43    0.12
 -10  -4   7    0.87    0.13
  -9  -4   7   10.33    0.43
  -8  -4   7   19.92    0.71
  -7  -4   7   60.73    1.94
  -6  -4   7    6.07    0.26
   5   4  -7    8.70    0.33
  -5  -4   7    8.83    0.33
   4   4  -7   13.25    0.44
  -4  -4   7   12.92    0.43
  -4  -4   7   13.05    0.44
   3   4  -7   20.50    0.68
   3   4  -7   20.58    0.65
  -3  -4   7   20.73    0.65
  -3  -4   7   21.18    0.67
   2   4  -7   19.29    0.62
   2   4  -7   18.69    0.60
  -2  -4   7   19.02    0.61
  -2  -4   7   19.82    0.62
  -2  -4   7   18.78    0.61
   1   4  -7    0.04    0.05
   1   4  -7    0.22    0.05
  -1  -4   7    0.16    0.05
  -1  -4   7    0.17    0.03
  -1  -4   7    0.12    0.05
  -1  -4   7    0.13    0.05
   0   4  -7    5.06    0.20
   0   4  -7    5.01    0.19
   0  -4   7    4.94    0.19
   0  -4   7    5.33    0.21
   0  -4   7    5.02    0.20
   0  -4   7    4.94    0.20
  -1   4  -7   16.02    0.51
  -1   4  -7   16.34    0.50
  -1   4  -7   16.42    0.53
  -1   4  -7   16.74    0.52
   1  -4   7   16.54    0.54
   1  -4   7   16.22    0.51
   1  -4   7   16.38    0.53
   1  -4   7   14.43    0.51
  -2   4  -7   20.53    0.62
  -2   4  -7   18.74    0.64
  -2   4  -7   19.55    0.60
   2  -4   7   19.40    0.60
   2  -4   7   19.69    0.62
   2  -4   7   19.66    0.65
  -3   4  -7   15.98    0.54
  -3   4  -7   16.79    0.56
  -3   4  -7   15.88    0.52
   3  -4   7   16.02    0.54
   3  -4   7   16.09    0.52
   3  -4   7   16.64    0.57
   3  -4   7   16.94    0.54
  -4   4  -7   13.07    0.45
   4  -4   7   12.22    0.44
   4  -4   7   12.67    0.43
   4  -4   7   12.82    0.47
   4  -4   7   12.26    0.43
  -5   4  -7   24.06    0.80
   5  -4   7   24.25    0.74
   5  -4   7   22.97    0.75
   5  -4   7   21.73    0.80
   5  -4   7   23.81    0.75
  -6   4  -7  108.86    3.53
   6  -4   7  110.21    3.28
   6  -4   7  121.02    3.55
   6  -4   7  113.77    3.29
   6  -4   7  110.05    3.30
  -7   4  -7   72.93    2.20
   7  -4   7   68.01    2.03
   7  -4   7   65.21    2.04
   7  -4   7   64.50    2.20
   7  -4   7   70.88    2.05
  -8   4  -7   -0.03    0.07
   8  -4   7    0.10    0.08
   8  -4   7    0.07    0.08
   8  -4   7   -0.01    0.05
  -9   4  -7   11.96    0.51
   9  -4   7   12.94    0.44
   9  -4   7   12.43    0.49
   9  -4   7   12.09    0.50
 -10   4  -7    5.33    0.31
  10  -4   7    5.08    0.24
  10  -4   7    5.91    0.33
  10  -4   7    5.03    0.29
 -11   4  -7    0.20    0.11
  11  -4   7    0.26    0.11
  11  -4   7    0.15    0.07
  11  -4   7    0.41    0.12
 -12   4  -7    2.11    0.23
  12  -4   7    1.51    0.20
  12  -4   7    1.83    0.21
 -13   4  -7    2.08    0.24
  13  -4   7    1.29    0.19
  13  -4   7    1.68    0.24
 -14   4  -7    2.27    0.27
  14  -4   7    2.40    0.25
  14  -4   7    2.86    0.31
  15  -4   7    0.24    0.15
  15  -4   7    0.29    0.16
 -13  -3   7    0.55    0.15
 -12  -3   7    0.20    0.11
 -11  -3   7    0.41    0.11
  10   3  -7    1.25    0.14
 -10  -3   7    1.45    0.16
   9   3  -7   22.26    0.73
  -9  -3   7   21.74    0.79
  -8  -3   7    9.91    0.41
   7   3  -7   67.94    2.02
  -7  -3   7   68.30    2.16
   6   3  -7    0.18    0.06
  -6  -3   7    0.15    0.05
   5   3  -7   34.43    1.05
  -5  -3   7   34.61    1.04
  -5  -3   7   35.41    1.12
   4   3  -7   37.45    1.13
   4   3  -7   37.34    1.17
  -4  -3   7   38.36    1.20
  -4  -3   7   38.28    1.13
   3   3  -7   59.74    1.78
   3   3  -7   61.82    1.88
   3   3  -7   60.69    1.81
  -3  -3   7   62.00    1.90
  -3  -3   7   61.79    1.80
   2   3  -7    0.23    0.02
   2   3  -7    0.19    0.04
   2   3  -7    0.27    0.05
   2   3  -7    0.26    0.03
  -2  -3   7    0.31    0.04
  -2  -3   7    0.26    0.05
  -2  -3   7    0.28    0.05
   1   3  -7    8.53    0.28
   1   3  -7    8.51    0.28
   1   3  -7    8.70    0.28
   1   3  -7    8.36    0.27
  -1  -3   7    8.61    0.30
  -1  -3   7    8.39    0.29
  -1  -3   7    8.31    0.28
  -1  -3   7    8.11    0.28
   0   3  -7   14.77    0.49
   0   3  -7   15.10    0.45
   0   3  -7   15.32    0.47
   0   3  -7   14.97    0.48
   0  -3   7   14.12    0.47
   0  -3   7   14.94    0.50
   0  -3   7   14.69    0.46
  -1   3  -7  175.43    5.65
  -1   3  -7  194.70    5.27
  -1   3  -7  181.63    5.25
   1  -3   7  189.19    5.29
   1  -3   7  188.26    5.67
   1  -3   7  177.29    5.26
  -2   3  -7    5.49    0.22
  -2   3  -7    5.75    0.21
  -2   3  -7    5.47    0.19
   2  -3   7    5.17    0.23
   2  -3   7    5.57    0.22
   2  -3   7    5.43    0.20
  -3   3  -7   47.69    1.41
  -3   3  -7   46.97    1.51
   3  -3   7   46.84    1.41
   3  -3   7   48.07    1.40
   3  -3   7   47.97    1.52
  -4   3  -7    0.36    0.06
   4  -3   7    0.45    0.08
   4  -3   7    0.26    0.06
   4  -3   7    0.43    0.08
  -5   3  -7   38.27    1.26
   5  -3   7   39.10    1.17
   5  -3   7   35.38    1.27
   5  -3   7   41.06    1.19
  -6   3  -7   71.00    2.21
   6  -3   7   67.04    2.06
  -7   3  -7   30.39    1.02
   7  -3   7   29.06    0.96
  -8   3  -7    9.12    0.40
   8  -3   7    9.00    0.38
   8  -3   7    9.13    0.34
  -9   3  -7    0.06    0.08
   9  -3   7    0.11    0.09
   9  -3   7    0.01    0.05
 -10   3  -7    4.39    0.29
  10  -3   7    5.07    0.22
  10  -3   7    4.78    0.28
 -11   3  -7    1.23    0.18
  11  -3   7    0.78    0.15
  11  -3   7    1.03    0.11
 -12   3  -7    5.27    0.35
  12  -3   7    5.84    0.34
  12  -3   7    6.00    0.36
 -13   3  -7    0.50    0.14
  13  -3   7    0.49    0.14
  13  -3   7    0.49    0.17
 -14   3  -7    2.28    0.26
  14  -3   7    1.96    0.24
  14  -3   7    2.32    0.28
 -13  -2   7    7.89    0.43
 -12  -2   7    1.03    0.17
 -11  -2   7    0.19    0.10
  10   2  -7    0.17    0.07
 -10  -2   7    0.19    0.09
   9   2  -7   28.22    0.88
  -9  -2   7   27.92    0.98
   8   2  -7   51.17    1.52
  -8  -2   7   50.92    1.66
   7   2  -7    1.25    0.11
  -7  -2   7    1.45    0.13
   6   2  -7  121.13    3.57
  -6  -2   7  125.85    3.86
  -6  -2   7  125.69    3.58
   5   2  -7   60.70    1.74
  -5  -2   7   60.91    1.74
  -5  -2   7   57.55    1.88
   4   2  -7   82.62    2.31
  -4  -2   7   77.56    2.50
  -4  -2   7   81.07    2.34
   3   2  -7    0.66    0.05
   3   2  -7    0.53    0.05
  -3  -2   7    0.56    0.06
   2   2  -7   38.61    1.08
   2   2  -7   37.48    1.16
   2   2  -7   36.71    1.09
  -2  -2   7   37.10    1.18
  -2  -2   7   36.23    1.08
   1   2  -7  118.39    3.66
   1   2  -7  119.11    3.39
   1   2  -7  119.18    3.38
   1   2  -7  121.61    3.66
  -1  -2   7  115.89    3.67
  -1  -2   7  119.45    3.40
   0   2  -7   13.93    0.40
   0   2  -7   14.27    0.47
   0   2  -7   13.31    0.42
   0  -2   7   13.41    0.42
   0  -2   7   13.40    0.40
   0  -2   7   13.39    0.47
   0  -2   7   13.77    0.48
  -1   2  -7    1.95    0.11
  -1   2  -7    2.00    0.10
   1  -2   7    1.93    0.08
   1  -2   7    1.92    0.12
   1  -2   7    1.81    0.10
  -2   2  -7    3.21    0.15
  -2   2  -7    2.96    0.16
   2  -2   7    3.15    0.13
   2  -2   7    3.20    0.15
   2  -2   7    3.24    0.17
  -3   2  -7    0.83    0.09
  -3   2  -7    0.90    0.09
   3  -2   7    0.70    0.09
   3  -2   7    0.84    0.09
  -4   2  -7   21.74    0.73
   4  -2   7   20.68    0.74
   4  -2   7   20.40    0.68
  -5   2  -7   60.00    1.94
   5  -2   7   61.33    1.82
  -6   2  -7    5.35    0.27
   6  -2   7    5.21    0.25
   6  -2   7    5.24    0.28
  -7   2  -7   42.82    1.40
   7  -2   7   41.13    1.31
  -8   2  -7   63.69    2.10
   8  -2   7   65.13    1.97
  -9   2  -7    4.99    0.29
   9  -2   7    4.36    0.26
 -10   2  -7    1.94    0.20
  10  -2   7    2.17    0.21
  10  -2   7    2.20    0.14
 -11   2  -7    2.66    0.24
  11  -2   7    2.51    0.24
 -12   2  -7   -0.07    0.10
  12  -2   7    0.00    0.09
 -13   2  -7    0.07    0.11
  13  -2   7   -0.10    0.11
 -14   2  -7    0.81    0.19
  14  -2   7    0.95    0.19
 -14  -1   7    2.58    0.27
 -13  -1   7   -0.05    0.10
 -12  -1   7   -0.06    0.09
 -11  -1   7   22.22    0.84
  10   1  -7    1.17    0.11
 -10  -1   7    1.24    0.16
   9   1  -7    0.16    0.06
  -9  -1   7    0.01    0.08
   8   1  -7   77.15    2.29
  -8  -1   7   80.95    2.52
   7   1  -7   13.32    0.42
  -7  -1   7   13.43    0.50
   6   1  -7    1.48    0.08
   6   1  -7    1.49    0.09
  -6  -1   7    1.64    0.12
  -6  -1   7    1.42    0.07
   5   1  -7   72.56    2.03
   5   1  -7   71.00    2.02
  -5  -1   7   68.53    2.22
   4   1  -7    0.43    0.03
  -4  -1   7    0.34    0.06
   3   1  -7   70.69    2.01
  -3  -1   7   70.79    2.21
   2   1  -7   69.18    1.94
  -2  -1   7   66.95    2.12
  -2  -1   7   67.47    1.94
   1   1  -7   62.78    1.81
   1   1  -7   64.34    1.98
  -1  -1   7   62.98    1.98
  -1  -1   7   61.43    1.81
   0   1  -7    1.86    0.12
   0   1  -7    1.78    0.09
   0   1  -7    1.72    0.11
   0  -1   7    2.04    0.12
   0  -1   7    1.61    0.09
  -1   1  -7    6.43    0.27
   1  -1   7    6.66    0.28
   1  -1   7    6.73    0.24
  -2   1  -7    0.31    0.07
   2  -1   7    0.33    0.06
   2  -1   7    0.22    0.06
  -3   1  -7   31.63    1.06
   3  -1   7   31.73    1.07
   3  -1   7   32.77    0.99
  -4   1  -7   10.29    0.41
   4  -1   7   10.20    0.38
  -5   1  -7   27.27    0.96
   5  -1   7   28.34    0.90
   5  -1   7   28.50    0.98
  -6   1  -7    3.77    0.22
   6  -1   7    3.80    0.22
  -7   1  -7   10.69    0.45
   7  -1   7   10.91    0.43
  -8   1  -7   16.16    0.64
   8  -1   7   16.34    0.60
  -9   1  -7    8.32    0.40
   9  -1   7    8.12    0.38
 -10   1  -7    3.04    0.24
  10  -1   7    2.10    0.21
 -11   1  -7   20.12    0.80
  11  -1   7   20.22    0.76
 -12   1  -7    0.09    0.11
  12  -1   7   -0.02    0.10
 -13   1  -7    1.10    0.20
  13  -1   7    0.77    0.17
  14  -1   7    0.16    0.14
  14   0  -7    0.29    0.14
 -14   0   7    0.22    0.13
 -13   0   7    0.32    0.14
 -12   0   7    1.51    0.19
 -11   0   7   12.46    0.54
  10   0  -7    6.04    0.24
 -10   0   7    5.79    0.32
   9   0  -7    0.45    0.06
  -9   0   7    0.39    0.10
   8   0  -7    0.92    0.07
  -8   0   7    0.97    0.12
   7   0  -7    3.67    0.14
  -7   0   7    3.52    0.20
   6   0  -7    0.23    0.03
  -6   0   7    0.21    0.06
  -5   0   7   14.61    0.52
   4   0  -7    1.69    0.11
   4   0  -7    2.07    0.12
  -4   0   7    2.05    0.13
   3   0  -7    0.86    0.06
   3   0  -7    0.96    0.08
  -3   0   7    1.08    0.10
   2   0  -7    1.61    0.07
   2   0  -7    1.32    0.09
  -2   0   7    1.34    0.06
  -2   0   7    1.23    0.11
   1   0  -7   16.17    0.47
  -1   0   7   16.54    0.56
  -1   0   7   15.53    0.49
  -1   0   7   16.30    0.47
   0   0  -7   74.82    2.42
   0   0  -7   76.23    2.42
   0   0   7   79.69    2.20
  -1   0  -7   76.43    2.48
   1   0   7   80.23    2.27
   1   0   7   79.39    2.49
  -2   0  -7   21.37    0.72
   2   0   7   20.18    0.73
  -3   0  -7   20.89    0.73
  -4   0  -7   10.05    0.40
   4   0   7    9.59    0.41
   4   0   7    9.40    0.37
  -5   0  -7    4.80    0.26
   5   0   7    4.96    0.24
  -6   0  -7   14.94    0.59
   6   0   7   15.93    0.57
  -7   0  -7   17.63    0.68
   7   0   7   17.74    0.64
  -8   0  -7    0.53    0.12
   8   0   7    0.39    0.12
  -9   0  -7    3.53    0.26
   9   0   7    3.39    0.24
 -10   0  -7    6.28    0.36
  10   0   7    6.55    0.36
 -11   0  -7    6.56    0.38
  11   0   7    7.02    0.38
 -12   0  -7    1.64    0.22
  12   0   7    1.99    0.24
 -13   0  -7    0.41    0.16
  13   0   7    0.96    0.19
  15  -1  -7    0.16    0.14
 -15   1   7    0.31    0.15
  14  -1  -7    0.14    0.13
 -14   1   7   -0.03    0.10
  13  -1  -7    2.40    0.25
 -13   1   7    2.43    0.25
  12  -1  -7    3.55    0.27
 -12   1   7    3.66    0.27
  11  -1  -7    7.08    0.28
  11  -1  -7    7.47    0.38
 -11   1   7    7.46    0.38
  10  -1  -7   52.43    1.57
  10  -1  -7   53.11    1.67
 -10   1   7   54.44    1.78
   9  -1  -7    0.39    0.06
   9  -1  -7    0.39    0.11
  -9   1   7    0.32    0.10
   8  -1  -7    9.50    0.31
   8  -1  -7    9.90    0.39
  -8   1   7    9.75    0.30
  -8   1   7    9.50    0.41
   7  -1  -7    8.36    0.34
   7  -1  -7    9.04    0.28
  -7   1   7    8.65    0.37
   6  -1  -7    1.37    0.06
   6  -1  -7    1.30    0.11
  -6   1   7    1.30    0.12
   5  -1  -7    1.04    0.10
  -5   1   7    0.78    0.10
   4  -1  -7   99.47    2.86
   4  -1  -7  101.63    3.10
  -4   1   7   97.19    3.11
   3  -1  -7   25.73    0.77
  -3   1   7   26.06    0.87
  -3   1   7   24.88    0.77
  -3   1   7   26.71    0.76
   2  -1  -7    2.17    0.10
   2  -1  -7    2.17    0.13
  -2   1   7    2.33    0.15
  -2   1   7    2.18    0.10
   1  -1  -7    2.43    0.11
   1  -1  -7    2.21    0.14
  -1   1   7    2.35    0.15
  -1   1   7    2.33    0.10
   0  -1  -7   64.52    2.02
   0  -1  -7   62.96    1.84
   0  -1  -7   61.31    2.03
   0   1   7   65.33    1.84
  -1  -1  -7   13.48    0.50
  -1  -1  -7   12.86    0.49
   1   1   7   13.35    0.44
  -3  -1  -7  182.99    5.71
   3   1   7  185.08    5.73
  -4  -1  -7    1.28    0.14
  -5  -1  -7    3.83    0.23
  -6  -1  -7    8.97    0.41
  -7  -1  -7    0.17    0.09
   7   1   7    0.24    0.10
  -8  -1  -7    0.39    0.12
   8   1   7    0.33    0.12
  -9  -1  -7    0.72    0.15
   9   1   7    0.61    0.14
 -10  -1  -7   -0.08    0.09
  10   1   7   -0.07    0.10
 -11  -1  -7    2.05    0.23
  11   1   7    2.22    0.24
 -12  -1  -7   18.79    0.80
  12   1   7   18.92    0.76
  13   1   7    2.06    0.27
  15  -2  -7   -0.06    0.14
 -15   2   7    0.27    0.14
  14  -2  -7   10.40    0.52
 -14   2   7   10.31    0.53
  13  -2  -7    0.14    0.12
 -13   2   7    0.09    0.12
  12  -2  -7    4.72    0.31
 -12   2   7    4.62    0.31
  11  -2  -7    0.79    0.14
  11  -2  -7    0.68    0.08
 -11   2   7    0.64    0.14
  10  -2  -7   42.77    1.30
  10  -2  -7   45.38    1.40
 -10   2   7   43.80    1.49
   9  -2  -7    0.54    0.11
   9  -2  -7    0.68    0.07
  -9   2   7    0.61    0.11
  -9   2   7    0.67    0.05
   8  -2  -7   10.72    0.42
   8  -2  -7   11.00    0.35
  -8   2   7   10.55    0.44
   7  -2  -7    3.47    0.19
   7  -2  -7    3.56    0.13
  -7   2   7    3.28    0.21
   6  -2  -7    8.65    0.27
   6  -2  -7    8.37    0.32
  -6   2   7    8.18    0.36
  -6   2   7    8.78    0.27
   5  -2  -7  166.22    5.09
   5  -2  -7  161.22    4.71
  -5   2   7  171.44    4.67
  -5   2   7  159.18    5.10
   4  -2  -7   47.57    1.44
  -4   2   7   49.57    1.41
  -4   2   7   47.73    1.44
  -4   2   7   50.96    1.59
   3  -2  -7    4.45    0.18
   3  -2  -7    4.70    0.21
  -3   2   7    4.69    0.18
  -3   2   7    4.94    0.23
  -3   2   7    4.54    0.18
   2  -2  -7   46.42    1.37
   2  -2  -7   44.95    1.50
  -2   2   7   48.52    1.52
  -2   2   7   46.91    1.36
   1  -2  -7   44.52    1.31
   1  -2  -7   42.98    1.44
  -1   2   7   46.13    1.45
  -1   2   7   43.90    1.31
   0  -2  -7  101.71    3.20
   0  -2  -7  100.12    2.95
   0   2   7  104.37    2.95
  -1  -2  -7  104.70    3.29
  -1  -2  -7  104.19    3.29
  -2  -2  -7    0.78    0.12
   2   2   7    0.84    0.11
  -3  -2  -7    6.42    0.31
  -4  -2  -7    5.21    0.28
  -5  -2  -7   -0.02    0.07
  -6  -2  -7    4.48    0.28
  -7  -2  -7    1.04    0.16
  -8  -2  -7    3.20    0.26
   8   2   7    3.54    0.25
  -9  -2  -7    0.58    0.13
   9   2   7    0.66    0.15
 -10  -2  -7    0.05    0.10
  10   2   7   -0.02    0.11
 -11  -2  -7    4.20    0.31
  11   2   7    3.90    0.30
 -12  -2  -7    0.04    0.12
  12   2   7    0.08    0.14
  15  -3  -7    1.40    0.24
 -15   3   7    1.17    0.20
  14  -3  -7   -0.07    0.13
 -14   3   7    0.15    0.12
  13  -3  -7    4.40    0.31
 -13   3   7    4.12    0.31
  12  -3  -7   -0.01    0.09
 -12   3   7   -0.06    0.09
  11  -3  -7    2.32    0.13
  11  -3  -7    2.31    0.22
 -11   3   7    2.15    0.21
  10  -3  -7   28.76    0.95
  10  -3  -7   27.15    0.86
 -10   3   7   28.62    1.02
   9  -3  -7   72.91    2.25
   9  -3  -7   75.33    2.18
  -9   3   7   76.56    2.43
  -9   3   7   75.41    2.20
   8  -3  -7    3.82    0.16
   8  -3  -7    3.69    0.22
  -8   3   7    3.82    0.15
  -8   3   7    3.83    0.23
   7  -3  -7   60.21    1.84
   7  -3  -7   60.98    1.79
  -7   3   7   60.65    2.00
  -7   3   7   64.71    1.78
   6  -3  -7   31.45    0.92
   6  -3  -7   29.94    0.96
  -6   3   7   31.58    1.05
  -6   3   7   30.47    0.91
   5  -3  -7   19.22    0.63
   5  -3  -7   19.44    0.68
  -5   3   7   20.34    0.71
  -5   3   7   19.83    0.59
  -5   3   7   19.02    0.63
   3  -3  -7   16.22    0.58
   3  -3  -7   15.14    0.52
  -3   3   7   16.05    0.51
  -3   3   7   16.77    0.59
  -3   3   7   16.19    0.52
   2  -3  -7   41.37    1.26
   2  -3  -7   43.56    1.38
  -2   3   7   42.19    1.38
  -2   3   7   40.86    1.25
   1  -3  -7   16.10    0.54
   1  -3  -7   16.16    0.60
  -1   3   7   16.96    0.61
   0  -3  -7    8.48    0.34
   0  -3  -7    9.07    0.38
   0   3   7    9.16    0.34
  -1  -3  -7  189.92    5.75
  -1  -3  -7  178.98    5.75
   1   3   7  185.55    5.32
  -2  -3  -7   74.57    2.40
  -3  -3  -7   29.84    1.05
  -4  -3  -7   89.54    2.87
  -5  -3  -7   11.56    0.50
  -6  -3  -7   17.62    0.69
  -7  -3  -7    7.30    0.39
  -8  -3  -7    1.38    0.19
  -9  -3  -7    1.15    0.18
   9   3   7    1.20    0.20
 -10  -3  -7    0.38    0.13
  10   3   7    0.48    0.15
 -11  -3  -7    0.46    0.15
  11   3   7    0.73    0.18
  15  -4  -7    1.29    0.22
 -15   4   7    1.01    0.20
  14  -4  -7   25.90    0.96
 -14   4   7   25.67    1.02
  13  -4  -7    1.14    0.18
 -13   4   7    0.71    0.17
  12  -4  -7    3.63    0.27
 -12   4   7    3.73    0.28
  11  -4  -7    0.01    0.10
  11  -4  -7    0.06    0.05
 -11   4   7    0.05    0.10
  10  -4  -7    6.95    0.34
  10  -4  -7    7.41    0.27
 -10   4   7    6.44    0.36
   9  -4  -7    5.56    0.29
   9  -4  -7    5.80    0.23
  -9   4   7    6.06    0.32
  -9   4   7    6.05    0.24
   8  -4  -7    8.57    0.31
   8  -4  -7    8.47    0.36
  -8   4   7    8.83    0.40
  -8   4   7    8.74    0.30
   7  -4  -7   44.01    1.36
   7  -4  -7   45.34    1.32
  -7   4   7   44.85    1.31
  -7   4   7   43.19    1.48
   6  -4  -7   78.77    2.54
   6  -4  -7   79.05    2.36
   6  -4  -7   80.32    2.33
  -6   4   7   81.31    2.56
  -6   4   7   80.41    2.31
   5  -4  -7    9.79    0.36
   5  -4  -7    9.77    0.39
  -5   4   7    9.96    0.33
  -5   4   7    9.70    0.41
  -5   4   7    9.73    0.36
   4  -4  -7   41.63    1.42
   4  -4  -7   44.83    1.31
  -4   4   7   43.22    1.30
  -4   4   7   44.07    1.44
   3  -4  -7   86.39    2.47
   3  -4  -7   87.36    2.68
  -3   4   7   87.11    2.46
  -3   4   7   76.70    2.67
   2  -4  -7   17.07    0.61
   2  -4  -7   16.14    0.56
  -2   4   7   16.45    0.56
  -2   4   7   16.15    0.61
  -2   4   7   16.29    0.54
   1  -4  -7   86.80    2.71
   1  -4  -7   84.68    2.51
  -1   4   7   83.69    2.71
  -1   4   7   86.26    2.50
   0  -4  -7    9.01    0.37
   0  -4  -7   10.08    0.41
  -1  -4  -7    8.47    0.37
  -1  -4  -7    7.84    0.34
  -1  -4  -7    7.72    0.38
  -2  -4  -7   17.26    0.65
  -2  -4  -7   16.80    0.66
  -3  -4  -7    3.50    0.24
  -4  -4  -7   22.97    0.86
  -5  -4  -7    7.25    0.37
  -6  -4  -7   17.96    0.72
  -7  -4  -7   10.67    0.51
  -8  -4  -7   12.35    0.57
  -9  -4  -7    2.28    0.24
 -10  -4  -7    0.46    0.15
  10   4   7    0.20    0.13
 -11  -4  -7    0.15    0.13
  11   4   7    0.09    0.14
  16  -5  -7    0.68    0.20
 -16   5   7    0.48    0.17
  15  -5  -7    0.08    0.14
 -15   5   7    0.20    0.13
  14  -5  -7    0.34    0.16
 -14   5   7    0.37    0.14
  13  -5  -7   14.81    0.61
 -13   5   7   13.53    0.63
  12  -5  -7    2.93    0.24
 -12   5   7    2.77    0.26
  11  -5  -7   12.66    0.45
  11  -5  -7   12.51    0.52
 -11   5   7   13.27    0.57
  10  -5  -7    1.07    0.16
  10  -5  -7    1.09    0.11
 -10   5   7    1.12    0.17
 -10   5   7    1.06    0.10
 -10   5   7    1.04    0.11
   9  -5  -7    1.98    0.18
   9  -5  -7    1.68    0.12
  -9   5   7    2.12    0.21
  -9   5   7    1.81    0.11
   8  -5  -7    0.40    0.07
   8  -5  -7    0.51    0.11
  -8   5   7    0.44    0.06
  -8   5   7    0.49    0.11
   7  -5  -7   35.28    1.13
   7  -5  -7   36.48    1.10
  -7   5   7   35.50    1.23
   6  -5  -7    7.59    0.31
   6  -5  -7    8.74    0.36
   6  -5  -7    7.62    0.32
  -6   5   7    8.18    0.29
  -6   5   7    7.92    0.37
   5  -5  -7    0.74    0.10
  -5   5   7    0.76    0.09
  -5   5   7    0.80    0.12
   4  -5  -7    3.66    0.20
   4  -5  -7    3.70    0.21
  -4   5   7    3.84    0.19
  -4   5   7    4.34    0.24
   3  -5  -7   11.03    0.43
   3  -5  -7   12.13    0.47
  -3   5   7   11.53    0.47
   2  -5  -7    2.61    0.18
   2  -5  -7    2.80    0.18
  -2   5   7    2.52    0.18
   1  -5  -7    1.67    0.16
   1  -5  -7    1.49    0.16
   0  -5  -7   14.71    0.58
   0  -5  -7   15.36    0.56
  -1  -5  -7    2.26    0.19
  -1  -5  -7    2.26    0.20
  -1  -5  -7    2.38    0.19
  -2  -5  -7    1.31    0.16
  -2  -5  -7    1.19    0.16
  -3  -5  -7   70.85    2.32
  -4  -5  -7    0.28    0.11
  -5  -5  -7    1.34    0.18
  -6  -5  -7    2.68    0.25
  -7  -5  -7    4.81    0.32
  -8  -5  -7   -0.07    0.10
  -9  -5  -7   38.73    1.40
 -10  -5  -7    0.51    0.15
  10   5   7    0.33    0.16
  16  -6  -7   11.41    0.57
  15  -6  -7    0.79    0.20
 -15   6   7    0.65    0.17
  14  -6  -7   -0.05    0.13
 -14   6   7   -0.13    0.09
  13  -6  -7    2.76    0.27
 -13   6   7    2.13    0.25
  12  -6  -7    3.77    0.28
  12  -6  -7    3.78    0.23
 -12   6   7    3.73    0.29
  11  -6  -7    1.47    0.18
  11  -6  -7    1.29    0.13
 -11   6   7    1.21    0.18
  10  -6  -7   11.22    0.42
  10  -6  -7   11.45    0.48
 -10   6   7   11.31    0.52
   9  -6  -7    4.06    0.21
   9  -6  -7    3.93    0.24
  -9   6   7    4.51    0.28
   8  -6  -7   21.69    0.76
   8  -6  -7   22.97    0.74
  -8   6   7   23.01    0.71
  -8   6   7   21.40    0.83
   7  -6  -7   33.01    1.15
   7  -6  -7   33.34    1.08
   7  -6  -7   34.55    1.06
  -7   6   7   33.64    1.03
  -7   6   7   33.29    1.17
   6  -6  -7   22.60    0.79
   6  -6  -7   21.90    0.73
   6  -6  -7   20.98    0.74
  -6   6   7   21.63    0.81
   5  -6  -7   17.87    0.63
   5  -6  -7   16.26    0.59
  -5   6   7   15.53    0.63
   4  -6  -7    0.55    0.10
   4  -6  -7    0.53    0.10
  -4   6   7    0.39    0.09
   3  -6  -7   12.00    0.48
   3  -6  -7   11.43    0.45
  -3   6   7   11.51    0.48
   2  -6  -7    0.30    0.08
   2  -6  -7    0.35    0.09
  -2   6   7    0.24    0.08
   1  -6  -7    0.21    0.09
   1  -6  -7    0.32    0.09
   0  -6  -7    1.01    0.14
   0  -6  -7    0.88    0.14
  -1  -6  -7   24.57    0.89
  -1  -6  -7   26.94    0.94
  -1  -6  -7   25.28    0.95
  -2  -6  -7    1.21    0.16
  -2  -6  -7    1.07    0.16
  -3  -6  -7    0.14    0.09
  -3  -6  -7    0.42    0.13
  -4  -6  -7   27.27    1.01
  -5  -6  -7    3.66    0.27
  -6  -6  -7   -0.01    0.10
  -7  -6  -7    0.22    0.13
  -8  -6  -7    1.01    0.19
  -9  -6  -7   18.75    0.80
  16  -7  -7    0.49    0.17
  15  -7  -7    3.70    0.32
  14  -7  -7    0.93    0.18
 -14   7   7    0.85    0.18
  13  -7  -7    0.03    0.12
 -13   7   7    0.12    0.12
  12  -7  -7    0.67    0.11
  12  -7  -7    0.44    0.14
 -12   7   7    0.67    0.15
  11  -7  -7    7.58    0.34
  11  -7  -7    8.04    0.40
 -11   7   7    8.16    0.42
  10  -7  -7    0.46    0.12
  10  -7  -7    0.36    0.10
 -10   7   7    0.63    0.14
   9  -7  -7   33.56    1.12
   9  -7  -7   34.11    1.09
  -9   7   7   34.47    1.22
   8  -7  -7    0.01    0.07
   8  -7  -7   -0.03    0.08
  -8   7   7   -0.03    0.09
   7  -7  -7   25.08    0.89
   7  -7  -7   24.03    0.83
   7  -7  -7   24.31    0.82
  -7   7   7   24.79    0.91
   6  -7  -7   12.72    0.50
  -6   7   7   12.59    0.53
   5  -7  -7    3.05    0.21
   5  -7  -7    2.82    0.19
  -5   7   7    2.57    0.21
   4  -7  -7   42.05    1.34
   4  -7  -7   45.08    1.43
  -4   7   7   39.42    1.42
   3  -7  -7    9.58    0.42
   3  -7  -7    9.38    0.42
  -3   7   7    9.73    0.43
   2  -7  -7   16.49    0.64
   2  -7  -7   16.14    0.62
   1  -7  -7   58.33    1.85
   1  -7  -7   60.14    1.96
   0  -7  -7    8.37    0.40
   0  -7  -7    8.57    0.41
  -1  -7  -7    0.07    0.11
  -1  -7  -7    0.20    0.10
  -1  -7  -7    0.02    0.10
  -2  -7  -7    1.91    0.22
  -3  -7  -7   13.64    0.60
  -4  -7  -7    7.59    0.41
  -5  -7  -7    0.00    0.10
  -6  -7  -7    4.75    0.34
  -7  -7  -7    0.56    0.15
  -8  -7  -7    0.73    0.17
  16  -8  -7    1.49    0.24
  15  -8  -7   -0.10    0.14
  14  -8  -7    0.11    0.15
  13  -8  -7    3.55    0.30
 -13   8   7    3.33    0.31
  12  -8  -7    1.40    0.20
  12  -8  -7    1.45    0.16
 -12   8   7    1.32    0.20
  11  -8  -7    0.56    0.11
  11  -8  -7    0.39    0.12
 -11   8   7    0.34    0.14
  10  -8  -7   22.80    0.84
  10  -8  -7   24.07    0.81
 -10   8   7   23.94    0.92
   9  -8  -7   44.08    1.35
   9  -8  -7   40.95    1.37
  -9   8   7   41.85    1.48
   8  -8  -7   25.09    0.87
   8  -8  -7   25.78    0.90
  -8   8   7   26.90    0.98
   7  -8  -7    2.93    0.21
   7  -8  -7    2.83    0.21
   7  -8  -7    2.66    0.22
  -7   8   7    2.72    0.23
   6  -8  -7   13.00    0.52
  -6   8   7   12.71    0.55
   5  -8  -7   19.67    0.69
   5  -8  -7   16.92    0.69
  -5   8   7   18.45    0.72
   4  -8  -7    3.04    0.23
   4  -8  -7    3.60    0.23
  -4   8   7    3.58    0.25
   3  -8  -7    5.12    0.31
   3  -8  -7    5.15    0.29
  -3   8   7    5.19    0.29
   2  -8  -7    4.70    0.28
   2  -8  -7    5.05    0.30
   1  -8  -7    1.15    0.19
   1  -8  -7    1.28    0.16
   0  -8  -7   30.89    1.09
   0  -8  -7   31.04    1.12
  -1  -8  -7    0.10    0.11
  -1  -8  -7    0.03    0.12
  -2  -8  -7    0.33    0.13
  -3  -8  -7    1.99    0.23
  -4  -8  -7    0.04    0.11
  -5  -8  -7    2.08    0.24
  -6  -8  -7    0.83    0.17
  -7  -8  -7    1.21    0.20
  15  -9  -7    0.71    0.20
  14  -9  -7    0.45    0.17
  13  -9  -7    0.86    0.18
  12  -9  -7    0.48    0.16
  12  -9  -7    0.49    0.12
  11  -9  -7    0.55    0.12
  11  -9  -7    0.71    0.15
 -11   9   7    0.35    0.15
  10  -9  -7    1.68    0.18
  10  -9  -7    1.72    0.21
 -10   9   7    1.88    0.23
   9  -9  -7    0.00    0.10
   9  -9  -7    0.08    0.10
  -9   9   7    0.17    0.11
   8  -9  -7   10.79    0.46
   8  -9  -7   10.69    0.48
  -8   9   7   10.13    0.50
   7  -9  -7   59.09    1.87
  -7   9   7   59.74    2.00
   6  -9  -7    4.48    0.27
   6  -9  -7    5.03    0.30
  -6   9   7    4.34    0.29
   5  -9  -7   41.20    1.45
   5  -9  -7   43.29    1.40
  -5   9   7   43.56    1.48
   4  -9  -7    3.22    0.25
   4  -9  -7    3.34    0.24
  -4   9   7    3.05    0.23
   3  -9  -7    3.98    0.28
   3  -9  -7    3.96    0.27
   2  -9  -7    6.93    0.38
   1  -9  -7    5.35    0.34
   0  -9  -7   19.04    0.81
   0  -9  -7   20.44    0.79
  -1  -9  -7    7.70    0.43
  -1  -9  -7    7.68    0.43
  -2  -9  -7    0.19    0.12
  -3  -9  -7    8.11    0.45
  -4  -9  -7    0.27    0.13
  -5  -9  -7    1.28    0.20
  -6  -9  -7    2.25    0.26
  15 -10  -7    2.37    0.30
  14 -10  -7    0.41    0.16
  13 -10  -7    4.12    0.34
  12 -10  -7    2.90    0.29
  12 -10  -7    3.35    0.24
  11 -10  -7   -0.05    0.09
  11 -10  -7   -0.15    0.12
  10 -10  -7    0.24    0.13
  10 -10  -7    0.15    0.11
   9 -10  -7   -0.06    0.10
   9 -10  -7    0.22    0.13
   8 -10  -7    5.45    0.33
   8 -10  -7    5.18    0.33
   7 -10  -7    0.30    0.14
   6 -10  -7    7.28    0.39
   5 -10  -7   10.52    0.50
   4 -10  -7   23.32    0.88
   3 -10  -7    3.55    0.30
   2 -10  -7    1.35    0.22
   1 -10  -7    0.24    0.14
   0 -10  -7    0.29    0.15
   0 -10  -7    0.46    0.15
  -1 -10  -7   10.24    0.53
  -2 -10  -7   -0.02    0.12
  -3 -10  -7   15.78    0.71
  -4 -10  -7   10.18    0.53
  -5 -10  -7    0.00    0.12
  15 -11  -7    1.40    0.24
  14 -11  -7    5.34    0.38
  13 -11  -7    0.48    0.18
  12 -11  -7    2.85    0.27
  12 -11  -7    3.21    0.32
  11 -11  -7   -0.10    0.10
  11 -11  -7    0.04    0.11
  10 -11  -7    4.71    0.32
  10 -11  -7    4.83    0.35
   9 -11  -7    0.57    0.16
   9 -11  -7    0.39    0.14
   8 -11  -7    0.98    0.19
   7 -11  -7    0.91    0.18
   6 -11  -7    4.25    0.31
   5 -11  -7   -0.06    0.11
   4 -11  -7   12.73    0.59
   3 -11  -7   14.33    0.65
   2 -11  -7    0.50    0.16
   1 -11  -7    0.27    0.15
   0 -11  -7    4.80    0.37
   0 -11  -7    5.26    0.39
  -1 -11  -7    0.44    0.16
  -2 -11  -7    1.61    0.23
  -3 -11  -7   -0.07    0.11
  -4 -11  -7    6.21    0.41
  14 -12  -7    0.53    0.19
  13 -12  -7    0.71    0.19
  12 -12  -7    0.19    0.13
  12 -12  -7    0.02    0.14
  11 -12  -7    0.08    0.13
  11 -12  -7    0.27    0.16
  10 -12  -7    1.78    0.24
  10 -12  -7    1.31    0.22
   9 -12  -7    5.76    0.39
   8 -12  -7   -0.02    0.11
   7 -12  -7    2.01    0.26
   6 -12  -7   10.15    0.53
   5 -12  -7    2.95    0.31
   4 -12  -7    2.86    0.31
   3 -12  -7   -0.15    0.13
   2 -12  -7    4.97    0.40
   1 -12  -7    0.39    0.19
   1 -12  -7    0.20    0.15
   0 -12  -7    2.95    0.33
   0 -12  -7    3.07    0.31
  -1 -12  -7    8.69    0.51
  -2 -12  -7    0.49    0.16
  14 -13  -7    2.19    0.31
  13 -13  -7    3.28    0.36
  12 -13  -7    1.83    0.24
  12 -13  -7    1.77    0.28
  11 -13  -7    3.90    0.37
  11 -13  -7    3.46    0.32
  10 -13  -7    0.12    0.16
   9 -13  -7    0.88    0.21
   8 -13  -7    7.19    0.46
   7 -13  -7    4.32    0.37
   6 -13  -7    2.56    0.31
   5 -13  -7    2.90    0.32
   4 -13  -7    7.10    0.46
   3 -13  -7    8.76    0.53
   2 -13  -7    0.63    0.20
   1 -13  -7    0.25    0.19
   1 -13  -7    0.53    0.19
   0 -13  -7    0.77    0.19
  -1 -13  -7    1.29    0.23
  13 -14  -7    0.24    0.17
  12 -14  -7    6.88    0.46
  11 -14  -7    6.81    0.48
  10 -14  -7    3.62    0.37
   9 -14  -7    1.35    0.26
   8 -14  -7    2.44    0.31
   7 -14  -7    0.01    0.16
   6 -14  -7    6.98    0.47
   5 -14  -7    0.32    0.17
   4 -14  -7    3.58    0.38
   3 -14  -7    3.76    0.40
   2 -14  -7    1.62    0.29
   1 -14  -7    0.35    0.19
   1 -14  -7    0.34    0.16
  11 -15  -7    2.89    0.36
  10 -15  -7    1.53    0.28
   9 -15  -7    0.22    0.17
   8 -15  -7   -0.24    0.13
   7 -15  -7    5.22    0.43
   6 -15  -7    4.36    0.44
   5 -15  -7    1.22    0.26
   4 -15  -7    0.77    0.25
   3 -17   8    0.95    0.26
   4 -17   8    2.42    0.33
   5 -17   8    2.34    0.31
   5 -17   8    1.99    0.30
   6 -17   8   -0.04    0.14
   6 -17   8    0.32    0.18
   7 -17   8    1.05    0.26
   8 -17   8    1.52    0.28
   8 -17   8    1.20    0.25
   9 -17   8    0.60    0.21
   9 -17   8    1.07    0.24
  10 -17   8    0.56    0.22
  10 -17   8    0.68    0.22
  11 -17   8    3.09    0.38
   1 -16   8    4.80    0.40
   1 -16   8    4.19    0.24
   2 -16   8    0.15    0.18
   3 -16   8    1.75    0.29
   4 -16   8    0.26    0.20
   4 -16   8    0.15    0.16
   5 -16   8    3.78    0.38
   5 -16   8    5.00    0.41
   6 -16   8    0.68    0.20
   6 -16   8    0.58    0.20
   7 -16   8   -0.04    0.14
   7 -16   8    0.00    0.15
   8 -16   8   10.08    0.57
   8 -16   8   11.10    0.59
   9 -16   8    0.56    0.19
   9 -16   8    0.43    0.19
  10 -16   8    2.33    0.31
  10 -16   8    2.42    0.31
  11 -16   8    0.77    0.21
  11 -16   8    0.86    0.21
  12 -16   8    0.17    0.17
  12 -16   8    0.27    0.19
  -1 -15   8    2.71    0.15
   0 -15   8    9.60    0.57
   0 -15   8    9.49    0.37
   1 -15   8    0.80    0.22
   2 -15   8    0.81    0.22
   3 -15   8   -0.09    0.15
   3 -15   8   -0.18    0.14
   4 -15   8   14.71    0.71
   4 -15   8   15.15    0.70
   5 -15   8    3.08    0.33
   5 -15   8    2.47    0.31
   6 -15   8    0.25    0.18
   6 -15   8    0.43    0.17
   7 -15   8    0.78    0.19
   7 -15   8    0.72    0.20
   8 -15   8    0.44    0.19
   8 -15   8    0.60    0.20
   9 -15   8    1.36    0.24
   9 -15   8    1.80    0.27
  10 -15   8    1.23    0.25
  10 -15   8    1.21    0.25
  11 -15   8    2.17    0.29
  11 -15   8    2.39    0.30
  12 -15   8    1.49    0.25
  12 -15   8    1.26    0.23
  13 -15   8    0.02    0.16
  13 -15   8    0.12    0.17
  -1 -14   8    4.06    0.17
   0 -14   8    7.24    0.30
   0 -14   8    8.73    0.33
   0 -14   8    9.55    0.52
   1 -14   8    5.50    0.37
   1 -14   8    3.71    0.18
   2 -14   8    5.78    0.42
   2 -14   8    6.62    0.44
   3 -14   8   -0.19    0.12
   3 -14   8    0.09    0.15
   4 -14   8    0.23    0.14
   4 -14   8    0.47    0.17
   5 -14   8    5.12    0.38
   5 -14   8    4.59    0.37
   6 -14   8   39.30    1.35
   6 -14   8   37.42    1.35
   7 -14   8   -0.01    0.14
   7 -14   8    0.22    0.15
   8 -14   8    6.97    0.42
   8 -14   8    6.51    0.41
   9 -14   8    0.70    0.18
   9 -14   8    0.52    0.17
  10 -14   8    0.11    0.14
  10 -14   8    0.35    0.17
  11 -14   8    0.31    0.16
  11 -14   8    0.34    0.16
  12 -14   8    2.47    0.29
  12 -14   8    2.70    0.30
  13 -14   8    0.74    0.22
  13 -14   8    0.54    0.17
  14 -14   8    6.81    0.46
  14 -14   8    6.77    0.45
  -4 -13   8    0.71    0.07
  -3 -13   8    0.11    0.04
  -2 -13   8   18.76    0.61
  -1 -13   8    4.73    0.18
  -1 -13   8    4.50    0.37
  -1 -13   8    4.26    0.19
   0 -13   8    5.54    0.39
   0 -13   8    6.48    0.24
   1 -13   8    2.35    0.13
   1 -13   8    2.39    0.28
   1 -13   8    2.93    0.31
   2 -13   8    0.84    0.08
   2 -13   8    0.56    0.16
   2 -13   8    0.65    0.18
   3 -13   8    1.61    0.22
   3 -13   8    1.66    0.23
   3 -13   8    1.71    0.13
   4 -13   8    0.61    0.16
   4 -13   8    0.48    0.08
   4 -13   8    0.50    0.15
   5 -13   8    0.52    0.16
   5 -13   8    0.71    0.17
   6 -13   8    6.25    0.38
   6 -13   8    7.05    0.40
   7 -13   8    5.84    0.38
   7 -13   8    5.46    0.37
   8 -13   8    4.82    0.35
   8 -13   8    4.87    0.35
   9 -13   8    4.43    0.34
   9 -13   8    4.99    0.36
  10 -13   8    2.72    0.29
  10 -13   8    2.81    0.29
  11 -13   8    0.02    0.12
  11 -13   8    0.01    0.14
  12 -13   8    3.88    0.36
  12 -13   8    4.60    0.35
  13 -13   8    0.49    0.19
  13 -13   8    0.96    0.21
  14 -13   8    0.97    0.20
  14 -13   8    1.15    0.23
  -5 -12   8    4.34    0.19
  -3 -12   8    1.15    0.08
  -2 -12   8    0.72    0.06
  -1 -12   8    2.98    0.13
  -1 -12   8    2.70    0.14
  -1 -12   8    2.87    0.30
   0 -12   8    0.56    0.06
   0 -12   8    0.75    0.16
   1 -12   8    0.86    0.08
   1 -12   8    1.13    0.18
   1 -12   8    0.82    0.17
   2 -12   8    0.43    0.14
   2 -12   8    0.52    0.07
   2 -12   8    0.73    0.17
   3 -12   8    5.80    0.36
   3 -12   8    5.89    0.25
   3 -12   8    5.62    0.36
   4 -12   8    9.23    0.45
   4 -12   8    8.58    0.35
   4 -12   8    8.54    0.44
   5 -12   8    1.59    0.21
   5 -12   8    0.84    0.17
   5 -12   8    1.68    0.14
   6 -12   8    3.26    0.29
   6 -12   8    4.00    0.30
   6 -12   8    3.57    0.27
   7 -12   8    2.07    0.24
   7 -12   8    1.68    0.22
   7 -12   8    1.98    0.23
   8 -12   8    0.27    0.13
   8 -12   8    0.15    0.12
   8 -12   8    0.22    0.12
   9 -12   8    1.44    0.20
   9 -12   8    1.96    0.22
   9 -12   8    2.00    0.23
  10 -12   8    2.67    0.27
  10 -12   8    2.46    0.25
  10 -12   8    2.38    0.26
  11 -12   8    1.54    0.22
  11 -12   8    1.63    0.22
  12 -12   8   21.07    0.82
  12 -12   8   20.47    0.83
  13 -12   8    0.15    0.15
  13 -12   8    0.15    0.14
  14 -12   8    3.48    0.33
  14 -12   8    3.35    0.33
  15 -12   8    9.28    0.54
  15 -12   8    8.75    0.49
  -7 -11   8    0.01    0.06
  -6 -11   8    0.97    0.10
  -5 -11   8    1.52    0.11
  -4 -11   8    0.64    0.07
  -4 -11   8    0.60    0.08
  -3 -11   8    0.04    0.04
  -1 -11   8    5.71    0.35
   0 -11   8    6.79    0.39
   0 -11   8    7.75    0.41
   0 -11   8    6.50    0.24
   1 -11   8   22.10    0.86
   1 -11   8   24.02    0.88
   1 -11   8   24.06    0.76
   2 -11   8   24.51    0.89
   2 -11   8   25.87    0.91
   2 -11   8   24.35    0.81
   3 -11   8    0.21    0.11
   3 -11   8    0.26    0.12
   3 -11   8    0.03    0.05
   4 -11   8   12.56    0.46
   4 -11   8   12.58    0.53
   4 -11   8   11.66    0.53
   4 -11   8   12.54    0.53
   5 -11   8   25.95    0.95
   5 -11   8   27.76    0.96
   5 -11   8   27.47    0.93
   5 -11   8   28.13    0.96
  -6  11  -8    8.75    0.35
   6 -11   8    8.00    0.41
   6 -11   8    8.77    0.41
   6 -11   8    8.65    0.42
   6 -11   8    8.04    0.36
   7 -11   8    0.17    0.12
   7 -11   8    0.19    0.11
   7 -11   8    0.10    0.10
   7 -11   8    0.24    0.09
   8 -11   8    8.49    0.43
   8 -11   8    8.76    0.43
   8 -11   8    9.42    0.43
   9 -11   8    6.99    0.38
   9 -11   8    7.06    0.39
   9 -11   8    7.09    0.37
  10 -11   8    0.59    0.15
  10 -11   8    0.21    0.12
  10 -11   8    0.48    0.15
  11 -11   8    0.07    0.12
  11 -11   8   -0.07    0.10
  11 -11   8    0.13    0.13
  12 -11   8    1.64    0.22
  12 -11   8    1.40    0.23
  12 -11   8    1.58    0.21
  13 -11   8    4.06    0.34
  13 -11   8    4.11    0.31
  14 -11   8    1.98    0.26
  14 -11   8    1.53    0.24
  15 -11   8    4.06    0.34
  15 -11   8    3.72    0.37
  -8 -10   8    1.16    0.13
  -7 -10   8    1.48    0.14
  -6 -10   8    2.42    0.15
  -5 -10   8    9.10    0.34
  -4 -10   8    1.77    0.10
  -3 -10   8   33.42    1.05
  -3 -10   8   32.92    1.04
  -1 -10   8    0.37    0.13
   0 -10   8    8.29    0.41
   0 -10   8    8.35    0.28
   0 -10   8    8.31    0.41
   1 -10   8   20.90    0.76
   1 -10   8   19.93    0.66
   1 -10   8   20.19    0.75
   2 -10   8    0.69    0.14
   2 -10   8    0.74    0.08
   2 -10   8    0.87    0.15
   2 -10   8    0.90    0.15
   3 -10   8  111.42    3.26
   3 -10   8  111.08    3.29
   3 -10   8  108.96    3.27
   3 -10   8  106.93    3.40
   4 -10   8    8.65    0.40
   4 -10   8    8.04    0.39
   4 -10   8    8.42    0.33
   4 -10   8    8.13    0.40
  -5  10  -8    2.33    0.15
   5 -10   8    2.12    0.21
   5 -10   8    2.38    0.16
   5 -10   8    2.61    0.23
   5 -10   8    2.61    0.22
  -6  10  -8    0.33    0.08
   6 -10   8    0.07    0.07
   6 -10   8    0.33    0.12
   6 -10   8    0.24    0.12
   6 -10   8   -0.12    0.10
  -7  10  -8    2.59    0.17
   7 -10   8    2.75    0.24
   7 -10   8    2.68    0.22
   7 -10   8    2.47    0.22
   7 -10   8    2.68    0.18
   8 -10   8    0.43    0.12
   8 -10   8    0.33    0.12
   8 -10   8    0.27    0.11
   9 -10   8   18.85    0.70
   9 -10   8   18.41    0.70
   9 -10   8   18.63    0.70
  10 -10   8   13.35    0.57
  10 -10   8   13.08    0.56
  10 -10   8   13.33    0.55
  11 -10   8    3.31    0.24
  11 -10   8    3.28    0.26
  11 -10   8    2.93    0.25
  12 -10   8    2.49    0.27
  12 -10   8    2.50    0.26
  12 -10   8    2.51    0.22
  13 -10   8    0.17    0.14
  13 -10   8    0.26    0.11
  13 -10   8    0.17    0.14
  14 -10   8    0.80    0.19
  14 -10   8    0.95    0.20
  15 -10   8    3.75    0.36
  15 -10   8    3.67    0.32
  -9  -9   8    0.02    0.08
  -8  -9   8    0.07    0.07
  -7  -9   8    0.74    0.10
  -6  -9   8    2.24    0.15
  -5  -9   8    3.92    0.18
  -4  -9   8    1.51    0.10
  -3  -9   8    6.20    0.22
  -1  -9   8    0.71    0.14
  -1  -9   8    0.64    0.13
   0  -9   8    0.54    0.12
   0  -9   8    0.63    0.05
   0  -9   8    0.74    0.12
   0  -9   8    0.66    0.13
   1  -9   8    1.00    0.13
   1  -9   8    0.89    0.07
   1  -9   8    0.69    0.12
   1  -9   8    1.18    0.16
   2  -9   8   44.56    1.42
   2  -9   8   45.54    1.42
   2  -9   8   44.93    1.43
   2  -9   8   44.76    1.43
   3  -9   8   13.13    0.52
   3  -9   8   13.38    0.47
   3  -9   8   13.68    0.52
   3  -9   8   13.81    0.52
  -4   9  -8   57.81    1.80
   4  -9   8   57.74    1.78
   4  -9   8   59.68    1.79
   4  -9   8   56.83    1.76
   4  -9   8   55.46    1.82
  -5   9  -8    3.61    0.18
   5  -9   8    3.71    0.23
   5  -9   8    3.70    0.23
   5  -9   8    3.40    0.19
   5  -9   8    3.49    0.22
  -6   9  -8   15.12    0.56
   6  -9   8   15.12    0.58
   6  -9   8   15.52    0.58
   6  -9   8   15.51    0.57
   6  -9   8   15.49    0.58
  -7   9  -8    1.54    0.14
   7  -9   8    1.48    0.17
   7  -9   8    1.33    0.16
   7  -9   8    1.38    0.14
   7  -9   8    1.28    0.16
  -8   9  -8    0.14    0.07
   8  -9   8    0.15    0.09
   8  -9   8    0.06    0.08
   8  -9   8    0.09    0.09
   8  -9   8    0.06    0.07
  -9   9  -8    1.34    0.16
   9  -9   8    1.10    0.15
   9  -9   8    1.33    0.18
   9  -9   8    1.28    0.17
  10  -9   8    2.51    0.24
  10  -9   8    2.21    0.19
  10  -9   8    2.08    0.21
  11  -9   8    0.74    0.15
  11  -9   8    0.56    0.15
  11  -9   8    0.55    0.12
  12  -9   8    6.19    0.36
  12  -9   8    6.00    0.36
  12  -9   8    5.58    0.31
  13  -9   8    1.24    0.19
  13  -9   8    0.90    0.15
  13  -9   8    0.83    0.18
  14  -9   8    0.72    0.17
  14  -9   8    0.57    0.17
  15  -9   8   -0.12    0.12
  15  -9   8    0.01    0.13
  -9  -8   8   -0.13    0.06
  -8  -8   8    0.48    0.10
  -7  -8   8    1.57    0.14
  -6  -8   8    2.61    0.16
  -5  -8   8    3.83    0.18
  -4  -8   8   26.15    0.84
  -3  -8   8    5.25    0.19
  -1  -8   8    0.19    0.09
  -1  -8   8    0.25    0.10
  -1  -8   8    0.12    0.07
   0  -8   8    3.02    0.20
   0  -8   8    3.31    0.22
   0  -8   8    3.52    0.22
   1  -8   8    0.58    0.05
   1  -8   8    0.35    0.10
   1  -8   8    0.77    0.11
   1  -8   8    0.39    0.10
   2  -8   8    9.76    0.39
   2  -8   8    9.23    0.34
   2  -8   8    9.90    0.40
   2  -8   8   10.02    0.40
  -3   8  -8    5.68    0.21
   3  -8   8    5.41    0.23
   3  -8   8    5.54    0.27
   3  -8   8    5.90    0.28
   3  -8   8    5.47    0.27
  -4   8  -8  104.21    3.27
   4  -8   8  109.46    3.14
   4  -8   8  102.34    3.29
   4  -8   8  104.73    3.10
   4  -8   8  107.18    3.12
  -5   8  -8    0.35    0.07
   5  -8   8    0.41    0.10
   5  -8   8    0.61    0.11
   5  -8   8    0.29    0.07
   5  -8   8    0.46    0.10
  -6   8  -8   39.61    1.31
   6  -8   8   41.79    1.28
   6  -8   8   42.07    1.33
   6  -8   8   39.16    1.26
   6  -8   8   38.22    1.27
  -7   8  -8   13.09    0.47
   7  -8   8   12.19    0.47
   7  -8   8   10.73    0.47
   7  -8   8   12.37    0.47
   7  -8   8   11.47    0.47
  -8   8  -8   11.05    0.45
   8  -8   8   11.46    0.47
   8  -8   8   10.86    0.45
   8  -8   8   10.33    0.45
   8  -8   8   11.50    0.45
  -9   8  -8    9.63    0.42
   9  -8   8    9.12    0.39
   9  -8   8    9.10    0.42
   9  -8   8    9.18    0.41
 -10   8  -8    4.31    0.28
  10  -8   8    5.10    0.30
  10  -8   8    5.01    0.29
  10  -8   8    4.88    0.27
  11  -8   8    5.19    0.30
  11  -8   8    5.01    0.27
  11  -8   8    4.80    0.32
  12  -8   8    4.04    0.24
  12  -8   8    3.86    0.28
  12  -8   8    3.60    0.30
  13  -8   8    1.22    0.16
  13  -8   8    1.63    0.23
  13  -8   8    1.60    0.21
  14  -8   8    0.81    0.17
  14  -8   8    0.62    0.19
  15  -8   8    0.00    0.13
  15  -8   8    0.43    0.18
 -10  -7   8    0.02    0.08
  -9  -7   8    0.00    0.07
  -8  -7   8    6.27    0.30
  -7  -7   8   16.34    0.59
  -6  -7   8    3.62    0.19
  -5  -7   8   23.21    0.77
  -4  -7   8    5.35    0.21
  -3  -7   8    0.26    0.04
  -2  -7   8    6.78    0.32
  -2  -7   8    7.07    0.30
  -1  -7   8    0.25    0.09
  -1  -7   8    0.14    0.07
  -1  -7   8    0.35    0.09
   0  -7   8   33.39    1.07
   0  -7   8   32.71    1.07
   0  -7   8   33.75    1.07
   0  -7   8   34.22    1.04
   1  -7   8   16.99    0.60
   1  -7   8   17.38    0.56
   1  -7   8   17.20    0.60
   1  -7   8   17.30    0.60
  -2   7  -8    0.68    0.05
  -2   7  -8    1.00    0.10
   2  -7   8    0.59    0.09
   2  -7   8    0.87    0.11
   2  -7   8    0.95    0.08
   2  -7   8    0.99    0.12
  -3   7  -8   13.29    0.45
   3  -7   8   13.71    0.49
   3  -7   8   12.81    0.48
   3  -7   8   13.06    0.46
   3  -7   8   13.16    0.47
  -4   7  -8    4.68    0.21
   4  -7   8    5.11    0.22
   4  -7   8    5.00    0.24
   4  -7   8    4.85    0.24
   4  -7   8    5.52    0.24
  -5   7  -8    0.07    0.05
   5  -7   8    0.03    0.07
   5  -7   8    0.09    0.07
   5  -7   8    0.06    0.05
   5  -7   8    0.04    0.07
  -6   7  -8    7.34    0.31
   6  -7   8    7.24    0.31
   6  -7   8    6.72    0.31
   6  -7   8    7.40    0.32
   6  -7   8    7.00    0.31
  -7   7  -8  119.59    3.90
   7  -7   8  131.88    3.68
   7  -7   8  129.91    3.67
   7  -7   8  119.50    3.91
   7  -7   8  122.65    3.64
  -8   7  -8    8.52    0.39
   8  -7   8    9.35    0.40
   8  -7   8    9.48    0.38
   8  -7   8    9.36    0.42
   8  -7   8    9.79    0.40
  -9   7  -8   38.01    1.31
   9  -7   8   36.37    1.33
   9  -7   8   38.65    1.22
   9  -7   8   39.43    1.25
   9  -7   8   39.93    1.25
 -10   7  -8   20.70    0.78
  10  -7   8   20.23    0.75
  10  -7   8   20.68    0.74
  10  -7   8   20.05    0.71
 -11   7  -8    0.68    0.14
  11  -7   8    0.64    0.13
  11  -7   8    0.94    0.12
  11  -7   8    0.80    0.16
  12  -7   8    0.00    0.11
  12  -7   8    0.08    0.08
  12  -7   8    0.12    0.11
  13  -7   8    1.15    0.21
  13  -7   8    1.06    0.18
  14  -7   8    0.15    0.14
  14  -7   8    0.43    0.14
  15  -7   8    0.05    0.13
  15  -7   8    0.09    0.16
 -11  -6   8    0.15    0.10
 -10  -6   8    1.15    0.15
  -9  -6   8    0.73    0.11
  -8  -6   8    1.45    0.14
  -7  -6   8    2.19    0.16
  -6  -6   8   -0.02    0.05
  -5  -6   8   28.06    0.91
  -4  -6   8   21.96    0.71
  -3  -6   8    0.80    0.10
  -3  -6   8    0.89    0.06
  -2  -6   8    8.04    0.33
  -2  -6   8    7.84    0.26
  -2  -6   8    8.60    0.32
   1   6  -8   14.76    0.53
  -1  -6   8   15.23    0.52
  -1  -6   8   16.41    0.54
  -1  -6   8   14.64    0.53
   0   6  -8   77.86    2.20
   0   6  -8   72.91    2.22
   0  -6   8   71.94    2.21
   0  -6   8   74.28    2.23
   0  -6   8   77.11    2.30
   0  -6   8   74.60    2.21
  -1   6  -8    0.24    0.06
   1  -6   8    0.09    0.06
   1  -6   8    0.18    0.04
   1  -6   8    0.27    0.07
   1  -6   8    0.19    0.06
  -2   6  -8    3.77    0.15
  -2   6  -8    4.07    0.18
   2  -6   8    3.80    0.17
   2  -6   8    3.76    0.19
   2  -6   8    3.74    0.19
   2  -6   8    3.96    0.19
  -3   6  -8  140.82    4.64
  -3   6  -8  153.43    4.33
   3  -6   8  152.14    4.40
   3  -6   8  153.62    4.34
   3  -6   8  148.38    4.66
   3  -6   8  157.07    4.37
  -4   6  -8   18.46    0.63
  -4   6  -8   19.25    0.61
   4  -6   8   18.55    0.61
   4  -6   8   17.81    0.64
   4  -6   8   18.03    0.62
   4  -6   8   18.81    0.62
  -5   6  -8    0.19    0.06
   5  -6   8    0.30    0.07
   5  -6   8    0.18    0.06
   5  -6   8    0.26    0.07
   5  -6   8    0.18    0.06
  -6   6  -8    0.35    0.07
   6  -6   8    0.42    0.09
   6  -6   8    0.27    0.08
   6  -6   8    0.54    0.09
   6  -6   8    0.29    0.08
  -7   6  -8    9.62    0.40
   7  -6   8    9.52    0.42
   7  -6   8    9.67    0.39
   7  -6   8    9.59    0.39
   7  -6   8    9.92    0.38
  -8   6  -8   10.47    0.44
   8  -6   8   10.99    0.44
   8  -6   8   10.42    0.41
   8  -6   8   10.30    0.43
  -9   6  -8   -0.01    0.08
   9  -6   8    0.01    0.09
   9  -6   8    0.07    0.07
   9  -6   8    0.01    0.09
 -10   6  -8   49.79    1.65
  10  -6   8   47.55    1.54
  10  -6   8   48.43    1.51
  10  -6   8   49.70    1.56
 -11   6  -8    3.66    0.27
  11  -6   8    3.85    0.22
  11  -6   8    3.97    0.29
  11  -6   8    3.73    0.27
 -12   6  -8    4.78    0.31
  12  -6   8    4.43    0.24
  12  -6   8    4.42    0.30
  12  -6   8    4.39    0.31
  13  -6   8    0.91    0.19
  13  -6   8    1.05    0.17
  14  -6   8   13.06    0.60
  14  -6   8   11.93    0.55
  15  -6   8    3.29    0.34
  15  -6   8    3.45    0.29
 -12  -5   8    0.67    0.16
 -11  -5   8    2.81    0.23
 -10  -5   8   -0.01    0.08
  -9  -5   8    0.15    0.08
  -8  -5   8   14.04    0.53
  -7  -5   8   20.35    0.71
  -6  -5   8    4.10    0.20
  -5  -5   8   21.96    0.73
   4   5  -8   16.71    0.55
  -4  -5   8   15.80    0.54
  -4  -5   8   16.41    0.54
   3   5  -8    0.05    0.05
  -3  -5   8    0.00    0.05
  -3  -5   8   -0.03    0.03
   2   5  -8   26.38    0.83
   2   5  -8   26.48    0.81
  -2  -5   8   25.25    0.82
  -2  -5   8   26.28    0.83
  -2  -5   8   25.73    0.82
   1   5  -8   54.12    1.60
   1   5  -8   50.71    1.59
  -1  -5   8   53.24    1.61
  -1  -5   8   55.95    1.61
  -1  -5   8   55.99    1.61
  -1  -5   8   53.19    1.67
   0   5  -8   59.08    1.73
   0   5  -8   58.66    1.73
   0  -5   8   58.30    1.74
   0  -5   8   60.85    1.83
   0  -5   8   56.46    1.75
   0  -5   8   59.28    1.74
  -1   5  -8    4.58    0.19
  -1   5  -8    4.34    0.16
  -1   5  -8    4.49    0.18
  -1   5  -8    4.26    0.16
   1  -5   8    4.27    0.20
   1  -5   8    4.09    0.19
   1  -5   8    4.47    0.18
   1  -5   8    4.64    0.20
  -2   5  -8    3.70    0.18
  -2   5  -8    4.14    0.16
  -2   5  -8    3.98    0.17
   2  -5   8    3.92    0.19
   2  -5   8    3.92    0.18
   2  -5   8    3.95    0.18
   2  -5   8    3.89    0.19
  -3   5  -8   77.36    2.29
  -3   5  -8   85.05    2.46
   3  -5   8   79.55    2.47
   3  -5   8   73.82    2.29
   3  -5   8   78.14    2.33
  -4   5  -8   27.72    0.95
  -4   5  -8   29.07    0.89
   4  -5   8   29.30    0.90
   4  -5   8   29.11    0.91
   4  -5   8   30.21    0.92
   4  -5   8   28.33    0.97
  -5   5  -8    1.42    0.11
   5  -5   8    1.10    0.11
   5  -5   8    1.44    0.13
   5  -5   8    1.21    0.12
   5  -5   8    1.41    0.13
  -6   5  -8   11.71    0.45
   6  -5   8   11.89    0.43
   6  -5   8   11.99    0.42
   6  -5   8   11.56    0.43
   6  -5   8   10.54    0.46
  -7   5  -8    1.75    0.15
   7  -5   8    1.64    0.13
   7  -5   8    1.48    0.15
   7  -5   8    1.38    0.14
  -8   5  -8   22.26    0.81
   8  -5   8   22.53    0.77
   8  -5   8   21.75    0.76
   8  -5   8   22.72    0.83
   8  -5   8   22.09    0.73
  -9   5  -8   67.86    2.19
   9  -5   8   67.30    2.02
   9  -5   8   67.05    2.05
   9  -5   8   66.43    2.05
 -10   5  -8    1.24    0.16
  10  -5   8    1.23    0.16
  10  -5   8    1.29    0.13
  10  -5   8    1.07    0.16
 -11   5  -8    2.68    0.25
  11  -5   8    2.19    0.16
  11  -5   8    2.32    0.24
  11  -5   8    2.54    0.21
 -12   5  -8    0.12    0.10
  12  -5   8    0.16    0.13
  12  -5   8    0.10    0.10
 -13   5  -8    0.62    0.16
  13  -5   8    0.82    0.16
  13  -5   8    0.74    0.18
  14  -5   8    9.68    0.48
  14  -5   8    9.16    0.51
  15  -5   8    0.48    0.17
  15  -5   8    0.31    0.15
 -12  -4   8    1.95    0.22
 -11  -4   8    5.80    0.33
 -10  -4   8    0.05    0.08
  -9  -4   8    3.12    0.21
  -8  -4   8    3.85    0.22
  -7  -4   8    5.13    0.25
   6   4  -8    0.31    0.07
  -6  -4   8    0.24    0.06
   5   4  -8   25.21    0.80
  -5  -4   8   25.16    0.79
  -5  -4   8   26.18    0.84
   4   4  -8   10.08    0.35
  -4  -4   8    9.69    0.35
  -4  -4   8    9.80    0.34
   3   4  -8    3.46    0.19
   3   4  -8    3.48    0.16
  -3  -4   8    3.47    0.15
  -3  -4   8    3.61    0.16
   2   4  -8    0.21    0.05
   2   4  -8    0.13    0.06
  -2  -4   8    0.20    0.05
  -2  -4   8    0.16    0.04
  -2  -4   8    0.18    0.05
   1   4  -8   33.69    1.01
   1   4  -8   34.32    1.02
  -1  -4   8   34.26    1.02
  -1  -4   8   33.53    1.07
  -1  -4   8   33.23    1.03
  -1  -4   8   34.35    1.02
   0   4  -8   43.20    1.36
   0   4  -8   43.99    1.30
   0   4  -8   43.86    1.29
   0   4  -8   45.51    1.36
   0  -4   8   43.78    1.29
   0  -4   8   44.03    1.32
   0  -4   8   41.74    1.30
   0  -4   8   44.37    1.39
  -1   4  -8   84.78    2.41
  -1   4  -8   81.99    2.60
  -1   4  -8   85.27    2.61
  -1   4  -8   84.16    2.44
   1  -4   8   85.31    2.47
   1  -4   8   85.98    2.62
   1  -4   8   83.71    2.42
   1  -4   8   81.85    2.44
  -2   4  -8    4.98    0.21
  -2   4  -8    5.28    0.20
  -2   4  -8    5.39    0.19
   2  -4   8    4.86    0.22
   2  -4   8    4.79    0.21
   2  -4   8    4.83    0.19
  -3   4  -8    9.42    0.33
  -3   4  -8    9.33    0.31
  -3   4  -8    8.83    0.34
   3  -4   8    8.88    0.33
   3  -4   8    9.10    0.36
   3  -4   8    9.24    0.32
  -4   4  -8   29.81    1.03
   4  -4   8   33.14    1.06
   4  -4   8   31.42    0.98
   4  -4   8   32.03    0.96
  -5   4  -8   11.51    0.45
   5  -4   8   11.96    0.43
   5  -4   8   12.66    0.47
   5  -4   8   11.92    0.42
  -6   4  -8   39.39    1.28
   6  -4   8   37.40    1.20
   6  -4   8   39.25    1.20
   6  -4   8   38.31    1.30
   6  -4   8   38.63    1.19
  -7   4  -8    5.53    0.28
   7  -4   8    6.29    0.28
   7  -4   8    5.69    0.27
   7  -4   8    4.97    0.29
   7  -4   8    5.80    0.25
  -8   4  -8    0.05    0.07
   8  -4   8    0.04    0.07
   8  -4   8    0.08    0.06
   8  -4   8   -0.02    0.07
  -9   4  -8    0.76    0.13
   9  -4   8    1.19    0.17
   9  -4   8    0.99    0.15
   9  -4   8    1.14    0.12
 -10   4  -8   13.34    0.57
  10  -4   8   13.46    0.54
  10  -4   8   14.01    0.56
  10  -4   8   13.34    0.48
 -11   4  -8    1.92    0.21
  11  -4   8    2.40    0.25
  11  -4   8    2.30    0.16
  11  -4   8    2.04    0.22
 -12   4  -8    9.55    0.47
  12  -4   8    8.82    0.44
  12  -4   8    9.57    0.47
 -13   4  -8    0.28    0.14
  13  -4   8    0.24    0.13
  13  -4   8    0.18    0.15
  14  -4   8    0.65    0.19
  14  -4   8    0.47    0.15
 -13  -3   8    2.81    0.26
 -12  -3   8   -0.02    0.09
 -11  -3   8    7.44    0.38
 -10  -3   8    0.78    0.13
   9   3  -8    2.11    0.15
  -9  -3   8    2.39    0.19
  -8  -3   8    0.39    0.09
   7   3  -8    3.48    0.18
  -7  -3   8    3.32    0.20
   6   3  -8    7.39    0.27
  -6  -3   8    7.28    0.25
  -6  -3   8    6.78    0.29
   5   3  -8   11.20    0.38
  -5  -3   8   11.70    0.38
  -5  -3   8   11.48    0.41
   4   3  -8    7.70    0.26
   4   3  -8    7.46    0.30
  -4  -3   8    7.46    0.28
  -4  -3   8    7.49    0.27
   3   3  -8   69.17    1.97
   3   3  -8   68.92    2.00
  -3  -3   8   67.48    2.12
  -3  -3   8   67.43    2.00
   2   3  -8   55.46    1.74
   2   3  -8   55.96    1.65
   2   3  -8   57.50    1.64
   2   3  -8   57.50    1.75
  -2  -3   8   57.47    1.76
  -2  -3   8   56.07    1.67
  -2  -3   8   54.66    1.64
   1   3  -8    2.30    0.10
   1   3  -8    2.32    0.11
   1   3  -8    2.37    0.11
   1   3  -8    2.37    0.11
  -1  -3   8    2.14    0.11
  -1  -3   8    2.32    0.12
   0   3  -8   26.11    0.79
   0   3  -8   26.78    0.84
   0   3  -8   26.62    0.76
   0   3  -8   27.01    0.84
   0  -3   8   25.55    0.77
   0  -3   8   25.92    0.79
   0  -3   8   24.81    0.85
  -1   3  -8   21.03    0.65
  -1   3  -8   20.05    0.69
  -1   3  -8   21.96    0.62
   1  -3   8   20.75    0.70
   1  -3   8   20.28    0.62
   1  -3   8   21.84    0.65
  -2   3  -8   26.28    0.87
  -2   3  -8   26.31    0.82
   2  -3   8   26.72    0.82
   2  -3   8   27.14    0.79
   2  -3   8   25.90    0.88
  -3   3  -8    0.49    0.07
  -3   3  -8    0.41    0.07
   3  -3   8    0.43    0.06
   3  -3   8    0.49    0.07
   3  -3   8    0.36    0.07
  -4   3  -8   24.11    0.77
   4  -3   8   21.92    0.71
   4  -3   8   21.55    0.77
   4  -3   8   21.28    0.70
  -5   3  -8   18.12    0.66
   5  -3   8   18.98    0.68
   5  -3   8   18.45    0.62
   5  -3   8   19.70    0.64
  -6   3  -8   22.67    0.83
   6  -3   8   25.18    0.86
   6  -3   8   23.60    0.78
  -7   3  -8    1.84    0.16
   7  -3   8    1.79    0.17
  -8   3  -8   35.35    1.19
   8  -3   8   33.33    1.11
  -9   3  -8    7.88    0.37
   9  -3   8    6.80    0.34
   9  -3   8    6.63    0.29
 -10   3  -8   29.69    1.05
  10  -3   8   27.99    0.98
  10  -3   8   29.00    0.92
 -11   3  -8    0.71    0.14
  11  -3   8    0.68    0.10
  11  -3   8    0.64    0.14
 -12   3  -8    3.85    0.30
  12  -3   8    4.05    0.28
  12  -3   8    4.35    0.31
 -13   3  -8    7.19    0.42
  13  -3   8    7.66    0.45
  13  -3   8    6.15    0.37
 -14   3  -8    1.61    0.23
  14  -3   8    1.38    0.21
  14  -3   8    1.78    0.25
 -13  -2   8    3.38    0.28
 -12  -2   8    0.89    0.16
 -11  -2   8    0.98    0.16
 -10  -2   8   45.41    1.53
   9   2  -8    2.53    0.15
  -9  -2   8    2.74    0.20
   8   2  -8   10.41    0.37
   8   2  -8    9.98    0.35
  -8  -2   8   10.31    0.42
   7   2  -8   24.27    0.75
  -7  -2   8   24.24    0.83
   6   2  -8   15.15    0.48
  -6  -2   8   15.42    0.54
  -6  -2   8   14.79    0.47
   5   2  -8    2.14    0.10
  -5  -2   8    1.94    0.13
  -5  -2   8    1.99    0.10
   4   2  -8   28.90    0.83
  -4  -2   8   28.05    0.93
   3   2  -8   56.19    1.61
  -3  -2   8   56.19    1.76
  -3  -2   8   55.28    1.61
   2   2  -8   15.26    0.53
   2   2  -8   16.40    0.49
   2   2  -8   15.84    0.50
  -2  -2   8   16.29    0.55
  -2  -2   8   16.64    0.49
   1   2  -8   10.85    0.34
   1   2  -8   10.82    0.39
   1   2  -8   10.81    0.33
  -1  -2   8   11.01    0.39
  -1  -2   8   11.20    0.35
   0   2  -8  141.44    4.34
   0   2  -8  139.25    4.02
   0  -2   8  143.54    4.02
   0  -2   8  138.52    4.35
  -1   2  -8   11.41    0.42
  -1   2  -8   11.33    0.38
   1  -2   8   11.97    0.43
   1  -2   8   11.38    0.38
   1  -2   8   11.56    0.35
  -2   2  -8   87.19    2.49
  -2   2  -8   84.21    2.68
   2  -2   8   86.11    2.70
   2  -2   8   85.23    2.46
   2  -2   8   85.50    2.49
  -3   2  -8    7.90    0.30
  -3   2  -8    7.79    0.33
   3  -2   8    7.86    0.30
   3  -2   8    8.17    0.34
  -4   2  -8    0.71    0.10
   4  -2   8    0.70    0.09
   4  -2   8    0.78    0.10
  -5   2  -8  104.60    3.37
   5  -2   8  109.71    3.14
  -6   2  -8    6.31    0.29
   6  -2   8    6.07    0.31
   6  -2   8    5.76    0.28
  -7   2  -8    1.90    0.17
   7  -2   8    1.93    0.18
  -8   2  -8    2.71    0.21
   8  -2   8    2.89    0.20
  -9   2  -8    3.59    0.25
   9  -2   8    3.56    0.25
 -10   2  -8    0.80    0.15
  10  -2   8    0.79    0.14
 -11   2  -8    1.41    0.19
  11  -2   8    1.21    0.17
 -12   2  -8    4.40    0.32
  12  -2   8    4.31    0.30
 -13   2  -8    0.36    0.14
  13  -2   8    0.32    0.14
 -14   2  -8    3.51    0.32
  14  -2   8    3.05    0.30
 -14  -1   8    5.24    0.37
 -13  -1   8    0.38    0.14
 -12  -1   8    0.00    0.10
 -11  -1   8    0.60    0.14
  10   1  -8   28.03    0.88
 -10  -1   8   29.31    1.02
   9   1  -8   44.19    1.33
  -9  -1   8   46.22    1.51
   8   1  -8    2.53    0.12
   8   1  -8    2.26    0.13
  -8  -1   8    2.05    0.18
   7   1  -8   43.79    1.25
   7   1  -8   43.52    1.26
  -7  -1   8   43.11    1.25
  -7  -1   8   41.60    1.41
   6   1  -8   37.24    1.07
   6   1  -8   37.02    1.07
  -6  -1   8   36.55    1.21
  -5  -1   8   25.68    0.86
  -4  -1   8   61.01    1.93
  -3  -1   8  150.95    4.58
  -3  -1   8  145.33    4.20
   2   1  -8   77.45    2.20
  -2  -1   8   77.14    2.42
  -2  -1   8   77.25    2.21
   1   1  -8   77.80    2.48
  -1  -1   8   80.59    2.48
  -1  -1   8   78.57    2.27
   0   1  -8  115.40    3.57
   0  -1   8  117.19    3.25
   0  -1   8  111.82    3.29
  -1   1  -8   15.54    0.58
  -1   1  -8   16.45    0.58
   1  -1   8   16.68    0.59
   1  -1   8   16.71    0.52
  -2   1  -8    0.06    0.05
   2  -1   8    0.06    0.06
   2  -1   8    0.03    0.05
  -3   1  -8   61.06    1.94
   3  -1   8   59.84    1.80
   3  -1   8   61.00    1.96
  -4   1  -8    6.04    0.28
   4  -1   8    6.06    0.26
  -5   1  -8   21.30    0.78
   5  -1   8   21.91    0.73
   5  -1   8   22.17    0.80
  -6   1  -8    7.86    0.36
   6  -1   8    7.81    0.34
  -7   1  -8   16.02    0.62
   7  -1   8   15.39    0.58
  -8   1  -8    9.21    0.42
   8  -1   8    9.01    0.40
  -9   1  -8    5.59    0.33
   9  -1   8    5.82    0.32
 -10   1  -8    0.65    0.14
  10  -1   8    0.46    0.12
 -11   1  -8    1.50    0.20
  11  -1   8    1.81    0.21
 -12   1  -8    3.83    0.30
  12  -1   8    4.18    0.31
 -13   1  -8   -0.01    0.12
  13  -1   8    0.13    0.11
  14   0  -8    5.02    0.37
 -14   0   8    4.98    0.36
  13   0  -8    3.29    0.30
 -13   0   8    2.51    0.26
 -12   0   8   14.91    0.63
 -11   0   8   11.59    0.52
  10   0  -8    1.19    0.10
 -10   0   8    1.18    0.16
   9   0  -8   78.09    2.31
  -9   0   8   82.68    2.58
   8   0  -8    1.22    0.07
  -8   0   8    1.06    0.12
   7   0  -8    4.07    0.14
  -7   0   8    3.96    0.22
  -6   0   8   13.93    0.52
   5   0  -8    5.68    0.23
  -5   0   8    6.23    0.27
   4   0  -8  194.04    5.30
  -4   0   8  178.01    5.74
   3   0  -8   15.41    0.49
   3   0  -8   15.91    0.55
  -3   0   8   15.94    0.56
  -3   0   8   16.45    0.46
   2   0  -8   67.94    1.86
  -2   0   8   64.48    1.86
  -2   0   8   62.46    2.06
   1   0  -8   14.03    0.42
  -1   0   8   13.93    0.44
  -1   0   8   13.77    0.51
  -1   0   8   14.08    0.41
   0   0  -8    7.25    0.30
   0   0  -8    7.08    0.31
   0   0   8    6.70    0.25
   0   0   8    7.02    0.23
  -1   0  -8   11.07    0.42
  -1   0  -8   11.03    0.42
   1   0   8   10.12    0.35
  -2   0  -8   12.96    0.49
   2   0   8   12.94    0.50
  -3   0  -8   15.72    0.57
   3   0   8   14.60    0.52
  -4   0  -8   40.46    1.31
   4   0   8   38.43    1.21
   4   0   8   38.29    1.32
  -5   0  -8    0.32    0.08
  -6   0  -8    2.68    0.20
   6   0   8    2.46    0.18
  -7   0  -8   16.12    0.63
   7   0   8   15.45    0.59
  -8   0  -8   -0.05    0.08
   8   0   8    0.01    0.08
  -9   0  -8    8.52    0.42
   9   0   8    8.21    0.41
 -10   0  -8    0.94    0.17
  10   0   8    1.00    0.16
 -11   0  -8    2.61    0.27
  11   0   8    2.86    0.25
 -12   0  -8    5.75    0.38
  12   0   8    5.98    0.37
 -13   0  -8    1.53    0.23
  13   0   8    2.02    0.26
  15  -1  -8    0.21    0.16
 -15   1   8    0.31    0.15
  14  -1  -8    0.14    0.12
 -14   1   8    0.09    0.12
  13  -1  -8    1.00    0.18
 -13   1   8    1.29    0.19
  12  -1  -8   -0.02    0.11
 -12   1   8   -0.04    0.09
  11  -1  -8    1.47    0.18
 -11   1   8    1.17    0.16
  10  -1  -8    3.16    0.14
  10  -1  -8    3.42    0.24
 -10   1   8    3.24    0.24
   9  -1  -8   -0.03    0.07
   9  -1  -8   -0.02    0.03
  -9   1   8    0.05    0.08
   8  -1  -8    5.30    0.18
   8  -1  -8    4.91    0.25
  -8   1   8    5.29    0.27
   7  -1  -8   15.16    0.53
  -7   1   8   15.30    0.57
   6  -1  -8    1.18    0.11
  -6   1   8    1.37    0.12
   5  -1  -8   15.52    0.51
  -5   1   8   15.60    0.57
   4  -1  -8  119.25    3.71
   4  -1  -8  122.64    3.42
  -4   1   8  116.35    3.73
   3  -1  -8  156.24    4.57
   3  -1  -8  160.09    4.96
  -3   1   8  158.46    4.98
  -3   1   8  166.70    4.57
  -3   1   8  161.57    4.57
   2  -1  -8   72.88    2.15
  -2   1   8   75.29    2.38
  -2   1   8   77.03    2.15
   1  -1  -8    1.48    0.09
   1  -1  -8    1.72    0.12
  -1   1   8    1.47    0.08
  -1   1   8    1.72    0.14
   0  -1  -8    0.91    0.12
   0  -1  -8    0.68    0.10
   0   1   8    0.79    0.08
  -1  -1  -8   42.17    1.41
  -1  -1  -8   43.77    1.42
   1   1   8   43.19    1.28
  -2  -1  -8    7.13    0.33
  -3  -1  -8    0.50    0.10
   3   1   8    0.53    0.10
   3   1   8    0.90    0.11
  -4  -1  -8    3.38    0.22
  -5  -1  -8    0.11    0.08
  -6  -1  -8    0.06    0.08
   6   1   8    0.03    0.09
  -7  -1  -8   17.58    0.69
   7   1   8   17.55    0.66
  -8  -1  -8   10.43    0.48
   8   1   8    9.83    0.45
  -9  -1  -8   11.48    0.53
   9   1   8   12.02    0.52
 -10  -1  -8   15.82    0.67
  10   1   8   15.24    0.64
 -11  -1  -8    3.16    0.30
  11   1   8    3.22    0.28
 -12  -1  -8   -0.01    0.12
  12   1   8    0.20    0.13
  15  -2  -8    1.18    0.22
 -15   2   8    1.42    0.23
  14  -2  -8   10.02    0.50
 -14   2   8    8.69    0.48
  13  -2  -8    2.68    0.26
 -13   2   8    2.85    0.26
  12  -2  -8    1.88    0.22
 -12   2   8    2.13    0.23
  11  -2  -8    3.07    0.24
 -11   2   8    2.85    0.24
  10  -2  -8   11.61    0.47
  10  -2  -8   10.83    0.36
 -10   2   8   10.67    0.49
   9  -2  -8   68.40    1.97
   9  -2  -8   68.93    2.07
  -9   2   8   70.53    2.23
  -9   2   8   66.17    1.99
   8  -2  -8    0.77    0.12
   8  -2  -8    0.76    0.06
  -8   2   8    0.66    0.11
   7  -2  -8    2.21    0.09
   7  -2  -8    2.14    0.15
  -7   2   8    2.29    0.17
   6  -2  -8    6.01    0.25
  -6   2   8    6.32    0.19
  -6   2   8    5.76    0.28
   5  -2  -8    2.56    0.14
  -5   2   8    2.22    0.17
  -5   2   8    2.49    0.09
   4  -2  -8   29.60    0.91
   4  -2  -8   31.25    1.01
  -4   2   8   30.53    1.02
  -4   2   8   30.14    0.89
  -4   2   8   29.32    0.91
   3  -2  -8    0.60    0.07
  -3   2   8    0.57    0.07
  -3   2   8    0.46    0.09
  -3   2   8    0.53    0.06
   2  -2  -8   12.08    0.40
   2  -2  -8   11.95    0.45
  -2   2   8   12.14    0.39
  -2   2   8   11.61    0.46
   1  -2  -8  164.23    5.13
   1  -2  -8  166.53    4.73
  -1   2   8  171.18    5.14
  -1   2   8  159.53    4.72
   0  -2  -8   19.22    0.71
   0  -2  -8   19.52    0.70
   0  -2  -8   19.30    0.62
   0   2   8   19.72    0.62
  -1  -2  -8   54.03    1.80
  -1  -2  -8   56.36    1.80
  -2  -2  -8    5.01    0.27
   2   2   8    4.84    0.24
  -3  -2  -8   39.26    1.33
  -4  -2  -8   23.38    0.85
  -5  -2  -8   11.06    0.48
  -6  -2  -8   64.69    2.13
  -7  -2  -8   12.34    0.54
  -8  -2  -8    0.08    0.10
   8   2   8   -0.03    0.11
  -9  -2  -8    5.76    0.35
   9   2   8    5.75    0.34
 -10  -2  -8    9.36    0.48
  10   2   8    9.51    0.48
 -11  -2  -8    2.93    0.28
  11   2   8    3.19    0.31
 -12  -2  -8    4.14    0.34
  12   2   8    3.83    0.33
  15  -3  -8    4.50    0.36
 -15   3   8    4.59    0.36
  14  -3  -8    2.41    0.27
 -14   3   8    2.57    0.28
  13  -3  -8   10.65    0.50
 -13   3   8   11.43    0.54
  12  -3  -8    1.16    0.18
 -12   3   8    1.15    0.18
  11  -3  -8    1.76    0.20
 -11   3   8    1.75    0.20
  10  -3  -8    0.99    0.09
  10  -3  -8    0.96    0.14
 -10   3   8    0.96    0.16
   9  -3  -8    8.70    0.36
   9  -3  -8    8.27    0.28
  -9   3   8    7.93    0.39
   8  -3  -8   40.26    1.26
   8  -3  -8   41.48    1.19
  -8   3   8   40.04    1.37
  -8   3   8   40.15    1.18
   7  -3  -8    0.03    0.06
   7  -3  -8    0.10    0.04
  -7   3   8    0.16    0.03
  -7   3   8    0.05    0.07
   6  -3  -8   24.63    0.78
  -6   3   8   24.01    0.86
  -6   3   8   24.67    0.73
   5  -3  -8    7.87    0.30
   5  -3  -8    7.96    0.33
  -5   3   8    7.78    0.34
  -5   3   8    7.59    0.29
  -5   3   8    7.46    0.26
   4  -3  -8   28.38    1.06
   4  -3  -8   33.33    0.98
  -4   3   8   33.52    1.09
  -4   3   8   32.98    0.96
   3  -3  -8   32.52    1.31
   3  -3  -8   42.34    1.22
  -3   3   8   45.09    1.22
  -3   3   8   41.84    1.35
   2  -3  -8    0.24    0.07
   2  -3  -8    0.14    0.06
  -2   3   8    0.23    0.08
  -2   3   8    0.14    0.04
   1  -3  -8   39.70    1.36
   1  -3  -8   41.81    1.25
  -1   3   8   41.78    1.37
   0  -3  -8   50.21    1.50
   0  -3  -8   49.10    1.63
   0   3   8   49.58    1.49
  -1  -3  -8   71.89    2.35
  -1  -3  -8   72.98    2.34
  -2  -3  -8   63.07    2.07
  -3  -3  -8   46.87    1.58
  -4  -3  -8   26.60    0.96
  -5  -3  -8    1.34    0.17
  -6  -3  -8   18.93    0.74
  -7  -3  -8   11.63    0.53
  -8  -3  -8    4.40    0.31
  -9  -3  -8    0.11    0.12
   9   3   8    0.35    0.13
 -10  -3  -8    4.06    0.31
  10   3   8    4.17    0.31
 -11  -3  -8    0.70    0.16
  11   3   8    1.01    0.20
  15  -4  -8    0.86    0.18
 -15   4   8    0.86    0.19
  14  -4  -8    0.67    0.17
 -14   4   8    0.65    0.16
  13  -4  -8    1.63    0.22
 -13   4   8    1.14    0.19
  12  -4  -8    8.94    0.43
 -12   4   8    8.88    0.46
  11  -4  -8   13.68    0.46
  11  -4  -8   13.78    0.55
 -11   4   8   13.51    0.59
  10  -4  -8    7.83    0.29
  10  -4  -8    7.94    0.37
 -10   4   8    8.26    0.41
   9  -4  -8    0.24    0.10
   9  -4  -8    0.16    0.05
  -9   4   8    0.20    0.05
  -9   4   8    0.22    0.11
   8  -4  -8   46.09    1.37
   8  -4  -8   43.92    1.42
  -8   4   8   45.56    1.35
  -8   4   8   49.01    1.56
   7  -4  -8   16.26    0.58
   7  -4  -8   17.17    0.54
  -7   4   8   16.87    0.65
  -7   4   8   16.63    0.52
   6  -4  -8   14.53    0.51
  -6   4   8   14.79    0.47
  -6   4   8   14.77    0.58
   5  -4  -8    2.38    0.15
   5  -4  -8    2.32    0.16
  -5   4   8    2.41    0.18
  -5   4   8    2.40    0.14
  -5   4   8    2.49    0.13
   4  -4  -8    0.23    0.06
  -4   4   8    0.27    0.08
  -4   4   8    0.23    0.06
   3  -4  -8    8.80    0.38
   3  -4  -8    8.81    0.35
  -3   4   8    9.72    0.35
  -3   4   8    9.46    0.34
  -3   4   8    9.02    0.39
   2  -4  -8   23.11    0.82
   2  -4  -8   22.37    0.75
  -2   4   8   23.33    0.74
  -2   4   8   24.72    0.84
  -2   4   8   23.07    0.76
   1  -4  -8   28.17    0.91
   1  -4  -8   29.02    0.99
  -1   4   8   28.84    0.99
  -1   4   8   27.94    0.90
   0  -4  -8    1.12    0.13
   0  -4  -8    1.42    0.15
  -1  -4  -8    1.60    0.17
  -1  -4  -8    1.61    0.18
  -2  -4  -8    0.61    0.13
  -2  -4  -8    0.86    0.13
  -3  -4  -8   60.58    2.01
  -4  -4  -8    5.58    0.32
  -5  -4  -8   14.43    0.61
  -6  -4  -8    0.99    0.16
  -7  -4  -8    0.00    0.10
  -8  -4  -8    1.43    0.20
  -9  -4  -8    3.47    0.31
   9   4   8    4.24    0.33
 -10  -4  -8    2.86    0.29
  10   4   8    3.72    0.34
  15  -5  -8    1.36    0.21
 -15   5   8    1.28    0.22
  14  -5  -8    0.49    0.16
 -14   5   8    0.32    0.13
  13  -5  -8    4.17    0.31
 -13   5   8    4.13    0.32
  12  -5  -8    2.11    0.22
 -12   5   8    1.82    0.23
  11  -5  -8    0.23    0.07
  11  -5  -8    0.28    0.11
 -11   5   8    0.34    0.13
  10  -5  -8   48.16    1.53
  10  -5  -8   47.19    1.45
 -10   5   8   50.26    1.66
   9  -5  -8    3.66    0.23
   9  -5  -8    3.81    0.19
  -9   5   8    3.82    0.26
   8  -5  -8   33.89    1.03
   8  -5  -8   31.81    1.07
  -8   5   8   34.65    1.18
   7  -5  -8    3.11    0.17
   7  -5  -8    3.08    0.19
  -7   5   8    2.94    0.22
   6  -5  -8    6.65    0.29
   6  -5  -8    6.45    0.31
  -6   5   8    6.70    0.25
  -6   5   8    6.53    0.33
   5  -5  -8    5.30    0.27
   5  -5  -8    5.32    0.25
  -5   5   8    5.46    0.29
  -5   5   8    5.66    0.23
   4  -5  -8   11.46    0.48
   4  -5  -8   12.26    0.45
  -4   5   8   12.56    0.44
  -4   5   8   12.64    0.51
   3  -5  -8    8.40    0.35
   3  -5  -8    8.54    0.38
  -3   5   8    8.75    0.39
   2  -5  -8    0.08    0.07
   2  -5  -8    0.00    0.07
  -2   5   8    0.02    0.06
   1  -5  -8    0.78    0.12
   1  -5  -8    0.47    0.10
   0  -5  -8    8.43    0.38
   0  -5  -8    7.46    0.35
  -1  -5  -8   14.75    0.61
  -1  -5  -8   16.08    0.58
  -1  -5  -8   13.63    0.59
  -2  -5  -8    6.95    0.36
  -2  -5  -8    7.27    0.38
  -3  -5  -8    0.41    0.12
  -3  -5  -8    0.52    0.13
  -4  -5  -8   15.76    0.66
  -5  -5  -8    4.30    0.30
  -6  -5  -8    1.15    0.18
  -7  -5  -8    5.90    0.37
  -8  -5  -8   -0.08    0.10
  -9  -5  -8    0.47    0.17
 -10  -5  -8    3.25    0.31
  10   5   8    3.71    0.36
  16  -6  -8    0.09    0.14
  15  -6  -8    3.71    0.34
 -15   6   8    3.92    0.34
  14  -6  -8    3.17    0.30
 -14   6   8    3.73    0.32
  13  -6  -8    3.68    0.29
 -13   6   8    3.82    0.31
  12  -6  -8    0.05    0.11
 -12   6   8    0.04    0.10
  11  -6  -8    0.06    0.07
  11  -6  -8    0.11    0.10
 -11   6   8    0.12    0.11
  10  -6  -8   28.90    0.99
  10  -6  -8   28.72    0.93
 -10   6   8   31.01    1.09
   9  -6  -8   11.26    0.47
   9  -6  -8   11.38    0.42
  -9   6   8   10.90    0.39
  -9   6   8   11.77    0.52
   8  -6  -8    2.32    0.16
   8  -6  -8    2.14    0.19
  -8   6   8    1.99    0.13
  -8   6   8    1.78    0.19
   7  -6  -8   32.88    1.09
   7  -6  -8   33.86    1.07
  -7   6   8   33.39    1.04
  -7   6   8   35.22    1.20
   6  -6  -8    8.23    0.35
   6  -6  -8    8.11    0.37
  -6   6   8    7.85    0.38
   5  -6  -8    0.16    0.07
   5  -6  -8    0.00    0.03
  -5   6   8    0.05    0.07
   4  -6  -8    1.62    0.16
   4  -6  -8    1.69    0.17
  -4   6   8    1.53    0.17
   3  -6  -8    0.04    0.06
   3  -6  -8    0.10    0.08
  -3   6   8    0.13    0.08
   2  -6  -8    4.96    0.27
   2  -6  -8    5.22    0.28
  -2   6   8    5.23    0.29
   1  -6  -8    8.31    0.39
   1  -6  -8    9.49    0.42
   0  -6  -8   41.72    1.45
   0  -6  -8   43.25    1.37
  -1  -6  -8    0.03    0.08
  -1  -6  -8    0.21    0.10
  -1  -6  -8    0.15    0.10
  -2  -6  -8    0.22    0.11
  -2  -6  -8    0.02    0.10
  -3  -6  -8   26.32    0.99
  -4  -6  -8    0.50    0.14
  -5  -6  -8   32.81    1.20
  -6  -6  -8    0.66    0.15
  -7  -6  -8   31.77    1.19
  -8  -6  -8    2.66    0.28
  -9  -6  -8    1.06    0.20
  16  -7  -8    0.48    0.18
  15  -7  -8   -0.09    0.11
  14  -7  -8    0.51    0.17
 -14   7   8    0.52    0.16
  13  -7  -8    1.05    0.19
 -13   7   8    1.53    0.22
  12  -7  -8    0.15    0.12
 -12   7   8   -0.10    0.10
  11  -7  -8    6.53    0.30
  11  -7  -8    6.26    0.36
 -11   7   8    6.37    0.39
  10  -7  -8    0.12    0.11
  10  -7  -8   -0.03    0.08
 -10   7   8    0.10    0.11
   9  -7  -8    0.10    0.10
   9  -7  -8   -0.08    0.08
  -9   7   8    0.07    0.11
   8  -7  -8    0.52    0.12
   8  -7  -8    0.73    0.12
  -8   7   8    0.74    0.14
   7  -7  -8   82.38    2.55
  -7   7   8   87.91    2.77
   6  -7  -8    0.18    0.08
   6  -7  -8    0.14    0.09
  -6   7   8    0.07    0.08
   5  -7  -8    0.25    0.10
   5  -7  -8    0.10    0.05
  -5   7   8    0.11    0.08
   4  -7  -8    4.93    0.27
   4  -7  -8    4.68    0.26
  -4   7   8    4.23    0.27
   3  -7  -8   15.73    0.58
   3  -7  -8   15.36    0.61
  -3   7   8   14.50    0.61
   2  -7  -8   12.69    0.52
   2  -7  -8   11.94    0.51
   1  -7  -8    1.49    0.18
   1  -7  -8    1.21    0.16
   0  -7  -8    1.33    0.18
   0  -7  -8    1.60    0.19
  -1  -7  -8   67.06    2.33
  -1  -7  -8   71.21    2.20
  -1  -7  -8   73.09    2.35
  -2  -7  -8    3.46    0.29
  -3  -7  -8    3.37    0.28
  -4  -7  -8    6.05    0.38
  -5  -7  -8    1.05    0.18
  -6  -7  -8   10.80    0.54
  -7  -7  -8    0.03    0.11
  -8  -7  -8   14.14    0.67
  15  -8  -8    0.72    0.19
  14  -8  -8    6.79    0.42
  13  -8  -8    3.69    0.31
 -13   8   8    4.19    0.37
  12  -8  -8    1.34    0.19
 -12   8   8    1.08    0.19
  11  -8  -8    3.64    0.27
  11  -8  -8    3.44    0.23
 -11   8   8    3.95    0.31
  10  -8  -8   11.52    0.51
  10  -8  -8   11.39    0.46
 -10   8   8   11.87    0.56
   9  -8  -8    2.03    0.21
   9  -8  -8    1.59    0.17
  -9   8   8    1.78    0.21
   8  -8  -8    3.57    0.25
   8  -8  -8    3.32    0.23
  -8   8   8    3.27    0.27
   7  -8  -8    3.99    0.27
   7  -8  -8    4.23    0.26
  -7   8   8    3.99    0.29
   6  -8  -8   52.05    1.61
  -6   8   8   49.16    1.72
   5  -8  -8    6.16    0.33
   5  -8  -8    6.41    0.33
  -5   8   8    5.67    0.34
   4  -8  -8    8.64    0.41
   4  -8  -8    8.90    0.42
  -4   8   8    9.15    0.43
   3  -8  -8    0.91    0.16
   3  -8  -8    0.99    0.14
  -3   8   8    0.82    0.14
   2  -8  -8    2.58    0.21
   2  -8  -8    2.37    0.24
   1  -8  -8    1.72    0.22
   1  -8  -8    1.39    0.17
   0  -8  -8    3.75    0.30
   0  -8  -8    4.50    0.30
  -1  -8  -8   10.98    0.54
  -2  -8  -8    2.58    0.26
  -3  -8  -8   -0.19    0.09
  -4  -8  -8    0.19    0.13
  -5  -8  -8    6.49    0.40
  -6  -8  -8    0.22    0.12
  -7  -8  -8    4.31    0.35
  15  -9  -8    0.74    0.21
  14  -9  -8    0.07    0.13
  13  -9  -8   15.10    0.65
  12  -9  -8    0.43    0.16
  11  -9  -8    2.08    0.25
  11  -9  -8    2.55    0.21
  10  -9  -8    0.51    0.14
  10  -9  -8    0.20    0.10
 -10   9   8    0.18    0.12
   9  -9  -8    0.31    0.11
   9  -9  -8    0.32    0.12
  -9   9   8    0.24    0.12
   8  -9  -8    6.55    0.36
  -8   9   8    7.29    0.40
   7  -9  -8    0.52    0.14
  -7   9   8    0.49    0.14
   6  -9  -8    5.03    0.31
  -6   9   8    4.44    0.31
   5  -9  -8    3.32    0.26
  -5   9   8    2.77    0.24
   4  -9  -8   19.02    0.75
  -4   9   8   20.18    0.78
   3  -9  -8    0.26    0.13
   2  -9  -8   13.45    0.58
   1  -9  -8    0.83    0.18
   0  -9  -8   16.27    0.69
   0  -9  -8   15.62    0.70
  -1  -9  -8    0.80    0.17
  -2  -9  -8   17.46    0.76
  -3  -9  -8    0.44    0.15
  -4  -9  -8    0.45    0.16
  -5  -9  -8    1.38    0.21
  -6  -9  -8    0.03    0.12
  15 -10  -8    1.58    0.26
  14 -10  -8    1.46    0.22
  13 -10  -8    3.44    0.33
  12 -10  -8    0.68    0.18
  11 -10  -8    0.14    0.11
  11 -10  -8    0.36    0.14
  10 -10  -8   13.70    0.56
  10 -10  -8   13.20    0.59
   9 -10  -8    1.06    0.19
   8 -10  -8    3.39    0.27
   7 -10  -8    2.00    0.23
   6 -10  -8    3.97    0.30
   5 -10  -8    0.44    0.15
   4 -10  -8    1.73    0.22
   3 -10  -8    4.50    0.33
   2 -10  -8    0.41    0.15
   1 -10  -8    9.41    0.51
   0 -10  -8    0.02    0.13
   0 -10  -8    0.14    0.13
  -1 -10  -8    4.75    0.36
  -2 -10  -8    0.10    0.13
  -3 -10  -8    3.38    0.31
  -4 -10  -8    2.27    0.27
  -5 -10  -8    0.14    0.14
  15 -11  -8    0.11    0.16
  14 -11  -8    9.74    0.54
  13 -11  -8    0.98    0.20
  12 -11  -8    7.08    0.41
  12 -11  -8    6.58    0.42
  11 -11  -8    3.32    0.33
  11 -11  -8    3.91    0.28
  10 -11  -8   18.70    0.77
   9 -11  -8    8.68    0.47
   8 -11  -8    0.10    0.12
   7 -11  -8    4.68    0.33
   6 -11  -8    8.85    0.48
   5 -11  -8    0.99    0.20
   4 -11  -8   -0.03    0.11
   3 -11  -8    1.98    0.25
   2 -11  -8    0.19    0.15
   1 -11  -8    2.44    0.29
   0 -11  -8   11.06    0.57
   0 -11  -8   10.06    0.56
  -1 -11  -8    0.95    0.19
  -2 -11  -8    2.81    0.30
  -3 -11  -8    0.32    0.15
  14 -12  -8    0.14    0.15
  13 -12  -8    4.83    0.37
  12 -12  -8    0.06    0.13
  12 -12  -8    0.04    0.14
  11 -12  -8    4.84    0.37
  10 -12  -8    2.27    0.28
   9 -12  -8    2.58    0.29
   8 -12  -8   10.63    0.55
   7 -12  -8    8.21    0.47
   6 -12  -8    0.51    0.18
   5 -12  -8    0.94    0.20
   4 -12  -8    0.39    0.16
   3 -12  -8    5.26    0.38
   2 -12  -8   -0.19    0.11
   1 -12  -8    1.92    0.28
   1 -12  -8    1.50    0.23
   0 -12  -8    0.14    0.15
   0 -12  -8    0.02    0.13
  -1 -12  -8    4.10    0.36
  -2 -12  -8    0.72    0.19
  13 -13  -8    0.17    0.17
  12 -13  -8    0.29    0.18
  11 -13  -8    1.54    0.26
  10 -13  -8    2.16    0.28
   9 -13  -8    0.42    0.18
   8 -13  -8    0.59    0.19
   7 -13  -8    6.83    0.45
   6 -13  -8    2.28    0.31
   5 -13  -8    1.56    0.26
   4 -13  -8    1.19    0.24
   3 -13  -8    0.60    0.19
   2 -13  -8    3.27    0.36
   1 -13  -8    0.68    0.20
   1 -13  -8    1.27    0.27
   0 -13  -8    1.68    0.26
  12 -14  -8    0.29    0.16
  11 -14  -8    0.01    0.16
  10 -14  -8    2.00    0.29
   9 -14  -8    0.09    0.16
   8 -14  -8    0.08    0.17
   7 -14  -8   14.57    0.72
   6 -14  -8    7.13    0.48
   5 -14  -8    5.58    0.44
   4 -14  -8    2.34    0.33
   3 -14  -8   -0.05    0.19
   2 -14  -8    0.66    0.22
   2 -14  -8    0.45    0.19
  10 -15  -8    0.40    0.21
   9 -15  -8    0.25    0.18
   8 -15  -8    1.13    0.27
   7 -15  -8    2.99    0.36
   6 -15  -8    9.57    0.58
   5 -15  -8    0.53    0.23
   3 -17   9    0.24    0.20
   4 -17   9    0.27    0.17
   4 -17   9    0.18    0.20
   5 -17   9    0.31    0.21
   5 -17   9    0.55    0.20
   6 -17   9    0.80    0.21
   6 -17   9    0.82    0.23
   7 -17   9    1.27    0.27
   7 -17   9    1.31    0.25
   8 -17   9    0.18    0.19
   8 -17   9    0.33    0.19
   9 -17   9    4.58    0.40
   9 -17   9    4.67    0.44
  10 -17   9    0.95    0.25
  10 -17   9    1.10    0.25
   1 -16   9    0.84    0.10
   1 -16   9    0.60    0.20
   2 -16   9    0.11    0.17
   3 -16   9    0.60    0.21
   3 -16   9    0.57    0.21
   4 -16   9    0.75    0.23
   4 -16   9    0.83    0.21
   5 -16   9    6.06    0.45
   5 -16   9    6.25    0.44
   6 -16   9    0.55    0.21
   6 -16   9    0.78    0.23
   7 -16   9   -0.02    0.15
   7 -16   9   -0.02    0.16
   8 -16   9   -0.18    0.16
   8 -16   9    0.19    0.17
   9 -16   9    0.07    0.17
   9 -16   9    0.29    0.17
  10 -16   9    8.29    0.52
  10 -16   9    8.21    0.52
  11 -16   9    0.20    0.17
  11 -16   9    1.02    0.24
  12 -16   9   18.76    0.85
  12 -16   9   20.19    0.86
   0 -15   9    0.19    0.16
   1 -15   9   -0.05    0.16
   2 -15   9    1.12    0.24
   2 -15   9    0.93    0.22
   3 -15   9    0.61    0.21
   3 -15   9    0.77    0.20
   4 -15   9    4.89    0.39
   4 -15   9    4.26    0.36
   5 -15   9    1.35    0.23
   5 -15   9    1.24    0.24
   6 -15   9    8.40    0.50
   6 -15   9    9.18    0.52
   7 -15   9   13.74    0.66
   7 -15   9   14.19    0.67
   8 -15   9    2.99    0.32
   8 -15   9    3.20    0.33
   9 -15   9    0.05    0.16
   9 -15   9    0.21    0.17
  10 -15   9    0.40    0.20
  10 -15   9    0.55    0.19
  11 -15   9    0.05    0.16
  11 -15   9   -0.02    0.16
  12 -15   9    0.37    0.18
  12 -15   9    0.39    0.18
  13 -15   9   16.24    0.75
  13 -15   9   15.32    0.74
   0 -14   9    0.08    0.14
   0 -14   9    0.01    0.05
   1 -14   9    0.89    0.21
   1 -14   9    0.76    0.07
   2 -14   9    0.16    0.16
   2 -14   9    0.07    0.05
   2 -14   9   -0.03    0.13
   3 -14   9    1.02    0.20
   3 -14   9    0.86    0.19
   4 -14   9    0.22    0.14
   4 -14   9    0.49    0.17
   5 -14   9    0.40    0.16
   5 -14   9    0.36    0.15
   6 -14   9    4.39    0.35
   6 -14   9    5.01    0.35
   7 -14   9   14.14    0.65
   7 -14   9   15.83    0.68
   8 -14   9    1.28    0.22
   8 -14   9    1.31    0.22
   9 -14   9   39.03    1.37
   9 -14   9   39.27    1.37
  10 -14   9    0.92    0.21
  10 -14   9    0.50    0.19
  11 -14   9    1.94    0.27
  11 -14   9    2.37    0.28
  12 -14   9    0.99    0.21
  12 -14   9    0.86    0.20
  13 -14   9   -0.17    0.12
  13 -14   9   -0.18    0.15
  14 -14   9    1.06    0.22
  14 -14   9    0.67    0.23
  -1 -13   9    2.56    0.29
   0 -13   9    0.25    0.15
   0 -13   9    0.25    0.04
   1 -13   9    3.97    0.33
   1 -13   9    3.21    0.32
   1 -13   9    3.75    0.16
   2 -13   9    2.25    0.26
   2 -13   9    2.20    0.13
   2 -13   9    2.19    0.25
   3 -13   9    9.39    0.48
   3 -13   9    8.80    0.49
   3 -13   9    9.57    0.36
   4 -13   9    0.38    0.14
   4 -13   9    0.55    0.09
   4 -13   9    0.69    0.17
   5 -13   9    6.67    0.39
   5 -13   9    6.94    0.40
   6 -13   9    8.08    0.44
   6 -13   9    7.55    0.43
   7 -13   9    1.91    0.25
   7 -13   9    1.94    0.25
   8 -13   9    0.23    0.13
   8 -13   9    0.17    0.12
   8 -13   9    0.05    0.13
   9 -13   9    6.14    0.39
   9 -13   9    5.04    0.34
   9 -13   9    5.98    0.37
  10 -13   9    3.14    0.31
  10 -13   9    2.53    0.27
  11 -13   9    6.50    0.41
  11 -13   9    6.18    0.41
  12 -13   9    0.54    0.16
  12 -13   9    0.78    0.20
  13 -13   9    3.68    0.35
  13 -13   9    4.32    0.37
  14 -13   9    0.44    0.16
  14 -13   9    0.61    0.21
  -5 -12   9    2.20    0.12
  -1 -12   9   13.36    0.62
   0 -12   9    4.62    0.18
   0 -12   9    5.52    0.36
   1 -12   9    1.03    0.18
   1 -12   9    1.24    0.09
   1 -12   9    1.03    0.18
   2 -12   9    0.42    0.06
   2 -12   9    0.42    0.15
   2 -12   9    0.36    0.14
   3 -12   9    4.80    0.32
   3 -12   9    4.69    0.32
   3 -12   9    4.88    0.22
   4 -12   9    9.66    0.46
   4 -12   9    9.08    0.45
   4 -12   9    8.91    0.44
   4 -12   9    8.64    0.36
   5 -12   9    0.56    0.09
   5 -12   9    0.50    0.15
   5 -12   9    0.50    0.14
   5 -12   9    0.59    0.14
   6 -12   9   11.55    0.52
   6 -12   9   11.00    0.50
   6 -12   9   11.41    0.52
   7 -12   9    0.28    0.13
   7 -12   9    0.33    0.13
   7 -12   9    0.31    0.14
   8 -12   9    1.04    0.18
   8 -12   9    1.30    0.19
   8 -12   9    1.23    0.19
   9 -12   9    2.25    0.24
   9 -12   9    2.03    0.23
   9 -12   9    1.86    0.21
  10 -12   9   11.73    0.54
  10 -12   9   11.57    0.54
  10 -12   9   11.78    0.54
  11 -12   9    2.86    0.27
  11 -12   9    2.32    0.25
  11 -12   9    2.05    0.26
  12 -12   9   -0.08    0.14
  12 -12   9   -0.07    0.12
  12 -12   9   -0.08    0.10
  13 -12   9   11.23    0.56
  13 -12   9   11.22    0.57
  14 -12   9    1.06    0.22
  14 -12   9    1.32    0.24
  15 -12   9    1.44    0.27
  15 -12   9    1.33    0.23
  -7 -11   9    0.04    0.06
  -6 -11   9    1.69    0.12
  -5 -11   9    8.91    0.34
  -4 -11   9    5.64    0.22
  -4 -11   9    5.60    0.21
  -1 -11   9    6.63    0.39
   0 -11   9   26.32    0.98
   0 -11   9   27.33    0.98
   0 -11   9   27.60    0.85
   1 -11   9   -0.16    0.10
   1 -11   9   -0.04    0.10
   1 -11   9    0.04    0.04
   2 -11   9   19.10    0.64
   2 -11   9   19.49    0.74
   2 -11   9   19.69    0.75
   2 -11   9   18.93    0.72
   3 -11   9   41.35    1.33
   3 -11   9   39.48    1.35
   3 -11   9   43.43    1.37
   3 -11   9   40.91    1.36
   4 -11   9    9.19    0.44
   4 -11   9    9.03    0.36
   4 -11   9    9.57    0.44
   4 -11   9    9.06    0.43
   5 -11   9    3.51    0.26
   5 -11   9    3.82    0.21
   5 -11   9    4.28    0.29
   5 -11   9    4.01    0.28
   6 -11   9    8.81    0.38
   6 -11   9    9.12    0.44
   6 -11   9    9.45    0.44
   6 -11   9    9.27    0.43
   7 -11   9   12.22    0.53
   7 -11   9   12.65    0.53
   7 -11   9   13.03    0.54
   8 -11   9    0.54    0.15
   8 -11   9    0.29    0.12
   8 -11   9    0.42    0.12
   9 -11   9   19.52    0.73
   9 -11   9   18.35    0.72
   9 -11   9   18.53    0.72
  10 -11   9    0.23    0.12
  10 -11   9    0.02    0.10
  10 -11   9    0.20    0.14
  11 -11   9   11.32    0.51
  11 -11   9   12.33    0.55
  11 -11   9   11.88    0.54
  12 -11   9   26.55    0.99
  12 -11   9   27.85    1.03
  12 -11   9   29.58    1.03
  13 -11   9    8.34    0.46
  13 -11   9    8.58    0.48
  13 -11   9    7.91    0.42
  14 -11   9    9.24    0.49
  14 -11   9    8.31    0.50
  15 -11   9    1.15    0.24
  15 -11   9    1.38    0.22
  -8 -10   9    1.35    0.14
  -7 -10   9   -0.04    0.05
  -6 -10   9    1.20    0.11
  -5 -10   9    3.12    0.15
  -4 -10   9    0.75    0.07
  -1 -10   9    5.32    0.32
  -1 -10   9    4.47    0.30
   0 -10   9    2.11    0.21
   0 -10   9    1.99    0.21
   1 -10   9   10.19    0.45
   1 -10   9   10.28    0.44
   1 -10   9    9.39    0.45
   1 -10   9    9.55    0.34
   2 -10   9   42.83    1.37
   2 -10   9   42.44    1.38
   2 -10   9   42.67    1.35
   2 -10   9   42.21    1.38
   3 -10   9    0.69    0.14
   3 -10   9    0.80    0.15
   3 -10   9    0.47    0.13
   3 -10   9    0.95    0.09
   4 -10   9   57.88    1.77
   4 -10   9   58.15    1.79
   4 -10   9   53.56    1.77
   4 -10   9   57.08    1.81
  -5  10  -9    0.02    0.06
   5 -10   9   -0.02    0.09
   5 -10   9    0.08    0.09
   5 -10   9    0.08    0.06
   5 -10   9    0.09    0.10
  -6  10  -9   30.15    1.03
   6 -10   9   32.43    1.05
   6 -10   9   30.60    1.05
   6 -10   9   30.54    1.05
   6 -10   9   31.02    1.03
  -7  10  -9    0.05    0.06
   7 -10   9    0.04    0.09
   7 -10   9   -0.02    0.06
   7 -10   9   -0.05    0.09
   7 -10   9   -0.15    0.09
   8 -10   9   17.09    0.65
   8 -10   9   17.54    0.66
   8 -10   9   17.55    0.67
   9 -10   9    3.14    0.24
   9 -10   9    3.48    0.25
   9 -10   9    3.15    0.24
  10 -10   9    8.45    0.42
  10 -10   9    8.42    0.42
  10 -10   9    8.54    0.41
  11 -10   9    0.68    0.14
  11 -10   9    0.46    0.14
  11 -10   9    0.51    0.14
  12 -10   9    7.43    0.41
  12 -10   9    7.64    0.43
  12 -10   9    7.24    0.38
  13 -10   9    0.72    0.17
  13 -10   9    0.75    0.15
  13 -10   9    0.72    0.16
  14 -10   9    4.36    0.33
  14 -10   9    4.95    0.38
  15 -10   9    2.62    0.30
  15 -10   9    2.48    0.28
  -9  -9   9    1.14    0.14
  -8  -9   9   -0.02    0.06
  -7  -9   9    4.23    0.21
  -6  -9   9    7.05    0.29
  -5  -9   9    4.34    0.19
  -4  -9   9    5.70    0.21
  -1  -9   9    4.27    0.26
  -1  -9   9    3.73    0.26
  -1  -9   9    3.65    0.23
   0  -9   9    5.48    0.29
   0  -9   9    5.18    0.30
   0  -9   9    5.20    0.29
   1  -9   9    2.06    0.18
   1  -9   9    2.50    0.20
   1  -9   9    2.42    0.18
   1  -9   9    2.49    0.11
   2  -9   9    3.44    0.23
   2  -9   9    3.09    0.21
   2  -9   9    3.16    0.22
   2  -9   9    2.72    0.14
   3  -9   9    8.66    0.37
   3  -9   9    8.72    0.39
   3  -9   9    8.67    0.33
   3  -9   9    8.32    0.38
  -4   9  -9    3.22    0.16
   4  -9   9    3.37    0.22
   4  -9   9    3.36    0.22
   4  -9   9    3.61    0.23
   4  -9   9    3.39    0.18
  -5   9  -9   20.15    0.67
   5  -9   9   18.96    0.70
   5  -9   9   19.29    0.69
   5  -9   9   19.03    0.69
   5  -9   9   20.84    0.71
  -6   9  -9    4.28    0.22
   6  -9   9    4.06    0.25
   6  -9   9    4.28    0.23
   6  -9   9    3.96    0.25
   6  -9   9    4.47    0.26
  -7   9  -9   12.46    0.50
   7  -9   9   13.38    0.52
   7  -9   9   13.83    0.53
   7  -9   9   13.43    0.53
   7  -9   9   13.39    0.52
  -8   9  -9   14.08    0.55
   8  -9   9   15.02    0.57
   8  -9   9   14.21    0.55
   8  -9   9   13.93    0.55
   8  -9   9   13.99    0.57
   9  -9   9    3.98    0.27
   9  -9   9    3.66    0.24
   9  -9   9    3.73    0.26
  10  -9   9    1.46    0.19
  10  -9   9    1.55    0.19
  10  -9   9    1.45    0.17
  11  -9   9    2.11    0.23
  11  -9   9    2.02    0.20
  11  -9   9    2.53    0.24
  12  -9   9    2.24    0.26
  12  -9   9    2.06    0.21
  12  -9   9    2.21    0.23
  13  -9   9    1.25    0.17
  13  -9   9    0.97    0.20
  13  -9   9    0.97    0.19
  14  -9   9    1.82    0.26
  14  -9   9    1.37    0.21
  15  -9   9    3.58    0.36
  15  -9   9    3.89    0.33
  -9  -8   9    4.57    0.26
  -8  -8   9    0.00    0.06
  -7  -8   9    0.04    0.06
  -6  -8   9    7.30    0.29
  -5  -8   9   18.56    0.62
  -4  -8   9    5.25    0.20
  -2  -8   9    2.96    0.19
  -1  -8   9   11.15    0.43
  -1  -8   9   10.57    0.45
  -1  -8   9   11.11    0.45
   0  -8   9    0.60    0.11
   0  -8   9    0.48    0.10
   0  -8   9    0.58    0.05
   0  -8   9    0.52    0.10
   1  -8   9    4.65    0.24
   1  -8   9    4.61    0.18
   1  -8   9    4.36    0.24
   1  -8   9    4.40    0.24
   2  -8   9   72.67    2.31
   2  -8   9   78.30    2.40
   2  -8   9   78.24    2.33
   2  -8   9   79.63    2.31
  -3   8  -9    4.10    0.17
   3  -8   9    4.48    0.19
   3  -8   9    3.95    0.23
   3  -8   9    3.99    0.22
   3  -8   9    4.02    0.24
  -4   8  -9   32.88    1.07
   4  -8   9   34.79    1.09
   4  -8   9   32.61    1.05
   4  -8   9   33.03    1.07
   4  -8   9   31.91    1.07
  -5   8  -9   16.16    0.57
   5  -8   9   16.63    0.58
   5  -8   9   15.08    0.58
   5  -8   9   16.82    0.59
   5  -8   9   16.35    0.59
  -6   8  -9    0.16    0.06
   6  -8   9    0.10    0.06
   6  -8   9    0.24    0.09
   6  -8   9    0.20    0.09
   6  -8   9    0.20    0.08
  -7   8  -9    0.10    0.06
   7  -8   9    0.01    0.08
   7  -8   9    0.02    0.08
   7  -8   9    0.04    0.07
   7  -8   9   -0.07    0.06
  -8   8  -9    0.14    0.08
   8  -8   9    0.19    0.09
   8  -8   9    0.23    0.09
   8  -8   9    0.18    0.09
   8  -8   9    0.11    0.08
  -9   8  -9    0.60    0.12
   9  -8   9    0.80    0.14
   9  -8   9    0.84    0.14
   9  -8   9    0.70    0.12
 -10   8  -9    0.76    0.14
  10  -8   9    0.68    0.14
  10  -8   9    0.85    0.15
  10  -8   9    0.71    0.13
  11  -8   9    4.03    0.28
  11  -8   9    3.39    0.27
  11  -8   9    3.48    0.23
  12  -8   9   -0.01    0.08
  12  -8   9   -0.01    0.10
  12  -8   9    0.08    0.12
  13  -8   9    0.05    0.11
  13  -8   9   -0.04    0.11
  13  -8   9    0.00    0.09
  14  -8   9    0.23    0.14
  14  -8   9    0.36    0.15
  15  -8   9    2.47    0.28
  15  -8   9    2.61    0.31
 -10  -7   9    1.60    0.17
  -9  -7   9    6.01    0.30
  -8  -7   9   -0.01    0.07
  -7  -7   9   48.19    1.56
  -6  -7   9   -0.05    0.05
  -5  -7   9    0.89    0.09
  -4  -7   9   23.81    0.77
  -3  -7   9    4.64    0.17
  -3  -7   9    4.85    0.24
  -2  -7   9   35.11    1.13
  -2  -7   9   35.35    1.12
  -1  -7   9    0.60    0.11
  -1  -7   9    0.50    0.10
  -1  -7   9    0.57    0.09
   0  -7   9    0.05    0.03
   0  -7   9    0.02    0.06
   0  -7   9    0.09    0.07
   0  -7   9    0.09    0.06
  -1   7  -9    0.95    0.10
   1  -7   9    0.76    0.07
   1  -7   9    0.98    0.12
   1  -7   9    0.68    0.11
   1  -7   9    0.76    0.10
  -2   7  -9   62.38    1.81
  -2   7  -9   61.37    1.88
   2  -7   9   61.24    1.83
   2  -7   9   61.53    1.84
   2  -7   9   59.68    1.85
   2  -7   9   60.73    1.92
  -3   7  -9   30.13    0.97
  -3   7  -9   31.45    0.94
   3  -7   9   30.94    0.96
   3  -7   9   30.02    0.97
   3  -7   9   29.40    0.99
   3  -7   9   29.66    0.97
  -4   7  -9    0.24    0.05
   4  -7   9    0.29    0.06
   4  -7   9    0.13    0.07
   4  -7   9    0.24    0.08
   4  -7   9    0.34    0.08
  -5   7  -9   29.33    0.94
   5  -7   9   28.82    0.90
   5  -7   9   26.84    0.91
   5  -7   9   27.96    0.96
   5  -7   9   27.97    0.92
  -6   7  -9    5.22    0.24
   6  -7   9    5.30    0.26
   6  -7   9    5.02    0.25
   6  -7   9    5.31    0.26
   6  -7   9    4.71    0.25
  -7   7  -9   19.41    0.72
   7  -7   9   20.48    0.71
   7  -7   9   20.47    0.75
   7  -7   9   19.98    0.69
   7  -7   9   20.50    0.70
  -8   7  -9    0.14    0.08
   8  -7   9    0.06    0.08
   8  -7   9   -0.01    0.08
   8  -7   9    0.18    0.08
   8  -7   9    0.08    0.10
  -9   7  -9   49.10    1.64
   9  -7   9   49.26    1.56
   9  -7   9   52.01    1.57
   9  -7   9   49.68    1.54
   9  -7   9   47.14    1.67
 -10   7  -9    1.56    0.18
  10  -7   9    1.86    0.17
  10  -7   9    1.49    0.18
  10  -7   9    1.63    0.18
 -11   7  -9    1.05    0.17
  11  -7   9    1.41    0.15
  11  -7   9    1.29    0.17
  11  -7   9    1.16    0.17
  12  -7   9    0.97    0.17
  12  -7   9    1.01    0.14
  12  -7   9    0.72    0.16
  13  -7   9    1.61    0.22
  13  -7   9    1.31    0.20
  14  -7   9    0.68    0.19
  14  -7   9    0.55    0.16
  15  -7   9    0.84    0.20
  15  -7   9    1.05    0.19
 -11  -6   9   -0.03    0.08
 -10  -6   9    0.03    0.08
  -9  -6   9    0.56    0.11
  -8  -6   9    0.73    0.11
  -7  -6   9    0.63    0.10
  -6  -6   9    6.10    0.26
  -5  -6   9    1.08    0.10
  -4  -6   9   29.20    0.93
  -4  -6   9   29.29    0.94
  -3  -6   9    1.14    0.07
  -3  -6   9    1.51    0.12
  -2  -6   9    2.59    0.17
  -2  -6   9    2.47    0.11
  -2  -6   9    2.45    0.15
   1   6  -9    2.48    0.16
   1   6  -9    2.95    0.16
  -1  -6   9    2.48    0.11
  -1  -6   9    2.52    0.16
  -1  -6   9    2.53    0.16
  -1  -6   9    2.49    0.17
   0   6  -9    1.57    0.11
   0  -6   9    1.60    0.13
   0  -6   9    1.59    0.09
   0  -6   9    1.66    0.13
   0  -6   9    1.46    0.12
  -1   6  -9    3.08    0.15
   1  -6   9    3.04    0.17
   1  -6   9    3.10    0.14
   1  -6   9    2.94    0.17
   1  -6   9    3.02    0.17
  -2   6  -9   65.33    2.05
  -2   6  -9   66.27    1.94
   2  -6   9   65.56    1.99
   2  -6   9   67.53    2.08
   2  -6   9   65.02    1.95
   2  -6   9   68.26    1.98
  -3   6  -9   43.10    1.38
  -3   6  -9   43.73    1.31
   3  -6   9   44.12    1.32
   3  -6   9   44.85    1.35
   3  -6   9   42.95    1.34
   3  -6   9   43.58    1.41
  -4   6  -9    4.83    0.21
  -4   6  -9    5.12    0.22
   4  -6   9    4.80    0.22
   4  -6   9    5.23    0.24
   4  -6   9    4.48    0.23
  -5   6  -9    0.95    0.10
   5  -6   9    1.07    0.12
   5  -6   9    0.88    0.11
   5  -6   9    0.97    0.11
   5  -6   9    1.36    0.13
  -6   6  -9   33.59    1.09
   6  -6   9   33.08    1.11
   6  -6   9   32.37    1.03
   6  -6   9   31.40    1.02
   6  -6   9   31.22    1.03
  -7   6  -9    6.86    0.32
   7  -6   9    7.90    0.36
   7  -6   9    7.66    0.32
   7  -6   9    6.96    0.32
   7  -6   9    7.66    0.34
  -8   6  -9   65.47    2.08
   8  -6   9   64.90    1.95
   8  -6   9   62.90    1.96
   8  -6   9   62.93    2.11
   8  -6   9   64.62    1.95
  -9   6  -9   45.83    1.52
   9  -6   9   44.72    1.41
   9  -6   9   45.16    1.44
   9  -6   9   45.42    1.44
 -10   6  -9   45.51    1.50
  10  -6   9   44.89    1.41
  10  -6   9   42.75    1.41
  10  -6   9   42.42    1.37
 -11   6  -9    0.43    0.12
  11  -6   9    0.62    0.11
  11  -6   9    0.55    0.14
  11  -6   9    0.74    0.16
  12  -6   9    5.24    0.27
  12  -6   9    4.81    0.31
  12  -6   9    4.70    0.34
  13  -6   9    0.14    0.14
  13  -6   9   -0.15    0.10
  14  -6   9    0.45    0.15
  14  -6   9    0.61    0.17
  15  -6   9    0.33    0.15
  15  -6   9    0.43    0.17
 -11  -5   9    0.04    0.09
 -10  -5   9    8.71    0.40
  -9  -5   9    5.04    0.27
  -8  -5   9   13.77    0.53
  -7  -5   9   12.05    0.46
  -6  -5   9    5.43    0.24
   5   5  -9   24.63    0.77
  -5  -5   9   23.68    0.79
  -5  -5   9   23.98    0.77
   4   5  -9    6.41    0.25
  -4  -5   9    5.91    0.25
  -4  -5   9    5.71    0.23
   3   5  -9   45.01    1.33
  -3  -5   9   44.81    1.35
  -3  -5   9   43.58    1.39
   2   5  -9    1.36    0.10
   2   5  -9    1.34    0.12
  -2  -5   9    1.39    0.11
  -2  -5   9    1.32    0.08
  -2  -5   9    1.20    0.11
   1   5  -9   13.27    0.43
   1   5  -9   12.88    0.43
  -1  -5   9   12.40    0.44
  -1  -5   9   12.60    0.43
  -1  -5   9   12.80    0.44
  -1  -5   9   12.62    0.44
   0   5  -9   13.62    0.45
   0   5  -9   14.50    0.46
   0  -5   9   14.17    0.47
   0  -5   9   13.67    0.47
   0  -5   9   13.58    0.48
   0  -5   9   13.94    0.46
  -1   5  -9  105.24    3.32
  -1   5  -9  111.91    3.11
  -1   5  -9  112.38    3.14
   1  -5   9  104.53    3.12
   1  -5   9  105.75    3.35
   1  -5   9  112.43    3.18
   1  -5   9  105.66    3.14
  -2   5  -9    9.89    0.36
  -2   5  -9    9.55    0.33
  -2   5  -9    9.80    0.35
   2  -5   9   10.01    0.34
   2  -5   9    9.93    0.36
   2  -5   9   10.46    0.37
   2  -5   9    9.64    0.37
  -3   5  -9   31.10    0.92
  -3   5  -9   29.87    0.98
   3  -5   9   29.60    1.00
   3  -5   9   31.06    0.96
   3  -5   9   29.75    0.92
   3  -5   9   31.37    0.95
  -4   5  -9    0.10    0.05
   4  -5   9    0.06    0.05
   4  -5   9    0.12    0.05
   4  -5   9    0.03    0.05
   4  -5   9    0.10    0.05
  -5   5  -9    3.69    0.20
   5  -5   9    3.84    0.20
   5  -5   9    3.74    0.19
   5  -5   9    3.89    0.19
   5  -5   9    3.94    0.21
  -6   5  -9   82.18    2.59
   6  -5   9   79.01    2.40
   6  -5   9   78.74    2.42
   6  -5   9   83.93    2.61
   6  -5   9   83.76    2.43
  -7   5  -9    0.29    0.08
   7  -5   9    0.37    0.08
   7  -5   9    0.13    0.09
   7  -5   9    0.29    0.09
  -8   5  -9    7.58    0.35
   8  -5   9    7.14    0.34
   8  -5   9    7.77    0.32
   8  -5   9    7.20    0.34
   8  -5   9    7.34    0.37
  -9   5  -9   40.86    1.42
   9  -5   9   42.28    1.34
   9  -5   9   42.51    1.34
   9  -5   9   41.29    1.30
 -10   5  -9   35.25    1.24
  10  -5   9   34.41    1.11
  10  -5   9   34.88    1.16
  10  -5   9   35.85    1.18
 -11   5  -9    1.72    0.20
  11  -5   9    2.16    0.22
  11  -5   9    1.82    0.21
  11  -5   9    2.06    0.16
 -12   5  -9    7.39    0.41
  12  -5   9    6.91    0.38
  12  -5   9    7.91    0.42
  13  -5   9    3.53    0.29
  13  -5   9    3.17    0.27
  14  -5   9    0.17    0.15
  14  -5   9    0.07    0.12
 -12  -4   9    1.97    0.21
 -11  -4   9    0.25    0.10
 -10  -4   9    0.28    0.10
  -9  -4   9   11.43    0.47
  -8  -4   9   -0.04    0.06
   7   4  -9    8.16    0.32
  -7  -4   9    8.53    0.35
   6   4  -9   42.06    1.29
  -6  -4   9   42.72    1.38
  -6  -4   9   43.14    1.28
   5   4  -9    9.33    0.33
  -5  -4   9    9.40    0.33
  -5  -4   9    9.41    0.35
   4   4  -9   56.69    1.67
  -4  -4   9   56.92    1.79
  -4  -4   9   57.55    1.70
   3   4  -9    2.07    0.14
   3   4  -9    1.89    0.11
  -3  -4   9    1.68    0.12
  -3  -4   9    1.70    0.11
  -3  -4   9    1.82    0.10
   2   4  -9   35.63    1.09
   2   4  -9   35.29    1.07
  -2  -4   9   35.77    1.10
  -2  -4   9   35.76    1.14
  -2  -4   9   37.91    1.09
   1   4  -9    9.54    0.32
   1   4  -9    9.77    0.30
   1   4  -9    8.96    0.30
   1   4  -9    9.80    0.32
  -1  -4   9    9.22    0.32
  -1  -4   9    8.88    0.33
  -1  -4   9    9.45    0.34
  -1  -4   9    9.45    0.33
   0   4  -9   21.74    0.68
   0   4  -9   22.90    0.71
   0   4  -9   22.44    0.71
   0   4  -9   22.02    0.67
   0  -4   9   21.88    0.71
   0  -4   9   21.50    0.68
   0  -4   9   22.18    0.69
   0  -4   9   22.75    0.74
  -1   4  -9    0.00    0.03
  -1   4  -9    0.06    0.03
  -1   4  -9    0.09    0.04
   1  -4   9    0.05    0.04
   1  -4   9   -0.02    0.04
   1  -4   9   -0.02    0.04
  -2   4  -9   10.30    0.34
  -2   4  -9   10.55    0.37
  -2   4  -9   10.66    0.37
   2  -4   9    9.90    0.36
   2  -4   9   10.08    0.34
   2  -4   9   10.72    0.39
  -3   4  -9  150.91    4.91
   3  -4   9  161.01    4.55
   3  -4   9  159.97    4.93
   3  -4   9  164.21    4.58
  -4   4  -9   16.01    0.54
   4  -4   9   14.28    0.55
   4  -4   9   14.59    0.49
   4  -4   9   14.65    0.51
  -5   4  -9    0.20    0.06
   5  -4   9    0.20    0.07
   5  -4   9    0.27    0.07
   5  -4   9    0.21    0.08
  -6   4  -9  166.72    5.06
   6  -4   9  159.95    5.08
   6  -4   9  163.94    4.70
   6  -4   9  160.17    4.72
  -7   4  -9   17.88    0.66
   7  -4   9   17.27    0.61
   7  -4   9   17.82    0.68
   7  -4   9   17.04    0.62
  -8   4  -9   34.03    1.19
   8  -4   9   33.46    1.08
   8  -4   9   34.67    1.12
   8  -4   9   35.83    1.12
  -9   4  -9    2.81    0.22
   9  -4   9    3.43    0.24
   9  -4   9    2.71    0.22
   9  -4   9    2.92    0.18
 -10   4  -9    5.48    0.32
  10  -4   9    5.23    0.30
  10  -4   9    5.50    0.32
  10  -4   9    5.55    0.26
 -11   4  -9    1.26    0.18
  11  -4   9    1.20    0.13
  11  -4   9    1.71    0.22
  11  -4   9    1.60    0.19
 -12   4  -9    1.56    0.21
  12  -4   9    1.95    0.24
  12  -4   9    1.95    0.23
 -13   4  -9   11.14    0.55
  13  -4   9   11.65    0.56
  13  -4   9   11.09    0.52
  14  -4   9    3.68    0.35
  14  -4   9    3.89    0.31
 -13  -3   9    1.20    0.19
 -12  -3   9    0.00    0.09
 -11  -3   9    2.12    0.21
 -10  -3   9    0.53    0.11
   9   3  -9    0.34    0.07
  -9  -3   9    0.20    0.08
  -8  -3   9   17.17    0.63
   7   3  -9   22.86    0.71
  -7  -3   9   22.54    0.79
   6   3  -9    0.32    0.06
  -6  -3   9    0.35    0.05
  -6  -3   9    0.27    0.07
   5   3  -9   28.47    0.84
  -5  -3   9   28.76    0.86
  -5  -3   9   27.02    0.92
   4   3  -9    3.36    0.14
   4   3  -9    3.55    0.18
  -4  -3   9    3.60    0.15
  -4  -3   9    3.30    0.16
   3   3  -9  100.05    2.94
   3   3  -9  101.09    2.91
   3   3  -9  102.12    3.14
  -3  -3   9  102.17    2.93
  -3  -3   9  103.85    3.15
  -3  -3   9  100.86    2.96
   2   3  -9    1.52    0.09
   2   3  -9    1.37    0.09
   2   3  -9    1.36    0.08
  -2  -3   9    1.51    0.09
  -2  -3   9    1.38    0.10
   1   3  -9  108.38    3.08
   1   3  -9  107.22    3.33
   1   3  -9  106.96    3.33
   1   3  -9  109.45    3.10
  -1  -3   9  106.72    3.10
  -1  -3   9  109.88    3.35
   0   3  -9   -0.05    0.03
   0   3  -9    0.05    0.03
   0   3  -9    0.02    0.03
   0   3  -9    0.02    0.02
   0  -3   9    0.06    0.04
   0  -3   9   -0.02    0.04
   0  -3   9    0.03    0.03
  -1   3  -9    2.72    0.15
  -1   3  -9    2.66    0.13
  -1   3  -9    2.74    0.14
   1  -3   9    2.59    0.15
   1  -3   9    2.66    0.13
   1  -3   9    2.55    0.11
  -2   3  -9   20.54    0.68
  -2   3  -9   20.99    0.64
   2  -3   9   19.37    0.60
   2  -3   9   19.56    0.69
   2  -3   9   18.78    0.63
  -3   3  -9    0.26    0.06
   3  -3   9    0.27    0.07
   3  -3   9    0.23    0.05
   3  -3   9    0.18    0.07
  -4   3  -9    3.06    0.18
   4  -3   9    2.79    0.19
   4  -3   9    3.03    0.15
   4  -3   9    3.33    0.17
  -5   3  -9   13.94    0.53
   5  -3   9   14.12    0.55
   5  -3   9   14.45    0.50
   5  -3   9   14.07    0.49
  -6   3  -9    6.81    0.31
   6  -3   9    6.04    0.29
   6  -3   9    6.08    0.32
  -7   3  -9   78.80    2.51
   7  -3   9   77.16    2.34
  -8   3  -9    5.49    0.30
   8  -3   9    5.55    0.29
  -9   3  -9    2.45    0.22
   9  -3   9    3.02    0.22
 -10   3  -9    1.18    0.17
  10  -3   9    1.65    0.14
  10  -3   9    2.10    0.21
 -11   3  -9    1.24    0.18
  11  -3   9    1.01    0.17
  11  -3   9    1.30    0.13
 -12   3  -9    0.02    0.11
  12  -3   9   -0.12    0.10
  12  -3   9    0.04    0.11
 -13   3  -9    0.92    0.19
  13  -3   9    0.94    0.19
  13  -3   9    1.02    0.21
  14  -3   9    3.11    0.30
  14  -3   9    2.35    0.29
 -13  -2   9    0.03    0.11
 -12  -2   9   21.15    0.83
 -11  -2   9    3.18    0.25
 -10  -2   9    0.77    0.14
   9   2  -9   -0.01    0.04
  -9  -2   9   -0.06    0.07
   8   2  -9    9.87    0.33
   8   2  -9    9.85    0.35
  -8  -2   9   10.10    0.42
   7   2  -9   21.86    0.64
   7   2  -9   20.28    0.63
  -7  -2   9   20.90    0.63
  -7  -2   9   20.30    0.73
   6   2  -9   17.47    0.51
  -6  -2   9   16.43    0.60
  -6  -2   9   16.21    0.52
   5   2  -9   55.46    1.60
  -5  -2   9   56.67    1.63
  -5  -2   9   54.41    1.77
   4   2  -9    1.05    0.06
  -4  -2   9    0.83    0.09
   3   2  -9    9.32    0.28
  -3  -2   9    8.90    0.29
  -3  -2   9    8.71    0.34
   2   2  -9   38.03    1.10
   2   2  -9   38.59    1.21
   2   2  -9   37.32    1.09
  -2  -2   9   36.77    1.21
  -2  -2   9   37.22    1.10
   1   2  -9   36.24    1.17
   1   2  -9   36.54    1.06
  -1  -2   9   35.15    1.06
  -1  -2   9   36.54    1.17
   0   2  -9  116.08    3.32
   0   2  -9  112.62    3.59
   0   2  -9  116.52    3.59
   0  -2   9  116.83    3.32
  -1   2  -9    0.57    0.07
  -1   2  -9    0.48    0.08
  -1   2  -9    0.46    0.08
   1  -2   9    0.44    0.06
   1  -2   9    0.43    0.08
   1  -2   9    0.51    0.04
  -2   2  -9  103.22    2.97
  -2   2  -9  101.03    3.20
   2  -2   9  103.37    3.22
   2  -2   9  101.77    2.97
  -3   2  -9    0.75    0.10
   3  -2   9    0.67    0.10
   3  -2   9    0.58    0.08
  -4   2  -9    3.02    0.19
   4  -2   9    3.05    0.17
   4  -2   9    2.96    0.20
  -5   2  -9    8.73    0.37
   5  -2   9    8.36    0.38
   5  -2   9    7.80    0.34
  -6   2  -9    0.14    0.07
   6  -2   9    0.10    0.08
  -7   2  -9   12.08    0.49
   7  -2   9   11.54    0.47
  -8   2  -9   14.14    0.58
   8  -2   9   13.93    0.55
  -9   2  -9    0.14    0.10
   9  -2   9    0.06    0.09
 -10   2  -9    9.82    0.47
  10  -2   9    9.95    0.45
 -11   2  -9   -0.06    0.09
  11  -2   9    0.05    0.10
 -12   2  -9   -0.01    0.10
  12  -2   9    0.21    0.12
 -13   2  -9    1.82    0.24
  13  -2   9    2.55    0.26
  14   1  -9    1.32    0.22
 -14  -1   9    1.14    0.19
 -13  -1   9    0.78    0.16
 -12  -1   9    2.61    0.25
 -11  -1   9    7.13    0.38
 -10  -1   9    1.77    0.18
   9   1  -9   14.23    0.45
  -9  -1   9   14.45    0.57
   8   1  -9   40.82    1.19
   8   1  -9   39.91    1.17
  -8  -1   9   40.21    1.35
   7   1  -9   26.88    0.78
   7   1  -9   26.52    0.78
  -7  -1   9   26.82    0.92
  -7  -1   9   26.59    0.80
  -6  -1   9    0.21    0.07
  -5  -1   9   33.03    1.09
  -4  -1   9  277.15    8.52
   3   1  -9    0.02    0.03
  -3  -1   9    0.01    0.02
  -3  -1   9    0.03    0.05
   2   1  -9  178.64    5.15
   2   1  -9  181.63    5.59
  -2  -1   9  183.04    5.61
  -2  -1   9  182.56    5.20
   1   1  -9    5.15    0.22
   1   1  -9    4.67    0.23
  -1  -1   9    4.83    0.18
  -1  -1   9    4.63    0.23
   0   1  -9    2.40    0.15
   0   1  -9    2.02    0.14
   0  -1   9    2.63    0.12
   0  -1   9    2.45    0.08
  -1   1  -9   35.88    1.19
   1  -1   9   36.31    1.21
   1  -1   9   36.29    1.09
  -2   1  -9   25.54    0.88
   2  -1   9   25.70    0.89
   2  -1   9   25.54    0.80
  -3   1  -9   80.33    2.62
   3  -1   9   84.05    2.43
   3  -1   9   83.81    2.64
  -4   1  -9    4.30    0.23
   4  -1   9    4.34    0.21
   4  -1   9    3.16    0.22
  -5   1  -9   25.24    0.92
   5  -1   9   27.29    0.87
  -6   1  -9    5.74    0.30
   6  -1   9    5.19    0.28
  -7   1  -9    5.66    0.31
   7  -1   9    5.50    0.30
  -8   1  -9    1.00    0.16
   8  -1   9    0.76    0.14
  -9   1  -9    2.40    0.22
   9  -1   9    2.14    0.22
 -10   1  -9    0.51    0.13
  10  -1   9    0.79    0.15
 -11   1  -9    4.29    0.31
  11  -1   9    4.22    0.30
 -12   1  -9    0.01    0.12
  12  -1   9    0.27    0.14
 -13   1  -9    6.69    0.42
  13  -1   9    6.61    0.39
  14   0  -9    1.54    0.23
 -14   0   9    1.88    0.23
  13   0  -9   -0.07    0.11
 -13   0   9    0.00    0.10
  12   0  -9    7.88    0.41
 -12   0   9    7.45    0.41
  11   0  -9   11.99    0.51
 -11   0   9   11.36    0.52
 -10   0   9   25.55    0.93
   9   0  -9   10.25    0.33
  -9   0   9   10.73    0.46
   8   0  -9    0.04    0.03
   8   0  -9    0.08    0.02
  -8   0   9   -0.01    0.07
   7   0  -9    1.78    0.14
  -7   0   9    1.76    0.15
   6   0  -9   11.68    0.41
  -6   0   9   11.36    0.45
   5   0  -9   10.37    0.36
  -5   0   9   10.34    0.41
   4   0  -9    8.01    0.29
  -4   0   9    8.80    0.35
   3   0  -9    3.96    0.19
   3   0  -9    3.88    0.15
  -3   0   9    3.97    0.13
  -3   0   9    3.83    0.20
   2   0  -9    9.00    0.36
   2   0  -9    9.52    0.29
  -2   0   9    9.46    0.30
  -2   0   9    9.55    0.38
   1   0  -9   11.33    0.34
  -1   0   9   11.08    0.43
  -1   0   9   11.20    0.37
  -1   0   9   11.14    0.34
   0   0  -9   16.11    0.59
   0   0   9   16.52    0.49
   0   0   9   15.72    0.52
  -1   0  -9    0.13    0.06
  -1   0  -9    0.01    0.04
   1   0   9    0.19    0.06
   1   0   9   -0.01    0.04
  -2   0  -9   33.04    1.13
   2   0   9   36.14    1.04
   2   0   9   30.27    1.13
   2   0   9   34.19    1.02
  -3   0  -9    2.57    0.18
   3   0   9    2.43    0.16
   3   0   9    2.66    0.19
  -4   0  -9    3.56    0.22
   4   0   9    3.35    0.20
  -5   0  -9   21.56    0.78
   5   0   9   21.18    0.73
  -6   0  -9   31.51    1.11
   6   0   9   31.85    1.04
  -7   0  -9    2.18    0.22
   7   0   9    1.94    0.20
  -8   0  -9    4.68    0.30
   8   0   9    4.26    0.27
  -9   0  -9    0.46    0.12
   9   0   9    0.68    0.14
 -10   0  -9   13.51    0.61
  10   0   9   13.87    0.58
 -11   0  -9    1.32    0.20
  11   0   9    1.84    0.23
 -12   0  -9    0.83    0.18
  12   0   9    0.98    0.18
 -13   0  -9    1.99    0.25
  13   0   9    1.78    0.25
  14  -1  -9    1.95    0.25
 -14   1   9    2.16    0.25
  13  -1  -9    1.20    0.19
 -13   1   9    1.29    0.19
  12  -1  -9    0.69    0.15
 -12   1   9    0.36    0.12
  11  -1  -9   13.73    0.56
 -11   1   9   13.61    0.59
  10  -1  -9    1.43    0.17
 -10   1   9    1.09    0.16
   9  -1  -9   26.79    0.79
   9  -1  -9   26.69    0.90
  -9   1   9   27.92    0.97
   8  -1  -9   40.90    1.26
  -8   1   9   40.11    1.36
   7  -1  -9    3.32    0.18
  -7   1   9    3.16    0.20
   6  -1  -9    0.53    0.08
  -6   1   9    0.35    0.08
   5  -1  -9   12.50    0.42
  -5   1   9   12.21    0.48
   4  -1  -9   49.13    1.44
  -4   1   9   49.71    1.60
  -4   1   9   48.65    1.40
   3  -1  -9   66.30    2.00
   3  -1  -9   61.90    1.81
  -3   1   9   61.14    2.01
  -3   1   9   61.66    1.81
   2  -1  -9    0.83    0.07
   2  -1  -9    0.63    0.09
  -2   1   9    0.95    0.06
  -2   1   9    0.64    0.10
   1  -1  -9    0.07    0.04
   1  -1  -9    0.00    0.04
  -1   1   9    0.05    0.06
  -1   1   9   -0.04    0.03
   0  -1  -9   24.10    0.85
   0  -1  -9   23.33    0.84
   0   1   9   24.76    0.74
  -1  -1  -9    2.86    0.20
  -1  -1  -9    2.86    0.19
   1   1   9    2.82    0.15
  -2  -1  -9    3.63    0.23
   2   1   9    3.86    0.19
  -3  -1  -9    0.08    0.07
  -4  -1  -9   17.72    0.67
  -5  -1  -9   34.78    1.21
  -6  -1  -9   16.94    0.69
   6   1   9   18.42    0.66
  -7  -1  -9    1.03    0.15
   7   1   9    1.29    0.18
  -8  -1  -9    0.04    0.10
   8   1   9   -0.03    0.08
  -9  -1  -9    1.10    0.18
   9   1   9    1.31    0.20
 -10  -1  -9    3.89    0.30
  10   1   9    3.52    0.30
 -11  -1  -9    2.16    0.25
  11   1   9    1.99    0.24
 -12  -1  -9    1.26    0.21
  12   1   9    1.47    0.22
  15  -2  -9    0.06    0.14
 -15   2   9    0.09    0.13
  14  -2  -9    0.86    0.19
 -14   2   9    1.08    0.20
  13  -2  -9    0.11    0.12
 -13   2   9    0.02    0.11
  12  -2  -9    2.12    0.22
 -12   2   9    2.47    0.25
  11  -2  -9    0.13    0.10
 -11   2   9    0.24    0.11
  10  -2  -9    0.24    0.05
  10  -2  -9    0.22    0.10
 -10   2   9    0.24    0.11
   9  -2  -9    0.67    0.12
   9  -2  -9    0.61    0.05
  -9   2   9    0.61    0.12
   8  -2  -9    3.72    0.21
  -8   2   9    3.69    0.24
   7  -2  -9    8.66    0.33
  -7   2   9    7.98    0.37
   6  -2  -9   11.44    0.40
  -6   2   9   10.93    0.46
   5  -2  -9   35.74    1.06
  -5   2   9   35.62    1.01
  -5   2   9   33.26    1.17
   4  -2  -9  183.16    5.59
   4  -2  -9  179.39    5.15
  -4   2   9  179.07    5.61
  -4   2   9  176.51    5.15
  -4   2   9  184.45    5.14
   3  -2  -9   31.80    1.08
   3  -2  -9   33.43    0.98
  -3   2   9   31.28    1.10
  -3   2   9   32.73    0.97
  -3   2   9   32.96    0.98
   2  -2  -9   26.81    0.82
  -2   2   9   26.55    0.93
  -2   2   9   27.17    0.81
   1  -2  -9   59.78    1.96
   1  -2  -9   61.24    1.79
  -1   2   9   60.90    1.97
  -1   2   9   61.75    1.78
   0  -2  -9   21.22    0.75
   0  -2  -9   20.03    0.67
   0  -2  -9   21.62    0.77
  -1  -2  -9   88.41    2.78
  -1  -2  -9   86.96    2.78
   1   2   9   85.33    2.54
  -2  -2  -9    1.33    0.15
  -3  -2  -9   37.38    1.28
  -4  -2  -9    0.38    0.10
  -5  -2  -9   19.18    0.74
  -6  -2  -9   11.23    0.50
  -7  -2  -9    0.09    0.11
   7   2   9    0.03    0.09
  -8  -2  -9   13.25    0.59
   8   2   9   13.72    0.58
  -9  -2  -9    3.06    0.27
   9   2   9    2.53    0.26
 -10  -2  -9    0.68    0.16
  10   2   9    0.39    0.15
 -11  -2  -9   13.73    0.65
  11   2   9   14.60    0.65
  15  -3  -9    0.64    0.17
 -15   3   9    1.20    0.21
  14  -3  -9    0.07    0.13
 -14   3   9    0.22    0.13
  13  -3  -9    2.97    0.27
 -13   3   9    2.65    0.28
  12  -3  -9    0.14    0.11
 -12   3   9    0.29    0.12
  11  -3  -9    5.19    0.30
 -11   3   9    4.97    0.32
  10  -3  -9    0.05    0.04
  10  -3  -9    0.12    0.10
 -10   3   9   -0.05    0.08
   9  -3  -9    0.82    0.07
   9  -3  -9    0.66    0.12
  -9   3   9    0.55    0.13
   8  -3  -9    0.93    0.12
   8  -3  -9    0.86    0.07
  -8   3   9    1.05    0.06
  -8   3   9    0.94    0.14
   7  -3  -9    0.83    0.11
  -7   3   9    0.93    0.13
  -7   3   9    0.86    0.06
   6  -3  -9    0.19    0.06
  -6   3   9    0.27    0.04
  -6   3   9    0.39    0.09
   5  -3  -9    8.27    0.30
  -5   3   9    7.68    0.29
  -5   3   9    7.17    0.35
  -5   3   9    7.88    0.27
   4  -3  -9    0.10    0.05
   4  -3  -9    0.05    0.05
  -4   3   9   -0.02    0.02
  -4   3   9    0.03    0.06
  -4   3   9    0.07    0.04
   3  -3  -9  194.66    5.57
  -3   3   9  194.47    6.05
   2  -3  -9    0.93    0.10
   2  -3  -9    0.64    0.10
  -2   3   9    1.03    0.13
   1  -3  -9    0.64    0.11
   1  -3  -9    0.73    0.09
  -1   3   9    0.35    0.07
  -1   3   9    0.68    0.11
   0  -3  -9    3.45    0.19
   0  -3  -9    3.31    0.23
   0  -3  -9    3.34    0.22
   0   3   9    3.88    0.19
  -1  -3  -9   21.46    0.78
  -1  -3  -9   20.26    0.78
  -2  -3  -9    0.45    0.10
  -2  -3  -9    0.80    0.13
  -3  -3  -9    3.10    0.23
  -4  -3  -9  133.17    4.22
  -5  -3  -9    0.49    0.13
  -7  -3  -9    0.86    0.16
  -8  -3  -9    0.43    0.14
   8   3   9    0.31    0.12
  -9  -3  -9    0.46    0.15
   9   3   9    0.52    0.17
 -10  -3  -9    0.40    0.15
  10   3   9    0.49    0.15
 -11  -3  -9    3.08    0.30
  11   3   9    3.32    0.33
  15  -4  -9    0.29    0.14
 -15   4   9    0.21    0.14
  14  -4  -9    6.36    0.38
 -14   4   9    6.49    0.41
  13  -4  -9    0.14    0.12
 -13   4   9   -0.01    0.11
  12  -4  -9    0.96    0.17
 -12   4   9    0.89    0.17
  11  -4  -9    1.06    0.16
 -11   4   9    0.90    0.16
  10  -4  -9    5.51    0.30
  10  -4  -9    5.35    0.21
 -10   4   9    5.03    0.32
   9  -4  -9    0.10    0.05
   9  -4  -9    0.12    0.09
  -9   4   9    0.09    0.04
  -9   4   9   -0.03    0.09
   8  -4  -9    1.33    0.10
   8  -4  -9    1.62    0.16
  -8   4   9    1.56    0.09
  -8   4   9    1.72    0.19
   7  -4  -9   16.70    0.56
  -7   4   9   14.75    0.61
  -7   4   9   15.61    0.49
   6  -4  -9   18.09    0.61
  -6   4   9   17.83    0.57
  -6   4   9   18.66    0.70
   5  -4  -9    1.22    0.13
   5  -4  -9    1.02    0.11
  -5   4   9    1.02    0.14
   4  -4  -9    0.49    0.09
   4  -4  -9    0.78    0.10
  -4   4   9    0.66    0.12
  -4   4   9    0.57    0.08
  -4   4   9    0.43    0.07
   3  -4  -9    1.99    0.14
  -3   4   9    2.26    0.15
  -3   4   9    2.34    0.14
  -3   4   9    2.52    0.19
   2  -4  -9   43.86    1.34
   2  -4  -9   44.95    1.46
  -2   4   9   41.75    1.31
  -2   4   9   43.90    1.46
   1  -4  -9   13.61    0.54
   1  -4  -9   13.15    0.49
   0  -4  -9   42.01    1.32
   0  -4  -9   42.45    1.43
  -1  -4  -9    3.03    0.22
  -1  -4  -9    2.86    0.23
  -2  -4  -9    0.04    0.08
  -2  -4  -9   -0.06    0.06
  -3  -4  -9   18.62    0.74
  -4  -4  -9    1.83    0.21
  -5  -4  -9    7.81    0.42
  -6  -4  -9    1.10    0.17
  -7  -4  -9    0.08    0.11
  -8  -4  -9    0.03    0.11
  -9  -4  -9    0.94    0.18
   9   4   9    1.09    0.19
 -10  -4  -9    0.20    0.13
  10   4   9   -0.11    0.12
  15  -5  -9    2.33    0.26
 -15   5   9    2.05    0.27
  14  -5  -9    0.52    0.15
 -14   5   9    0.55    0.17
  13  -5  -9    0.07    0.11
 -13   5   9   -0.04    0.11
  12  -5  -9    0.20    0.12
 -12   5   9    0.18    0.11
  11  -5  -9    6.33    0.35
 -11   5   9    6.67    0.38
  10  -5  -9   10.97    0.38
  10  -5  -9   10.12    0.45
 -10   5   9   10.09    0.49
   9  -5  -9    0.58    0.08
   9  -5  -9    0.59    0.12
  -9   5   9    0.61    0.14
   8  -5  -9    7.76    0.30
   8  -5  -9    7.33    0.34
  -8   5   9    8.04    0.40
   7  -5  -9   11.19    0.43
  -7   5   9   11.02    0.49
   6  -5  -9    1.66    0.14
  -6   5   9    1.62    0.18
  -6   5   9    1.44    0.11
   5  -5  -9    0.47    0.10
   5  -5  -9    0.42    0.09
  -5   5   9    0.56    0.11
  -5   5   9    0.62    0.08
   4  -5  -9   76.06    2.27
  -4   5   9   76.99    2.48
   3  -5  -9    6.61    0.33
   3  -5  -9    7.02    0.31
  -3   5   9    7.15    0.34
   2  -5  -9    1.21    0.14
   2  -5  -9    1.14    0.14
  -2   5   9    1.40    0.16
   1  -5  -9    0.35    0.10
   1  -5  -9    0.33    0.09
   0  -5  -9    0.38    0.11
   0  -5  -9    0.65    0.12
  -1  -5  -9    2.61    0.23
  -1  -5  -9    2.35    0.21
  -2  -5  -9   34.23    1.19
  -2  -5  -9   31.84    1.17
  -3  -5  -9   59.32    2.01
  -3  -5  -9   60.21    2.01
  -4  -5  -9   50.34    1.73
  -5  -5  -9    0.46    0.14
  -6  -5  -9    2.07    0.24
  -7  -5  -9    0.70    0.16
  -8  -5  -9    0.43    0.16
  -9  -5  -9    1.02    0.20
  15  -6  -9    0.19    0.14
 -15   6   9    0.14    0.14
  14  -6  -9    4.32    0.33
 -14   6   9    3.90    0.34
  13  -6  -9    1.69    0.21
 -13   6   9    2.07    0.25
  12  -6  -9   16.39    0.66
 -12   6   9   16.92    0.72
  11  -6  -9    0.28    0.12
 -11   6   9    0.26    0.12
  10  -6  -9   11.91    0.51
  10  -6  -9   11.77    0.44
 -10   6   9   13.57    0.58
   9  -6  -9    8.95    0.40
   9  -6  -9    8.71    0.35
  -9   6   9    8.90    0.45
  -9   6   9    8.88    0.32
   8  -6  -9   14.64    0.56
  -8   6   9   15.65    0.64
  -8   6   9   15.66    0.51
   7  -6  -9    7.52    0.34
  -7   6   9    7.97    0.40
   6  -6  -9    0.39    0.10
   6  -6  -9    0.32    0.08
  -6   6   9    0.40    0.10
   5  -6  -9    9.20    0.39
   5  -6  -9    9.93    0.42
  -5   6   9    8.54    0.43
   4  -6  -9    0.05    0.04
   4  -6  -9   -0.02    0.07
  -4   6   9    0.15    0.08
   3  -6  -9    1.20    0.15
   3  -6  -9    1.34    0.15
  -3   6   9    0.93    0.14
   2  -6  -9    0.81    0.13
   2  -6  -9    0.78    0.13
  -2   6   9    0.58    0.12
   1  -6  -9    5.25    0.29
   1  -6  -9    5.36    0.30
   0  -6  -9    3.23    0.24
   0  -6  -9    3.22    0.26
   0  -6  -9    3.04    0.23
  -1  -6  -9    9.91    0.47
  -1  -6  -9   10.04    0.49
  -2  -6  -9   23.51    0.91
  -3  -6  -9    2.16    0.23
  -4  -6  -9    9.12    0.48
  -5  -6  -9    1.17    0.19
  -6  -6  -9    1.59    0.22
  -7  -6  -9    7.69    0.45
  -8  -6  -9    4.71    0.36
  15  -7  -9   -0.06    0.13
  14  -7  -9    3.42    0.31
 -14   7   9    2.40    0.29
  13  -7  -9    2.13    0.24
 -13   7   9    2.28    0.26
  12  -7  -9    5.33    0.33
 -12   7   9    5.48    0.37
  11  -7  -9   21.88    0.72
  11  -7  -9   21.26    0.79
 -11   7   9   20.88    0.86
  10  -7  -9    0.01    0.07
  10  -7  -9    0.00    0.10
 -10   7   9   -0.03    0.11
   9  -7  -9  142.60    4.11
   9  -7  -9  136.06    4.14
  -9   7   9  143.71    4.50
   8  -7  -9    0.13    0.10
  -8   7   9    0.14    0.11
   7  -7  -9   10.40    0.44
  -7   7   9   10.48    0.49
   6  -7  -9   38.23    1.32
   6  -7  -9   38.37    1.24
  -6   7   9   38.63    1.35
   5  -7  -9    0.26    0.09
   5  -7  -9    0.61    0.12
  -5   7   9    0.37    0.11
   4  -7  -9    7.34    0.36
   4  -7  -9    7.50    0.36
  -4   7   9    8.02    0.39
   3  -7  -9    0.86    0.14
   3  -7  -9    1.01    0.14
  -3   7   9    1.09    0.16
   2  -7  -9   11.43    0.49
   2  -7  -9   11.34    0.50
   1  -7  -9    3.11    0.24
   1  -7  -9    2.93    0.24
   0  -7  -9   30.99    1.12
   0  -7  -9   30.71    1.06
   0  -7  -9   30.36    1.14
  -1  -7  -9    0.19    0.12
  -2  -7  -9    0.09    0.11
  -3  -7  -9   23.10    0.91
  -4  -7  -9    9.02    0.48
  -5  -7  -9   24.84    0.98
  -6  -7  -9    3.27    0.30
  -7  -7  -9    0.43    0.15
  15  -8  -9    0.07    0.13
  14  -8  -9    1.95    0.24
  13  -8  -9   11.23    0.53
  12  -8  -9    1.90    0.22
 -12   8   9    2.11    0.25
  11  -8  -9    0.38    0.10
  11  -8  -9    0.58    0.14
 -11   8   9    0.45    0.14
  10  -8  -9    0.84    0.16
  10  -8  -9    0.60    0.12
 -10   8   9    0.73    0.15
   9  -8  -9    2.23    0.23
  -9   8   9    1.97    0.23
   8  -8  -9   37.08    1.20
  -8   8   9   34.84    1.29
   7  -8  -9   10.98    0.48
  -7   8   9   10.83    0.52
   6  -8  -9   64.18    2.14
   6  -8  -9   64.32    2.01
  -6   8   9   65.98    2.17
   5  -8  -9   99.58    3.05
  -5   8   9  103.64    3.29
   4  -8  -9    3.56    0.25
   4  -8  -9    3.35    0.25
  -4   8   9    3.37    0.26
   3  -8  -9    1.86    0.21
   3  -8  -9    1.30    0.18
  -3   8   9    1.58    0.19
   2  -8  -9   26.28    0.94
   1  -8  -9   15.66    0.65
   0  -8  -9    0.68    0.17
   0  -8  -9    0.72    0.17
  -1  -8  -9    1.59    0.22
  -2  -8  -9    8.36    0.47
  -3  -8  -9    7.14    0.42
  -4  -8  -9    9.62    0.51
  -5  -8  -9    0.48    0.15
  -6  -8  -9   14.11    0.66
  -7  -8  -9    0.02    0.12
  15  -9  -9    4.99    0.38
  14  -9  -9    0.45    0.18
  13  -9  -9    0.12    0.14
  12  -9  -9    0.64    0.16
  11  -9  -9    3.99    0.30
  11  -9  -9    4.42    0.27
  10  -9  -9    0.67    0.16
  10  -9  -9    0.67    0.13
   9  -9  -9    2.23    0.24
  -9   9   9    2.50    0.26
   8  -9  -9   20.34    0.78
  -8   9   9   21.30    0.85
   7  -9  -9   11.30    0.50
  -7   9   9   10.06    0.52
   6  -9  -9    6.08    0.34
  -6   9   9    5.88    0.36
   5  -9  -9   20.48    0.78
   4  -9  -9    8.78    0.44
   3  -9  -9    3.80    0.29
   2  -9  -9    2.67    0.26
   1  -9  -9    5.63    0.36
   0  -9  -9    0.85    0.17
   0  -9  -9    0.75    0.17
  -1  -9  -9    4.37    0.35
  -2  -9  -9    0.28    0.14
  -3  -9  -9    5.59    0.38
  -4  -9  -9    1.11    0.20
  -5  -9  -9    0.31    0.15
  15 -10  -9   -0.07    0.16
  14 -10  -9    3.44    0.34
  13 -10  -9   -0.04    0.14
  12 -10  -9    0.29    0.14
  11 -10  -9    2.99    0.30
  11 -10  -9    3.17    0.24
  10 -10  -9    5.56    0.36
   9 -10  -9   -0.05    0.11
   8 -10  -9    1.91    0.23
   7 -10  -9    4.39    0.33
   6 -10  -9   29.17    1.05
   5 -10  -9    8.10    0.43
   4 -10  -9    8.72    0.46
   3 -10  -9    2.31    0.25
   2 -10  -9    1.45    0.23
   1 -10  -9    0.83    0.19
   0 -10  -9    2.40    0.30
   0 -10  -9    3.20    0.32
  -1 -10  -9    3.55    0.33
  -2 -10  -9    0.18    0.14
  -3 -10  -9    1.46    0.23
  -4 -10  -9    3.49    0.32
  14 -11  -9   17.89    0.79
  13 -11  -9    8.28    0.48
  12 -11  -9    1.06    0.21
  11 -11  -9    1.69    0.24
  10 -11  -9    3.70    0.32
   9 -11  -9    8.27    0.46
   8 -11  -9    0.52    0.17
   7 -11  -9    2.69    0.29
   6 -11  -9    8.30    0.45
   5 -11  -9    0.70    0.18
   4 -11  -9    1.28    0.22
   3 -11  -9   11.18    0.56
   2 -11  -9   22.53    0.91
   1 -11  -9    1.17    0.23
   1 -11  -9    1.53    0.24
   0 -11  -9   13.68    0.67
   0 -11  -9   13.22    0.66
  -1 -11  -9    1.54    0.24
  -2 -11  -9    1.20    0.22
  -3 -11  -9    0.01    0.13
  14 -12  -9   13.29    0.65
  13 -12  -9   10.78    0.58
  12 -12  -9    3.74    0.36
  11 -12  -9    1.70    0.24
  10 -12  -9   -0.14    0.13
   9 -12  -9    2.29    0.27
   8 -12  -9    0.42    0.15
   7 -12  -9    0.03    0.14
   6 -12  -9    0.11    0.13
   5 -12  -9    1.83    0.26
   4 -12  -9    2.26    0.28
   3 -12  -9    0.59    0.19
   2 -12  -9    0.00    0.15
   1 -12  -9    0.04    0.14
   1 -12  -9    0.14    0.14
   0 -12  -9    1.72    0.26
  -1 -12  -9   13.40    0.68
  13 -13  -9    3.24    0.35
  12 -13  -9    0.00    0.14
  11 -13  -9    7.55    0.48
  10 -13  -9    2.21    0.29
   9 -13  -9    0.09    0.14
   8 -13  -9    6.00    0.43
   7 -13  -9    1.60    0.26
   6 -13  -9    0.50    0.20
   5 -13  -9    0.14    0.17
   4 -13  -9    2.00    0.28
   3 -13  -9    1.01    0.23
   2 -13  -9    0.23    0.18
   1 -13  -9    3.88    0.40
   1 -13  -9    3.64    0.38
   0 -13  -9    0.65    0.20
  11 -14  -9    0.11    0.17
  10 -14  -9    0.24    0.16
   9 -14  -9    0.21    0.18
   8 -14  -9   -0.10    0.16
   7 -14  -9    2.19    0.30
   6 -14  -9    4.04    0.41
   5 -14  -9    0.78    0.23
   4 -14  -9    0.55    0.22
   3 -14  -9    1.03    0.25
   8 -15  -9    8.64    0.56
   7 -15  -9    0.57    0.23
   3 -17  10    0.26    0.20
   4 -17  10    2.59    0.33
   4 -17  10    3.88    0.41
   5 -17  10   -0.04    0.17
   5 -17  10   -0.06    0.15
   6 -17  10    2.02    0.29
   6 -17  10    1.13    0.25
   7 -17  10    1.58    0.28
   7 -17  10    1.83    0.30
   8 -17  10    0.47    0.19
   8 -17  10    0.44    0.21
   9 -17  10   -0.15    0.15
   9 -17  10   -0.15    0.13
  10 -17  10    7.27    0.50
  10 -17  10    6.76    0.48
   1 -16  10    0.86    0.23
   2 -16  10    0.28    0.18
   3 -16  10    0.12    0.16
   3 -16  10    0.05    0.17
   4 -16  10    4.29    0.41
   4 -16  10    4.14    0.36
   5 -16  10    1.03    0.24
   5 -16  10    0.96    0.22
   6 -16  10    2.43    0.31
   6 -16  10    2.07    0.30
   7 -16  10    2.08    0.30
   7 -16  10    1.89    0.27
   8 -16  10    6.28    0.45
   8 -16  10    5.94    0.45
   9 -16  10    2.92    0.33
   9 -16  10    3.20    0.35
  10 -16  10    0.89    0.22
  10 -16  10    0.78    0.20
  11 -16  10   -0.18    0.13
  11 -16  10    0.22    0.17
  12 -16  10    3.41    0.36
  12 -16  10    3.40    0.38
   0 -15  10    4.96    0.41
   1 -15  10    0.50    0.20
   2 -15  10   14.23    0.71
   2 -15  10   16.69    0.74
   3 -15  10    0.75    0.20
   3 -15  10    0.77    0.22
   4 -15  10    3.43    0.35
   4 -15  10    3.29    0.34
   5 -15  10    0.72    0.19
   5 -15  10    0.41    0.18
   6 -15  10    0.27    0.18
   6 -15  10    0.40    0.16
   7 -15  10    0.26    0.15
   7 -15  10    0.77    0.20
   8 -15  10   21.46    0.87
   8 -15  10   20.06    0.85
   9 -15  10    0.10    0.14
   9 -15  10   -0.03    0.14
  10 -15  10    0.71    0.19
  10 -15  10    0.85    0.21
  11 -15  10    9.70    0.53
  11 -15  10    9.89    0.55
  12 -15  10    0.67    0.19
  12 -15  10    0.77    0.22
  13 -15  10    0.16    0.18
  13 -15  10    0.36    0.19
   0 -14  10    4.83    0.38
   1 -14  10    0.28    0.17
   1 -14  10    0.30    0.05
   1 -14  10    0.18    0.16
   2 -14  10    2.97    0.31
   2 -14  10    3.09    0.32
   2 -14  10    3.41    0.16
   3 -14  10   13.98    0.64
   3 -14  10   12.88    0.62
   4 -14  10    0.33    0.14
   4 -14  10    0.50    0.16
   5 -14  10    4.32    0.36
   5 -14  10    4.72    0.36
   6 -14  10    0.02    0.13
   6 -14  10    0.38    0.15
   7 -14  10    0.24    0.15
   7 -14  10    0.06    0.15
   8 -14  10    1.98    0.26
   8 -14  10    2.08    0.27
   9 -14  10    5.82    0.41
   9 -14  10    4.97    0.38
  10 -14  10    4.81    0.38
  10 -14  10    5.10    0.37
  11 -14  10    6.82    0.43
  11 -14  10    5.62    0.39
  12 -14  10    1.16    0.23
  12 -14  10    0.84    0.20
  13 -14  10    1.32    0.23
  13 -14  10    1.74    0.26
  14 -14  10    1.91    0.29
  14 -14  10    1.71    0.26
  -1 -13  10    2.61    0.29
   0 -13  10    2.05    0.25
   1 -13  10    0.18    0.13
   1 -13  10    0.49    0.16
   1 -13  10    0.42    0.06
   2 -13  10    6.61    0.40
   2 -13  10    6.70    0.41
   2 -13  10    6.19    0.25
   3 -13  10    0.12    0.11
   3 -13  10    0.19    0.06
   3 -13  10    0.09    0.13
   4 -13  10    3.88    0.32
   4 -13  10    3.85    0.20
   4 -13  10    3.78    0.30
   5 -13  10    0.21    0.13
   5 -13  10    0.07    0.11
   5 -13  10   -0.05    0.13
   6 -13  10    0.62    0.17
   6 -13  10    0.63    0.17
   6 -13  10    0.47    0.14
   7 -13  10   23.46    0.90
   7 -13  10   23.73    0.90
   7 -13  10   24.24    0.90
   8 -13  10    0.07    0.13
   8 -13  10    0.06    0.13
   8 -13  10    0.00    0.11
   9 -13  10    1.67    0.22
   9 -13  10    1.69    0.23
   9 -13  10    1.55    0.22
  10 -13  10    5.10    0.35
  10 -13  10    5.17    0.36
  10 -13  10    5.03    0.35
  11 -13  10    7.08    0.41
  11 -13  10    7.57    0.44
  11 -13  10    8.66    0.47
  12 -13  10    0.21    0.15
  12 -13  10    0.30    0.14
  12 -13  10    0.12    0.14
  13 -13  10    4.07    0.34
  13 -13  10    4.33    0.36
  14 -13  10    1.18    0.23
  14 -13  10    1.64    0.26
  -1 -12  10    8.62    0.47
   0 -12  10    2.52    0.27
   0 -12  10    2.28    0.26
   1 -12  10    1.60    0.10
   1 -12  10    1.73    0.23
   1 -12  10    1.86    0.24
   2 -12  10    6.25    0.24
   2 -12  10    5.42    0.36
   2 -12  10    6.35    0.37
   3 -12  10    0.08    0.10
   3 -12  10    0.11    0.11
   3 -12  10    0.09    0.05
   3 -12  10   -0.03    0.11
   4 -12  10   14.42    0.54
   4 -12  10   15.67    0.64
   4 -12  10   15.40    0.62
   4 -12  10   15.41    0.63
   5 -12  10    1.26    0.19
   5 -12  10    1.73    0.21
   5 -12  10    1.72    0.14
   5 -12  10    1.25    0.19
   6 -12  10   12.71    0.56
   6 -12  10   12.63    0.57
   6 -12  10   13.03    0.56
   7 -12  10    0.73    0.16
   7 -12  10    0.81    0.16
   7 -12  10    0.38    0.13
   8 -12  10    5.65    0.35
   8 -12  10    5.32    0.34
   8 -12  10    5.28    0.34
   9 -12  10    4.06    0.30
   9 -12  10    4.18    0.29
   9 -12  10    4.61    0.32
  10 -12  10    0.52    0.15
  10 -12  10    0.27    0.13
  10 -12  10    0.35    0.15
  11 -12  10    0.35    0.14
  11 -12  10    0.33    0.14
  11 -12  10    0.29    0.15
  12 -12  10    2.02    0.23
  12 -12  10    1.80    0.24
  12 -12  10    1.97    0.26
  13 -12  10    2.36    0.29
  13 -12  10    2.66    0.29
  13 -12  10    2.19    0.25
  14 -12  10    0.34    0.17
  14 -12  10    0.48    0.17
  -7 -11  10    0.24    0.07
  -6 -11  10   15.32    0.53
  -5 -11  10    1.02    0.08
  -5 -11  10    0.87    0.09
  -1 -11  10    0.13    0.12
   0 -11  10    9.37    0.45
   0 -11  10    8.45    0.45
   1 -11  10    1.14    0.18
   1 -11  10    1.30    0.20
   1 -11  10    0.91    0.08
   1 -11  10    1.42    0.19
   2 -11  10   19.77    0.67
   2 -11  10   20.86    0.76
   2 -11  10   20.27    0.77
   2 -11  10   19.60    0.75
   3 -11  10   14.01    0.58
   3 -11  10   13.27    0.48
   3 -11  10   12.60    0.55
   3 -11  10   13.89    0.56
   4 -11  10    0.06    0.05
   4 -11  10    0.04    0.10
   4 -11  10   -0.07    0.09
   4 -11  10   -0.01    0.10
   5 -11  10    8.25    0.41
   5 -11  10    8.94    0.43
   5 -11  10    9.18    0.37
   5 -11  10    8.71    0.42
   6 -11  10    0.10    0.06
   6 -11  10    0.17    0.10
   6 -11  10    0.01    0.09
   6 -11  10    0.16    0.11
   7 -11  10    0.11    0.10
   7 -11  10   -0.06    0.08
   7 -11  10    0.05    0.10
   8 -11  10    0.36    0.13
   8 -11  10    0.26    0.12
   8 -11  10    0.38    0.12
   9 -11  10    0.01    0.12
   9 -11  10   -0.17    0.10
   9 -11  10    0.10    0.11
  10 -11  10    4.24    0.31
  10 -11  10    3.53    0.27
  10 -11  10    3.76    0.28
  11 -11  10    9.02    0.46
  11 -11  10    8.35    0.42
  11 -11  10    8.57    0.45
  12 -11  10    1.99    0.25
  12 -11  10    1.50    0.21
  12 -11  10    1.96    0.25
  13 -11  10    2.53    0.25
  13 -11  10    3.09    0.30
  13 -11  10    2.53    0.28
  14 -11  10    2.49    0.28
  14 -11  10    1.58    0.24
  15 -11  10    0.49    0.18
  15 -11  10    0.43    0.17
  -8 -10  10    0.01    0.07
  -7 -10  10    1.75    0.14
  -6 -10  10   -0.05    0.05
  -5 -10  10   10.39    0.36
  -1 -10  10    7.73    0.40
  -1 -10  10    8.32    0.41
   0 -10  10    0.80    0.14
   0 -10  10    1.07    0.16
   0 -10  10    1.13    0.16
   1 -10  10   35.26    1.18
   1 -10  10   34.95    1.17
   1 -10  10   35.87    1.11
   1 -10  10   34.51    1.17
   2 -10  10   11.22    0.41
   2 -10  10   12.17    0.50
   2 -10  10   12.08    0.49
   2 -10  10   11.77    0.50
   3 -10  10    8.69    0.40
   3 -10  10    8.11    0.40
   3 -10  10    9.33    0.41
   3 -10  10    9.47    0.35
   4 -10  10   13.63    0.54
   4 -10  10   13.46    0.53
   4 -10  10   13.47    0.49
   4 -10  10   13.18    0.54
  -5  10 -10   65.33    1.99
   5 -10  10   63.36    1.94
   5 -10  10   63.94    1.96
   5 -10  10   59.88    2.01
   5 -10  10   62.52    1.95
  -6  10 -10   41.06    1.32
   6 -10  10   40.09    1.31
   6 -10  10   39.62    1.29
   6 -10  10   38.87    1.31
   6 -10  10   41.13    1.34
   7 -10  10    0.64    0.12
   7 -10  10    0.69    0.14
   7 -10  10    0.69    0.11
   7 -10  10    0.46    0.12
   8 -10  10    5.83    0.32
   8 -10  10    6.03    0.33
   8 -10  10    6.11    0.33
   9 -10  10    2.20    0.22
   9 -10  10    2.56    0.22
   9 -10  10    2.87    0.24
  10 -10  10    4.28    0.30
  10 -10  10    3.89    0.27
  10 -10  10    4.38    0.30
  11 -10  10    9.49    0.47
  11 -10  10    8.82    0.43
  11 -10  10    9.83    0.47
  12 -10  10    0.11    0.11
  12 -10  10    0.18    0.13
  12 -10  10    0.22    0.13
  13 -10  10    0.81    0.19
  13 -10  10    0.89    0.17
  13 -10  10    1.13    0.20
  14 -10  10    2.07    0.25
  14 -10  10    2.01    0.27
  15 -10  10    0.13    0.14
  15 -10  10    0.23    0.18
  -8  -9  10    0.27    0.08
  -7  -9  10    2.19    0.15
  -6  -9  10    8.72    0.34
  -5  -9  10    1.65    0.11
  -4  -9  10   19.70    0.63
  -2  -9  10    0.52    0.11
  -1  -9  10    0.83    0.14
  -1  -9  10    1.45    0.17
  -1  -9  10    1.01    0.14
   0  -9  10   30.06    1.01
   0  -9  10   28.98    1.01
   0  -9  10   29.71    1.00
   0  -9  10   30.99    0.94
   1  -9  10    0.60    0.06
   1  -9  10    0.72    0.12
   1  -9  10    0.76    0.13
   1  -9  10    0.62    0.12
   2  -9  10    9.39    0.41
   2  -9  10    9.62    0.43
   2  -9  10   10.82    0.43
   2  -9  10   10.28    0.36
   3  -9  10    3.19    0.22
   3  -9  10    2.82    0.20
   3  -9  10    2.77    0.20
   3  -9  10    2.78    0.16
  -4   9 -10    8.52    0.32
   4  -9  10    8.78    0.38
   4  -9  10    8.20    0.37
   4  -9  10    9.28    0.40
   4  -9  10    9.10    0.35
  -5   9 -10    1.18    0.11
   5  -9  10    1.33    0.15
   5  -9  10    1.42    0.17
   5  -9  10    1.26    0.15
   5  -9  10    1.23    0.13
  -6   9 -10    8.87    0.34
   6  -9  10    8.64    0.37
   6  -9  10    7.30    0.36
   6  -9  10    8.05    0.37
   6  -9  10    7.56    0.35
  -7   9 -10    1.13    0.13
   7  -9  10    1.24    0.16
   7  -9  10    1.41    0.15
   7  -9  10    1.03    0.15
   7  -9  10    0.98    0.14
  -8   9 -10    6.53    0.32
   8  -9  10    7.00    0.35
   8  -9  10    6.95    0.35
   8  -9  10    7.00    0.34
   9  -9  10    7.54    0.36
   9  -9  10    6.90    0.34
   9  -9  10    7.25    0.37
  10  -9  10    1.50    0.19
  10  -9  10    2.10    0.20
  10  -9  10    1.98    0.22
  11  -9  10    1.57    0.20
  11  -9  10    1.45    0.17
  11  -9  10    1.60    0.21
  12  -9  10    0.20    0.10
  12  -9  10    0.28    0.13
  12  -9  10    0.07    0.13
  13  -9  10    4.98    0.30
  13  -9  10    4.77    0.34
  13  -9  10    4.89    0.34
  14  -9  10    0.66    0.17
  14  -9  10    0.10    0.16
  15  -9  10    0.21    0.17
  15  -9  10    0.44    0.17
  -9  -8  10    0.22    0.09
  -8  -8  10    5.22    0.26
  -7  -8  10   11.72    0.44
  -6  -8  10   -0.04    0.05
  -5  -8  10    0.50    0.07
  -4  -8  10   10.18    0.35
  -3  -8  10   21.20    0.73
  -2  -8  10    1.22    0.15
  -2  -8  10    1.11    0.14
  -1  -8  10    6.26    0.31
  -1  -8  10    6.30    0.29
  -1  -8  10    6.04    0.31
   0  -8  10    1.03    0.13
   0  -8  10    0.87    0.12
   0  -8  10    0.98    0.07
   0  -8  10    1.19    0.15
   1  -8  10   37.64    1.21
   1  -8  10   37.14    1.20
   1  -8  10   38.74    1.21
   1  -8  10   38.21    1.20
   2  -8  10    4.87    0.25
   2  -8  10    4.82    0.21
   2  -8  10    4.69    0.25
   2  -8  10    4.69    0.26
  -3   8 -10   51.63    1.55
   3  -8  10   48.22    1.53
   3  -8  10   50.09    1.52
   3  -8  10   49.49    1.54
   3  -8  10   48.47    1.58
  -4   8 -10   17.73    0.58
   4  -8  10   17.45    0.61
   4  -8  10   16.28    0.60
   4  -8  10   17.47    0.60
   4  -8  10   16.25    0.61
  -5   8 -10   15.05    0.54
   5  -8  10   14.71    0.56
   5  -8  10   14.93    0.56
   5  -8  10   16.63    0.57
   5  -8  10   14.87    0.55
  -6   8 -10    6.35    0.29
   6  -8  10    6.18    0.30
   6  -8  10    6.43    0.31
   6  -8  10    5.93    0.29
   6  -8  10    6.48    0.31
  -7   8 -10    0.14    0.07
   7  -8  10    0.16    0.08
   7  -8  10    0.26    0.09
   7  -8  10    0.23    0.09
   7  -8  10    0.28    0.10
  -8   8 -10   30.93    1.07
   8  -8  10   31.80    1.03
   8  -8  10   30.40    1.02
   8  -8  10   29.83    1.03
   8  -8  10   32.00    1.10
  -9   8 -10   25.19    0.92
   9  -8  10   25.64    0.87
   9  -8  10   24.38    0.88
   9  -8  10   26.80    0.90
  10  -8  10   16.83    0.67
  10  -8  10   17.79    0.68
  10  -8  10   18.81    0.66
  11  -8  10   12.61    0.51
  11  -8  10   12.94    0.54
  11  -8  10   12.34    0.55
  12  -8  10    2.31    0.25
  12  -8  10    2.28    0.20
  12  -8  10    2.11    0.23
  13  -8  10    0.16    0.11
  13  -8  10    0.12    0.13
  13  -8  10    0.04    0.13
  14  -8  10    2.50    0.28
  14  -8  10    2.66    0.27
  15  -8  10   -0.20    0.13
  15  -8  10   -0.19    0.09
 -10  -7  10    6.18    0.32
  -9  -7  10    0.15    0.08
  -8  -7  10   16.96    0.62
  -7  -7  10    1.49    0.13
  -6  -7  10    0.12    0.06
  -5  -7  10   47.51    1.50
  -4  -7  10   11.46    0.40
  -4  -7  10   12.14    0.45
  -3  -7  10    3.42    0.14
  -3  -7  10    3.32    0.20
  -2  -7  10    1.94    0.09
  -2  -7  10    2.10    0.17
  -2  -7  10    1.80    0.15
  -1  -7  10   46.44    1.40
  -1  -7  10   45.18    1.40
  -1  -7  10   44.16    1.40
   0  -7  10   31.09    1.00
   0  -7  10   32.30    1.01
   0  -7  10   31.61    1.00
   0  -7  10   30.41    1.00
  -1   7 -10    0.51    0.08
   1  -7  10    0.34    0.08
   1  -7  10    0.40    0.08
   1  -7  10    0.40    0.06
   1  -7  10    0.45    0.08
  -2   7 -10    0.20    0.06
   2  -7  10    0.30    0.08
   2  -7  10    0.23    0.07
   2  -7  10    0.18    0.05
   2  -7  10    0.30    0.09
  -3   7 -10    0.30    0.07
  -3   7 -10    0.47    0.06
   3  -7  10    0.36    0.08
   3  -7  10    0.44    0.09
   3  -7  10    0.40    0.08
   3  -7  10    0.40    0.07
  -4   7 -10    5.69    0.24
   4  -7  10    5.68    0.27
   4  -7  10    5.09    0.25
   4  -7  10    5.82    0.27
   4  -7  10    6.03    0.26
  -5   7 -10    3.14    0.17
   5  -7  10    3.16    0.19
   5  -7  10    3.62    0.20
   5  -7  10    2.99    0.19
   5  -7  10    3.34    0.20
  -6   7 -10    2.78    0.18
   6  -7  10    2.64    0.18
   6  -7  10    3.09    0.19
   6  -7  10    3.04    0.20
   6  -7  10    2.85    0.20
  -7   7 -10    0.51    0.09
   7  -7  10    0.55    0.11
   7  -7  10    0.69    0.12
   7  -7  10    0.81    0.13
   7  -7  10    0.53    0.11
  -8   7 -10    5.45    0.28
   8  -7  10    5.01    0.27
   8  -7  10    5.10    0.30
   8  -7  10    5.16    0.27
   8  -7  10    5.16    0.28
  -9   7 -10   15.01    0.59
   9  -7  10   13.36    0.56
   9  -7  10   14.87    0.57
   9  -7  10   14.49    0.54
 -10   7 -10    0.18    0.10
  10  -7  10    0.23    0.09
  10  -7  10    0.03    0.11
  10  -7  10   -0.02    0.09
  11  -7  10    9.52    0.46
  11  -7  10    9.82    0.41
  11  -7  10    9.20    0.44
  12  -7  10    1.28    0.20
  12  -7  10    1.54    0.17
  12  -7  10    1.21    0.19
  13  -7  10    6.45    0.37
  13  -7  10    6.27    0.40
  14  -7  10    0.54    0.18
  14  -7  10    0.30    0.14
  15  -7  10   -0.18    0.12
  15  -7  10    0.03    0.13
 -11  -6  10    6.51    0.35
 -10  -6  10    4.91    0.29
  -9  -6  10    6.96    0.33
  -8  -6  10    0.31    0.09
  -7  -6  10   13.58    0.51
  -6  -6  10    8.78    0.34
  -5  -6  10   38.96    1.22
  -5  -6  10   39.60    1.26
  -4  -6  10    0.33    0.08
  -4  -6  10    0.31    0.06
  -3  -6  10    1.66    0.09
  -3  -6  10    1.64    0.13
  -2  -6  10    0.57    0.09
  -2  -6  10    0.57    0.06
  -2  -6  10    0.60    0.10
   1   6 -10   -0.04    0.04
  -1  -6  10    0.02    0.05
  -1  -6  10   -0.01    0.05
  -1  -6  10    0.01    0.03
  -1  -6  10    0.03    0.05
   0   6 -10   12.63    0.43
   0  -6  10   12.50    0.44
   0  -6  10   12.84    0.43
   0  -6  10   12.59    0.45
   0  -6  10   11.57    0.44
  -1   6 -10   19.45    0.60
  -1   6 -10   19.28    0.61
   1  -6  10   19.45    0.64
   1  -6  10   19.41    0.64
   1  -6  10   18.51    0.64
   1  -6  10   18.99    0.62
  -2   6 -10    0.33    0.04
  -2   6 -10    0.32    0.06
   2  -6  10    0.31    0.07
   2  -6  10    0.28    0.06
   2  -6  10    0.20    0.07
   2  -6  10    0.43    0.09
  -3   6 -10    4.87    0.20
  -3   6 -10    5.01    0.21
   3  -6  10    4.69    0.22
   3  -6  10    4.67    0.23
   3  -6  10    4.74    0.23
   3  -6  10    4.44    0.21
  -4   6 -10   15.12    0.49
  -4   6 -10   14.19    0.51
   4  -6  10   14.15    0.53
   4  -6  10   13.97    0.49
   4  -6  10   14.09    0.51
   4  -6  10   15.23    0.52
  -5   6 -10    0.12    0.05
   5  -6  10    0.06    0.06
   5  -6  10   -0.01    0.06
   5  -6  10    0.04    0.07
   5  -6  10    0.01    0.05
  -6   6 -10   22.58    0.82
   6  -6  10   24.39    0.80
   6  -6  10   22.89    0.79
   6  -6  10   24.96    0.86
   6  -6  10   24.58    0.79
  -7   6 -10   39.85    1.38
   7  -6  10   42.92    1.42
   7  -6  10   42.18    1.31
   7  -6  10   43.11    1.32
   7  -6  10   40.49    1.30
  -8   6 -10    0.62    0.11
   8  -6  10    0.47    0.11
   8  -6  10    0.63    0.12
   8  -6  10    0.66    0.11
   8  -6  10    0.63    0.12
  -9   6 -10   24.04    0.90
   9  -6  10   24.88    0.86
   9  -6  10   24.65    0.86
   9  -6  10   25.70    0.83
 -10   6 -10    0.20    0.11
  10  -6  10    0.35    0.13
  10  -6  10    0.22    0.11
  10  -6  10    0.21    0.09
 -11   6 -10   12.79    0.56
  11  -6  10   12.78    0.54
  11  -6  10   12.01    0.52
  11  -6  10   12.36    0.48
  12  -6  10    2.23    0.19
  12  -6  10    2.18    0.24
  12  -6  10    2.17    0.25
  13  -6  10    1.33    0.21
  13  -6  10    1.11    0.21
  14  -6  10    1.33    0.20
  14  -6  10    1.97    0.26
 -11  -5  10    0.24    0.10
 -10  -5  10    0.84    0.14
  -9  -5  10    0.41    0.10
  -8  -5  10   43.81    1.44
  -7  -5  10    0.17    0.07
  -6  -5  10    2.73    0.16
   5   5 -10    6.32    0.26
  -5  -5  10    6.26    0.26
  -5  -5  10    6.48    0.26
   4   5 -10   12.46    0.43
  -4  -5  10   12.65    0.44
  -4  -5  10   12.95    0.44
   3   5 -10   12.07    0.44
   3   5 -10   12.47    0.41
  -3  -5  10   11.98    0.43
  -3  -5  10   11.79    0.42
  -3  -5  10   11.99    0.42
   2   5 -10   12.38    0.43
   2   5 -10   12.45    0.41
  -2  -5  10   12.14    0.43
  -2  -5  10   11.95    0.43
  -2  -5  10   12.21    0.42
   1   5 -10    7.91    0.28
   1   5 -10    7.34    0.28
  -1  -5  10    7.27    0.29
  -1  -5  10    7.24    0.29
  -1  -5  10    7.39    0.28
  -1  -5  10    7.47    0.28
   0   5 -10   13.99    0.46
   0   5 -10   15.29    0.48
   0   5 -10   14.33    0.46
   0  -5  10   14.00    0.49
   0  -5  10   14.29    0.48
   0  -5  10   14.52    0.50
   0  -5  10   15.15    0.49
  -1   5 -10    0.58    0.06
  -1   5 -10    0.56    0.08
  -1   5 -10    0.62    0.06
   1  -5  10    0.49    0.07
   1  -5  10    0.50    0.08
   1  -5  10    0.60    0.07
   1  -5  10    0.53    0.07
  -2   5 -10  118.11    3.44
  -2   5 -10  120.90    3.70
   2  -5  10  124.04    3.73
   2  -5  10  118.71    3.51
   2  -5  10  118.97    3.44
   2  -5  10  118.80    3.48
  -3   5 -10    9.30    0.32
  -3   5 -10    8.80    0.34
   3  -5  10    9.13    0.32
   3  -5  10    8.76    0.34
   3  -5  10    8.45    0.34
   3  -5  10    9.08    0.36
  -4   5 -10    5.62    0.24
   4  -5  10    5.66    0.25
   4  -5  10    5.30    0.26
   4  -5  10    5.48    0.25
   4  -5  10    5.06    0.22
  -5   5 -10    4.32    0.22
   5  -5  10    4.92    0.22
   5  -5  10    4.61    0.22
   5  -5  10    4.32    0.22
   5  -5  10    4.72    0.25
  -6   5 -10   15.11    0.56
   6  -5  10   15.06    0.58
   6  -5  10   13.99    0.52
   6  -5  10   14.90    0.52
   6  -5  10   14.65    0.53
  -7   5 -10    7.53    0.34
   7  -5  10    6.86    0.32
   7  -5  10    6.79    0.33
   7  -5  10    7.55    0.31
  -8   5 -10    0.23    0.08
   8  -5  10    0.11    0.10
   8  -5  10    0.28    0.08
   8  -5  10    0.29    0.09
   8  -5  10    0.12    0.09
  -9   5 -10   11.72    0.50
   9  -5  10   11.36    0.44
   9  -5  10   10.70    0.47
   9  -5  10   11.15    0.47
 -10   5 -10    0.46    0.12
  10  -5  10    0.64    0.15
  10  -5  10    0.51    0.10
  10  -5  10    0.65    0.14
 -11   5 -10    7.50    0.40
  11  -5  10    7.20    0.33
  11  -5  10    7.28    0.39
  11  -5  10    8.28    0.40
 -12   5 -10    3.01    0.30
  12  -5  10    3.49    0.29
  12  -5  10    2.81    0.27
  13  -5  10    4.18    0.32
  13  -5  10    3.87    0.31
  14  -5  10    1.39    0.24
  14  -5  10    1.43    0.22
 -12  -4  10    4.01    0.29
 -11  -4  10    1.64    0.19
 -10  -4  10    1.58    0.17
  -9  -4  10    8.19    0.37
  -8  -4  10    4.48    0.25
  -7  -4  10    1.16    0.13
   6   4 -10   16.06    0.52
  -6  -4  10   16.07    0.57
  -6  -4  10   15.52    0.52
   5   4 -10    0.52    0.07
  -5  -4  10    0.49    0.07
  -5  -4  10    0.51    0.07
   4   4 -10    1.46    0.14
   4   4 -10    1.45    0.10
  -4  -4  10    1.62    0.11
  -4  -4  10    1.42    0.11
   3   4 -10   -0.01    0.04
   3   4 -10    0.07    0.04
  -3  -4  10    0.07    0.04
  -3  -4  10    0.06    0.05
  -3  -4  10    0.04    0.04
   2   4 -10    5.23    0.22
   2   4 -10    5.52    0.19
   2   4 -10    5.53    0.21
  -2  -4  10    5.56    0.23
  -2  -4  10    5.79    0.23
  -2  -4  10    5.60    0.22
   1   4 -10    0.03    0.03
   1   4 -10    0.07    0.04
   1   4 -10    0.02    0.03
  -1  -4  10    0.08    0.04
  -1  -4  10    0.07    0.05
  -1  -4  10    0.04    0.04
   0   4 -10   18.03    0.54
   0   4 -10   18.67    0.57
   0   4 -10   18.25    0.59
   0  -4  10   17.55    0.55
   0  -4  10   17.06    0.57
   0  -4  10   17.99    0.62
  -1   4 -10    1.25    0.09
  -1   4 -10    1.25    0.07
  -1   4 -10    1.08    0.09
   1  -4  10    0.93    0.09
   1  -4  10    1.05    0.10
   1  -4  10    1.25    0.08
  -2   4 -10   15.07    0.51
  -2   4 -10   14.76    0.49
   2  -4  10   13.86    0.53
   2  -4  10   14.27    0.46
   2  -4  10   15.38    0.50
  -3   4 -10    2.42    0.15
   3  -4  10    2.29    0.14
   3  -4  10    2.52    0.13
   3  -4  10    2.23    0.16
  -4   4 -10   19.70    0.70
   4  -4  10   20.73    0.72
   4  -4  10   19.79    0.64
   4  -4  10   19.76    0.66
  -5   4 -10   12.09    0.48
   5  -4  10   13.02    0.47
   5  -4  10   12.72    0.45
   5  -4  10   13.08    0.51
  -6   4 -10    3.15    0.20
   6  -4  10    3.24    0.20
   6  -4  10    3.12    0.19
  -7   4 -10   44.55    1.51
   7  -4  10   44.39    1.54
   7  -4  10   47.02    1.43
   7  -4  10   45.97    1.41
  -8   4 -10    8.01    0.38
   8  -4  10    8.79    0.39
   8  -4  10    7.87    0.36
  -9   4 -10    3.34    0.25
   9  -4  10    3.21    0.20
   9  -4  10    3.72    0.26
   9  -4  10    3.78    0.25
 -10   4 -10   13.10    0.55
  10  -4  10   12.32    0.47
  10  -4  10   12.12    0.52
  10  -4  10   11.88    0.51
 -11   4 -10    0.06    0.10
  11  -4  10    0.11    0.08
  11  -4  10    0.27    0.13
  11  -4  10    0.18    0.12
 -12   4 -10   -0.04    0.10
  12  -4  10   -0.14    0.10
  12  -4  10    0.10    0.13
  13  -4  10    0.19    0.12
  13  -4  10    0.20    0.15
  14  -4  10    2.50    0.27
  14  -4  10    2.55    0.30
 -13  -3  10    0.32    0.13
 -12  -3  10    0.17    0.11
 -11  -3  10    0.93    0.15
 -10  -3  10    2.36    0.21
  -9  -3  10    8.26    0.38
   8   3 -10    0.07    0.05
  -8  -3  10    0.09    0.07
   7   3 -10   52.24    1.54
  -7  -3  10   50.98    1.69
  -7  -3  10   53.58    1.54
   6   3 -10   12.98    0.42
  -6  -3  10   13.44    0.43
  -6  -3  10   12.79    0.48
   5   3 -10    0.04    0.03
  -5  -3  10    0.05    0.04
  -5  -3  10   -0.02    0.05
   4   3 -10    2.10    0.10
   4   3 -10    2.38    0.14
  -4  -3  10    2.05    0.13
  -4  -3  10    2.16    0.12
   3   3 -10   24.06    0.71
   3   3 -10   23.71    0.78
   3   3 -10   23.78    0.74
  -3  -3  10   24.33    0.72
  -3  -3  10   22.77    0.79
   2   3 -10   11.84    0.38
   2   3 -10   11.90    0.39
   2   3 -10   12.46    0.43
  -2  -3  10   12.32    0.39
  -2  -3  10   12.52    0.44
   1   3 -10    0.53    0.07
   1   3 -10    0.54    0.06
   1   3 -10    0.54    0.04
  -1  -3  10    0.44    0.07
  -1  -3  10    0.55    0.06
   0   3 -10    0.73    0.07
   0   3 -10    0.72    0.04
   0   3 -10    0.91    0.09
   0  -3  10    0.68    0.09
   0  -3  10    0.81    0.08
   0  -3  10    0.76    0.05
  -1   3 -10    7.98    0.29
  -1   3 -10    7.69    0.31
   1  -3  10    7.88    0.25
   1  -3  10    7.92    0.33
   1  -3  10    8.09    0.29
  -2   3 -10    0.30    0.06
  -2   3 -10    0.38    0.07
   2  -3  10    0.34    0.05
   2  -3  10    0.40    0.08
   2  -3  10    0.24    0.06
  -3   3 -10    2.48    0.15
   3  -3  10    1.94    0.14
   3  -3  10    2.00    0.16
   3  -3  10    2.11    0.12
  -4   3 -10   33.29    1.04
   4  -3  10   30.13    0.94
   4  -3  10   30.00    0.96
   4  -3  10   29.28    1.05
  -5   3 -10   15.77    0.59
   5  -3  10   15.30    0.55
   5  -3  10   16.13    0.61
  -6   3 -10   31.06    1.09
   6  -3  10   32.83    1.12
   6  -3  10   31.31    1.02
  -7   3 -10   45.04    1.55
   7  -3  10   48.01    1.46
  -8   3 -10   21.68    0.80
   8  -3  10   20.81    0.75
  -9   3 -10   21.83    0.83
   9  -3  10   22.36    0.80
 -10   3 -10    0.32    0.12
  10  -3  10    0.51    0.13
 -11   3 -10   12.95    0.59
  11  -3  10   12.91    0.56
  11  -3  10   13.51    0.49
 -12   3 -10    1.18    0.19
  12  -3  10    1.08    0.17
  12  -3  10    1.36    0.21
 -13   3 -10    0.24    0.14
  13  -3  10    0.50    0.15
  13  -3  10    0.52    0.18
  14  -3  10    3.33    0.32
  14  -3  10    2.83    0.33
 -13  -2  10    0.51    0.14
 -12  -2  10    1.42    0.19
 -11  -2  10    6.44    0.36
 -10  -2  10    0.09    0.09
  -9  -2  10    4.25    0.25
   8   2 -10    0.30    0.05
  -8  -2  10    0.27    0.04
  -8  -2  10    0.10    0.08
   7   2 -10    4.99    0.18
   7   2 -10    5.02    0.18
  -7  -2  10    4.92    0.26
  -7  -2  10    5.41    0.19
   6   2 -10    2.92    0.11
  -6  -2  10    3.17    0.14
  -6  -2  10    2.93    0.18
   5   2 -10   56.62    1.57
  -5  -2  10   53.48    1.76
   4   2 -10   14.19    0.42
  -4  -2  10   14.37    0.52
   3   2 -10    0.05    0.04
   3   2 -10    0.20    0.03
  -3  -2  10    0.08    0.03
  -3  -2  10    0.01    0.05
   2   2 -10    3.86    0.14
   2   2 -10    3.69    0.14
   2   2 -10    3.83    0.19
  -2  -2  10    4.01    0.15
  -2  -2  10    3.54    0.19
   1   2 -10    7.89    0.32
   1   2 -10    8.31    0.27
  -1  -2  10    7.70    0.27
  -1  -2  10    7.43    0.32
   0   2 -10   27.43    0.92
   0   2 -10   27.86    0.84
   0   2 -10   28.08    0.92
   0  -2  10   26.61    0.83
  -1   2 -10    5.41    0.22
  -1   2 -10    5.24    0.25
  -1   2 -10    5.53    0.25
   1  -2  10    5.45    0.22
   1  -2  10    5.47    0.26
   1  -2  10    5.62    0.18
  -2   2 -10    7.87    0.33
   2  -2  10    8.21    0.35
   2  -2  10    7.65    0.30
  -3   2 -10   59.57    1.98
   3  -2  10   61.80    1.84
   3  -2  10   64.05    2.01
  -4   2 -10    2.37    0.17
   4  -2  10    2.81    0.20
   4  -2  10    2.59    0.17
  -5   2 -10    0.59    0.11
   5  -2  10    0.42    0.11
   5  -2  10    0.50    0.10
  -6   2 -10    2.48    0.19
   6  -2  10    2.70    0.19
  -7   2 -10   16.93    0.65
   7  -2  10   16.50    0.62
  -8   2 -10   38.78    1.34
   8  -2  10   38.33    1.25
  -9   2 -10    7.13    0.38
   9  -2  10    7.22    0.36
 -10   2 -10    7.73    0.40
  10  -2  10    7.57    0.39
 -11   2 -10   15.36    0.66
  11  -2  10   15.27    0.63
 -12   2 -10    4.25    0.32
  12  -2  10    3.73    0.29
 -13   2 -10   -0.04    0.12
  13  -2  10   -0.18    0.11
  14   1 -10    7.65    0.45
 -14  -1  10    7.28    0.44
  13   1 -10    7.02    0.41
 -13  -1  10    6.83    0.40
 -12  -1  10    2.74    0.25
 -11  -1  10    7.88    0.40
 -10  -1  10    7.10    0.37
  -9  -1  10    0.98    0.14
  -8  -1  10   17.90    0.54
  -8  -1  10   17.56    0.66
  -7  -1  10   60.12    1.94
  -6  -1  10    0.36    0.08
  -5  -1  10    0.64    0.09
   4   1 -10   72.62    2.09
  -4  -1  10   71.81    2.29
   3   1 -10  128.85    3.69
  -3  -1  10  131.76    3.68
  -3  -1  10  128.19    4.04
   2   1 -10   24.93    0.70
  -2  -1  10   24.47    0.72
  -2  -1  10   23.19    0.83
   1   1 -10    4.79    0.23
   1   1 -10    4.98    0.24
  -1  -1  10    5.33    0.19
  -1  -1  10    4.57    0.24
   0   1 -10   26.23    0.87
   0   1 -10   24.34    0.87
   0  -1  10   24.94    0.78
   0  -1  10   25.95    0.73
  -1   1 -10   76.56    2.48
  -1   1 -10   76.31    2.48
   1  -1  10   78.13    2.25
   1  -1  10   80.52    2.50
   1  -1  10   79.43    2.29
  -2   1 -10    6.57    0.30
   2  -1  10    6.28    0.26
   2  -1  10    6.44    0.31
  -3   1 -10   32.71    1.10
   3  -1  10   32.02    1.12
   3  -1  10   32.06    1.01
  -4   1 -10    0.44    0.09
   4  -1  10    0.60    0.11
   4  -1  10    0.51    0.10
  -5   1 -10    0.38    0.09
   5  -1  10    0.47    0.10
  -6   1 -10   -0.04    0.08
   6  -1  10    0.15    0.09
  -7   1 -10    0.08    0.10
   7  -1  10    0.17    0.09
  -8   1 -10    2.94    0.23
   8  -1  10    3.02    0.23
  -9   1 -10    2.66    0.24
   9  -1  10    3.22    0.24
 -10   1 -10    0.89    0.16
  10  -1  10    0.87    0.17
 -11   1 -10    1.29    0.19
  11  -1  10    1.42    0.20
 -12   1 -10    0.03    0.12
  12  -1  10   -0.16    0.09
 -13   1 -10   -0.15    0.11
  13  -1  10    0.24    0.13
  14   0 -10    0.25    0.15
 -14   0  10    0.14    0.12
  13   0 -10    1.57    0.22
 -13   0  10    1.45    0.20
  12   0 -10    6.46    0.38
 -12   0  10    7.69    0.41
  11   0 -10    2.19    0.22
 -11   0  10    2.58    0.24
  10   0 -10    6.79    0.35
 -10   0  10    7.53    0.38
   9   0 -10    5.53    0.28
  -9   0  10    5.40    0.31
   8   0 -10    0.12    0.08
  -8   0  10    0.07    0.08
   7   0 -10    4.84    0.23
  -7   0  10    4.48    0.25
   6   0 -10    3.30    0.17
  -6   0  10    3.18    0.20
   5   0 -10    2.06    0.12
  -5   0  10    1.58    0.14
   4   0 -10    7.28    0.26
  -4   0  10    7.60    0.33
   3   0 -10    0.81    0.06
  -3   0  10    0.85    0.11
  -3   0  10    0.79    0.05
   2   0 -10   22.61    0.65
  -2   0  10   21.58    0.78
  -2   0  10   22.59    0.67
   1   0 -10    7.47    0.32
   1   0 -10    7.79    0.33
  -1   0  10    7.58    0.33
  -1   0  10    7.36    0.27
  -1   0  10    7.36    0.23
   0   0 -10    5.47    0.27
   0   0 -10    5.73    0.28
   0   0  10    5.69    0.20
   0   0  10    5.75    0.23
  -1   0 -10   11.34    0.45
  -1   0 -10   10.45    0.44
   1   0  10   11.03    0.40
   1   0  10   11.39    0.37
  -2   0 -10   34.26    1.11
   2   0  10   33.99    1.02
   2   0  10   28.93    1.11
  -3   0 -10    8.16    0.38
   3   0  10    8.51    0.34
   3   0  10    8.56    0.39
  -4   0 -10   10.18    0.43
   4   0  10    9.68    0.40
  -5   0 -10    2.85    0.21
   5   0  10    3.10    0.20
  -6   0 -10    3.91    0.26
   6   0  10    3.61    0.23
  -7   0 -10    4.53    0.29
   7   0  10    4.55    0.29
  -8   0 -10    0.06    0.10
   8   0  10    0.06    0.09
  -9   0 -10    5.90    0.36
   9   0  10    6.41    0.35
 -10   0 -10    3.28    0.28
  10   0  10    3.25    0.26
 -11   0 -10    7.26    0.42
  11   0  10    6.81    0.40
 -12   0 -10    1.70    0.24
  12   0  10    1.69    0.24
  14  -1 -10   12.45    0.59
 -14   1  10   13.28    0.63
  13  -1 -10    5.77    0.36
 -13   1  10    5.88    0.38
  12  -1 -10    3.96    0.28
 -12   1  10    4.16    0.30
  11  -1 -10    0.32    0.11
 -11   1  10    0.37    0.12
  10  -1 -10   25.66    0.87
 -10   1  10   24.97    0.93
   9  -1 -10    1.33    0.15
  -9   1  10    1.46    0.17
   8  -1 -10    0.84    0.12
  -8   1  10    0.92    0.13
   7  -1 -10    4.89    0.23
  -7   1  10    4.44    0.25
   6  -1 -10    0.66    0.08
  -6   1  10    0.59    0.10
   5  -1 -10   18.97    0.60
  -5   1  10   19.12    0.69
   4  -1 -10   46.27    1.33
  -4   1  10   45.56    1.31
  -4   1  10   45.34    1.30
  -4   1  10   44.22    1.49
   3  -1 -10    0.13    0.04
  -3   1  10   -0.08    0.06
  -3   1  10    0.00    0.03
   2  -1 -10    0.19    0.07
   2  -1 -10    0.20    0.04
  -2   1  10    0.22    0.04
  -2   1  10    0.18    0.07
   1  -1 -10    4.68    0.18
   1  -1 -10    5.23    0.25
  -1   1  10    4.58    0.25
  -1   1  10    4.61    0.18
   0  -1 -10   38.37    1.30
   0   1  10   38.37    1.14
  -1  -1 -10   13.79    0.52
   1   1  10   11.39    0.42
  -2  -1 -10   49.93    1.64
   2   1  10   48.58    1.49
  -3  -1 -10    1.10    0.15
  -4  -1 -10    4.92    0.28
  -5  -1 -10    1.31    0.17
   5   1  10    1.08    0.14
  -6  -1 -10   14.41    0.60
   6   1  10   14.56    0.57
  -7  -1 -10    0.26    0.11
   7   1  10    0.06    0.10
  -8  -1 -10    4.56    0.31
   8   1  10    4.36    0.29
  -9  -1 -10    7.06    0.40
   9   1  10    7.19    0.40
 -10  -1 -10    2.46    0.25
  10   1  10    2.99    0.29
 -11  -1 -10    5.35    0.38
  11   1  10    6.12    0.37
 -12  -1 -10    6.26    0.42
  12   1  10    6.25    0.41
  15  -2 -10    2.82    0.31
 -15   2  10    2.84    0.30
  14  -2 -10    0.54    0.17
 -14   2  10    0.61    0.17
  13  -2 -10    2.90    0.27
 -13   2  10    2.64    0.27
  12  -2 -10    4.81    0.31
 -12   2  10    5.41    0.34
  11  -2 -10    0.44    0.12
 -11   2  10    0.31    0.12
  10  -2 -10   20.00    0.70
 -10   2  10   18.68    0.75
   9  -2 -10    7.88    0.35
  -9   2  10    8.21    0.40
   8  -2 -10   61.20    1.82
  -8   2  10   59.57    1.98
   7  -2 -10    2.89    0.18
  -7   2  10    3.02    0.21
   6  -2 -10    1.30    0.11
  -6   2  10    1.13    0.14
   5  -2 -10    5.81    0.23
  -5   2  10    5.55    0.19
  -5   2  10    5.54    0.29
   4  -2 -10    0.17    0.05
  -4   2  10    0.17    0.08
  -4   2  10    0.17    0.04
  -4   2  10    0.31    0.05
   3  -2 -10   17.39    0.63
   3  -2 -10   17.38    0.54
  -3   2  10   16.36    0.64
  -3   2  10   17.17    0.54
   2  -2 -10    0.07    0.05
   2  -2 -10    0.03    0.05
  -2   2  10   -0.07    0.06
  -2   2  10    0.08    0.04
   1  -2 -10    4.49    0.20
  -1   2  10    4.28    0.25
  -1   2  10    4.36    0.18
   0  -2 -10    1.12    0.14
  -1  -2 -10    3.74    0.25
  -1  -2 -10    3.54    0.23
   1   2  10    3.87    0.20
  -2  -2 -10    4.96    0.28
  -2  -2 -10    4.93    0.29
  -3  -2 -10    3.02    0.23
  -4  -2 -10   28.19    1.02
  -5  -2 -10    2.56    0.23
  -6  -2 -10   17.73    0.72
  -7  -2 -10    6.82    0.39
   7   2  10    7.03    0.38
  -8  -2 -10   -0.01    0.11
   8   2  10    0.18    0.12
  -9  -2 -10    5.85    0.37
   9   2  10    5.57    0.37
 -10  -2 -10    1.10    0.20
  10   2  10    1.38    0.22
 -11  -2 -10    1.50    0.23
  11   2  10    2.04    0.26
  15  -3 -10    1.02    0.20
 -15   3  10    0.52    0.17
  14  -3 -10    6.03    0.38
 -14   3  10    5.74    0.39
  13  -3 -10   -0.05    0.09
 -13   3  10    0.01    0.10
  12  -3 -10   11.90    0.51
 -12   3  10   11.10    0.54
  11  -3 -10    1.61    0.19
 -11   3  10    1.80    0.22
  10  -3 -10    9.68    0.42
 -10   3  10    9.94    0.47
   9  -3 -10   49.75    1.58
  -9   3  10   52.87    1.73
   8  -3 -10   24.82    0.81
  -8   3  10   24.12    0.90
   7  -3 -10   70.11    2.08
  -7   3  10   72.20    2.01
  -7   3  10   67.44    2.28
   6  -3 -10    5.52    0.24
  -6   3  10    5.53    0.19
  -6   3  10    5.80    0.30
   5  -3 -10   54.45    1.62
  -5   3  10   53.78    1.59
  -5   3  10   56.02    1.80
  -5   3  10   54.13    1.62
   4  -3 -10   63.12    1.83
   4  -3 -10   60.82    2.01
  -4   3  10   60.89    2.03
  -4   3  10   63.47    1.83
   3  -3 -10   13.66    0.54
   3  -3 -10   14.35    0.48
  -3   3  10   14.57    0.57
   2  -3 -10    0.13    0.06
   2  -3 -10    0.34    0.07
  -2   3  10    0.04    0.03
  -2   3  10    0.34    0.09
   1  -3 -10    0.74    0.09
  -1   3  10    0.69    0.11
  -1   3  10    0.75    0.09
   0  -3 -10   21.48    0.79
   0  -3 -10   20.68    0.76
   0  -3 -10   19.94    0.68
   0   3  10   20.30    0.68
  -1  -3 -10   26.11    0.95
  -1  -3 -10   25.80    0.94
  -2  -3 -10    8.49    0.41
  -2  -3 -10    8.51    0.40
  -3  -3 -10    2.47    0.22
  -4  -3 -10   23.32    0.89
  -5  -3 -10   13.89    0.60
  -6  -3 -10    1.13    0.18
  -7  -3 -10    0.89    0.16
  -8  -3 -10   10.49    0.53
   8   3  10   10.87    0.51
  -9  -3 -10    6.89    0.43
   9   3  10    7.50    0.42
 -10  -3 -10   -0.01    0.12
  10   3  10    0.27    0.16
  15  -4 -10   -0.11    0.12
 -15   4  10    0.03    0.13
  14  -4 -10   16.67    0.71
 -14   4  10   18.05    0.78
  13  -4 -10   -0.07    0.11
 -13   4  10   -0.13    0.11
  12  -4 -10    2.06    0.22
 -12   4  10    2.01    0.23
  11  -4 -10    5.28    0.31
 -11   4  10    5.64    0.35
  10  -4 -10    0.02    0.09
 -10   4  10    0.23    0.11
   9  -4 -10    0.01    0.08
  -9   4  10    0.12    0.04
  -9   4  10    0.07    0.10
   8  -4 -10    0.07    0.08
  -8   4  10    0.05    0.03
  -8   4  10    0.13    0.09
   7  -4 -10    0.41    0.09
  -7   4  10    0.38    0.05
  -7   4  10    0.42    0.11
   6  -4 -10    4.61    0.22
  -6   4  10    4.47    0.18
  -6   4  10    4.38    0.27
   5  -4 -10   45.25    1.36
  -5   4  10   44.09    1.51
   4  -4 -10    3.08    0.18
   4  -4 -10    2.95    0.20
  -4   4  10    3.21    0.17
  -4   4  10    3.21    0.23
  -4   4  10    3.11    0.17
   3  -4 -10   29.86    0.95
   3  -4 -10   29.86    1.04
  -3   4  10   31.32    1.07
  -3   4  10   29.60    0.93
  -3   4  10   29.66    0.95
   2  -4 -10    1.04    0.12
  -2   4  10    0.86    0.12
  -2   4  10    1.25    0.11
   1  -4 -10   43.16    1.37
   1  -4 -10   45.80    1.50
   0  -4 -10    5.78    0.31
   0  -4 -10    5.71    0.33
   0  -4 -10    6.06    0.29
  -1  -4 -10    5.47    0.33
  -1  -4 -10    5.61    0.31
  -2  -4 -10    2.15    0.20
  -2  -4 -10    2.08    0.21
  -3  -4 -10    1.82    0.21
  -3  -4 -10    2.04    0.22
  -4  -4 -10   13.54    0.60
  -5  -4 -10    0.66    0.15
  -6  -4 -10    8.75    0.46
  -7  -4 -10    0.43    0.15
  -8  -4 -10   -0.05    0.11
  -9  -4 -10    0.17    0.14
   9   4  10    0.12    0.14
 -10  -4 -10    6.15    0.41
  10   4  10    6.88    0.44
  15  -5 -10   -0.23    0.12
 -15   5  10    0.09    0.14
  14  -5 -10    2.22    0.26
 -14   5  10    1.73    0.25
  13  -5 -10    6.96    0.39
 -13   5  10    6.69    0.42
  12  -5 -10    3.59    0.27
 -12   5  10    3.63    0.30
  11  -5 -10   20.34    0.72
 -11   5  10   18.87    0.79
  10  -5 -10   14.31    0.48
  10  -5 -10   14.15    0.56
 -10   5  10   14.25    0.63
   9  -5 -10    9.66    0.42
  -9   5  10   10.14    0.48
   8  -5 -10    1.98    0.17
  -8   5  10    2.08    0.22
   7  -5 -10   -0.01    0.07
  -7   5  10   -0.06    0.03
  -7   5  10    0.00    0.08
   6  -5 -10    2.98    0.20
  -6   5  10    3.52    0.17
  -6   5  10    3.29    0.25
   5  -5 -10    1.52    0.17
   5  -5 -10    1.19    0.13
  -5   5  10    1.18    0.11
  -5   5  10    0.82    0.13
   4  -5 -10   54.05    1.64
   4  -5 -10   54.22    1.78
  -4   5  10   53.50    1.80
   3  -5 -10    1.29    0.14
  -3   5  10    1.13    0.15
   2  -5 -10   35.88    1.13
   2  -5 -10   33.80    1.21
  -2   5  10   35.69    1.23
   1  -5 -10   19.30    0.74
   1  -5 -10   19.25    0.68
   0  -5 -10    1.05    0.15
   0  -5 -10    1.20    0.15
   0  -5 -10    1.11    0.16
  -1  -5 -10    0.14    0.10
  -1  -5 -10    0.26    0.10
  -2  -5 -10    8.10    0.41
  -2  -5 -10    7.77    0.42
  -3  -5 -10    1.82    0.22
  -4  -5 -10   24.71    0.95
  -5  -5 -10    0.74    0.16
  -6  -5 -10    0.96    0.18
  -7  -5 -10    5.18    0.36
  -8  -5 -10    1.84    0.24
  -9  -5 -10   -0.12    0.11
   9   5  10    0.04    0.13
  15  -6 -10    0.50    0.16
 -15   6  10    0.74    0.19
  14  -6 -10    1.81    0.23
 -14   6  10    1.64    0.24
  13  -6 -10    0.47    0.15
 -13   6  10    0.29    0.14
  12  -6 -10    0.54    0.14
 -12   6  10    0.65    0.17
  11  -6 -10    5.02    0.31
 -11   6  10    5.44    0.36
  10  -6 -10    6.92    0.35
  10  -6 -10    6.48    0.28
 -10   6  10    6.68    0.39
   9  -6 -10   15.75    0.61
  -9   6  10   16.78    0.69
   8  -6 -10    4.34    0.26
  -8   6  10    4.77    0.31
  -8   6  10    4.29    0.20
   7  -6 -10   10.65    0.44
  -7   6  10   11.26    0.51
   6  -6 -10   45.11    1.39
  -6   6  10   43.41    1.52
   5  -6 -10   13.09    0.50
   5  -6 -10   13.22    0.54
  -5   6  10   13.44    0.57
   4  -6 -10    0.12    0.08
   4  -6 -10    0.15    0.09
  -4   6  10    0.17    0.09
   3  -6 -10    9.58    0.40
  -3   6  10    9.30    0.44
   2  -6 -10    9.03    0.41
   2  -6 -10    7.68    0.37
   1  -6 -10   14.21    0.56
   1  -6 -10   14.24    0.60
   0  -6 -10    9.62    0.46
   0  -6 -10   10.09    0.49
   0  -6 -10    9.52    0.44
  -1  -6 -10   13.99    0.61
  -1  -6 -10   12.27    0.57
  -2  -6 -10    3.57    0.29
  -3  -6 -10    4.31    0.32
  -4  -6 -10    7.93    0.45
  -5  -6 -10    0.39    0.14
  -6  -6 -10    0.67    0.17
  -7  -6 -10   16.55    0.74
  -8  -6 -10    3.14    0.31
  15  -7 -10    0.31    0.16
  14  -7 -10    2.94    0.29
 -14   7  10    3.69    0.36
  13  -7 -10    2.02    0.24
 -13   7  10    2.53    0.28
  12  -7 -10    5.40    0.34
 -12   7  10    5.55    0.38
  11  -7 -10   18.09    0.70
 -11   7  10   18.48    0.78
  10  -7 -10    0.13    0.11
 -10   7  10    0.28    0.12
   9  -7 -10    1.98    0.21
  -9   7  10    1.79    0.22
   8  -7 -10   16.29    0.62
  -8   7  10   16.26    0.69
   7  -7 -10   12.76    0.52
  -7   7  10   13.72    0.60
   6  -7 -10    7.43    0.36
  -6   7  10    7.61    0.41
   5  -7 -10    0.91    0.14
   5  -7 -10    0.78    0.14
  -5   7  10    0.63    0.15
   4  -7 -10   20.17    0.72
  -4   7  10   19.13    0.77
   3  -7 -10    1.13    0.16
   3  -7 -10    0.71    0.13
  -3   7  10    1.03    0.16
   2  -7 -10    0.33    0.10
   2  -7 -10    0.60    0.13
   1  -7 -10    0.40    0.12
   1  -7 -10    0.34    0.12
   0  -7 -10    1.98    0.21
   0  -7 -10    1.47    0.21
  -1  -7 -10   13.89    0.64
  -2  -7 -10   16.09    0.71
  -3  -7 -10    9.14    0.50
  -4  -7 -10    4.39    0.34
  -5  -7 -10    0.61    0.16
  -6  -7 -10    4.38    0.35
  -7  -7 -10    2.62    0.29
  15  -8 -10    0.02    0.14
  14  -8 -10    0.06    0.14
  13  -8 -10    0.27    0.13
  12  -8 -10    5.15    0.33
 -12   8  10    5.00    0.38
  11  -8 -10    1.58    0.21
 -11   8  10    1.49    0.22
  10  -8 -10    5.69    0.33
 -10   8  10    6.03    0.38
   9  -8 -10    1.30    0.18
  -9   8  10    1.63    0.22
   8  -8 -10   30.43    1.06
  -8   8  10   31.77    1.16
   7  -8 -10   22.64    0.83
  -7   8  10   24.32    0.93
   6  -8 -10    7.61    0.39
  -6   8  10    8.05    0.43
   5  -8 -10    1.59    0.19
  -5   8  10    1.79    0.22
   4  -8 -10    9.98    0.46
  -4   8  10    9.84    0.48
   3  -8 -10   11.87    0.52
  -3   8  10   12.07    0.55
   2  -8 -10    9.40    0.46
   1  -8 -10    6.90    0.38
   0  -8 -10    4.35    0.32
   0  -8 -10    4.52    0.34
  -1  -8 -10   13.03    0.62
  -2  -8 -10    1.43    0.22
  -3  -8 -10    4.85    0.36
  -4  -8 -10    2.17    0.26
  -5  -8 -10    0.02    0.11
  -6  -8 -10    2.00    0.25
  15  -9 -10    0.31    0.17
  14  -9 -10    1.12    0.21
  13  -9 -10    1.63    0.23
  12  -9 -10    0.00    0.10
  11  -9 -10    0.83    0.17
  10  -9 -10    7.45    0.40
   9  -9 -10    2.83    0.27
   8  -9 -10   23.19    0.86
   7  -9 -10   64.66    2.03
   6  -9 -10    2.08    0.24
   5  -9 -10   10.62    0.50
   4  -9 -10    1.45    0.19
   3  -9 -10   18.16    0.73
   2  -9 -10    3.54    0.29
   1  -9 -10    3.51    0.30
   0  -9 -10   14.54    0.69
   0  -9 -10   15.04    0.66
  -1  -9 -10    0.47    0.16
  -2  -9 -10   12.98    0.63
  -3  -9 -10    0.95    0.20
  -4  -9 -10    3.54    0.32
  -5  -9 -10    0.24    0.14
  15 -10 -10    4.49    0.35
  14 -10 -10    0.35    0.16
  13 -10 -10    0.03    0.13
  12 -10 -10   -0.06    0.12
  11 -10 -10    0.39    0.15
  10 -10 -10    1.14    0.20
   9 -10 -10    0.22    0.13
   8 -10 -10    4.59    0.31
   7 -10 -10    6.99    0.40
   6 -10 -10    7.13    0.41
   5 -10 -10   13.88    0.61
   4 -10 -10    3.41    0.28
   3 -10 -10   15.97    0.69
   2 -10 -10    3.62    0.32
   1 -10 -10    6.37    0.43
   1 -10 -10    6.72    0.41
   0 -10 -10    0.41    0.15
   0 -10 -10    0.24    0.15
  -1 -10 -10    5.95    0.41
  -2 -10 -10    1.71    0.25
  -3 -10 -10    4.18    0.36
  -4 -10 -10    0.92    0.20
  14 -11 -10    0.12    0.16
  13 -11 -10    0.15    0.15
  12 -11 -10    4.93    0.36
  11 -11 -10    0.56    0.17
  10 -11 -10    1.27    0.22
   9 -11 -10    0.16    0.14
   8 -11 -10    0.17    0.14
   7 -11 -10    0.05    0.13
   6 -11 -10    0.18    0.15
   5 -11 -10    4.72    0.35
   4 -11 -10    7.26    0.45
   3 -11 -10    0.03    0.12
   2 -11 -10   14.42    0.68
   1 -11 -10    0.77    0.20
   1 -11 -10    1.09    0.22
   0 -11 -10    0.33    0.16
  -1 -11 -10    2.41    0.30
  -2 -11 -10    3.69    0.37
  13 -12 -10    0.78    0.20
  12 -12 -10   -0.22    0.13
  11 -12 -10    0.19    0.15
  10 -12 -10   -0.07    0.13
   9 -12 -10    5.24    0.39
   8 -12 -10    0.83    0.20
   7 -12 -10    3.06    0.33
   6 -12 -10    0.03    0.14
   5 -12 -10    0.63    0.18
   4 -12 -10    0.16    0.15
   3 -12 -10    1.00    0.23
   2 -12 -10    6.60    0.46
   1 -12 -10    0.57    0.18
   1 -12 -10    0.79    0.22
   0 -12 -10   -0.07    0.13
  -1 -12 -10    4.49    0.40
  12 -13 -10   -0.09    0.16
  11 -13 -10    2.13    0.27
  10 -13 -10    2.53    0.31
   9 -13 -10    0.76    0.21
   8 -13 -10   -0.02    0.15
   7 -13 -10    0.58    0.20
   6 -13 -10    3.34    0.36
   5 -13 -10    4.30    0.41
   4 -13 -10   -0.05    0.14
   3 -13 -10    1.65    0.28
   2 -13 -10    3.74    0.39
   2 -13 -10    3.97    0.40
   1 -13 -10    2.44    0.33
   1 -13 -10    2.52    0.32
  11 -14 -10    0.46    0.19
  10 -14 -10    3.76    0.38
   9 -14 -10    3.47    0.38
   8 -14 -10    0.93    0.23
   7 -14 -10    1.79    0.28
   6 -14 -10    0.61    0.21
   5 -14 -10    0.03    0.16
   4 -14 -10    4.92    0.41
   4 -17  11    0.06    0.18
   4 -17  11    0.09    0.17
   5 -17  11    0.05    0.17
   5 -17  11   -0.03    0.16
   6 -17  11    1.61    0.28
   6 -17  11    1.48    0.27
   7 -17  11    0.72    0.23
   7 -17  11    0.64    0.23
   8 -17  11    6.10    0.44
   8 -17  11    6.73    0.49
   9 -17  11    0.57    0.21
   9 -17  11    0.41    0.18
  10 -17  11    3.49    0.38
   1 -16  11    1.65    0.26
   2 -16  11    0.82    0.21
   3 -16  11    2.63    0.33
   3 -16  11    3.24    0.37
   4 -16  11    9.06    0.54
   4 -16  11    9.18    0.56
   5 -16  11   -0.02    0.15
   5 -16  11    0.01    0.16
   6 -16  11    0.31    0.19
   6 -16  11    0.46    0.20
   7 -16  11   -0.15    0.16
   7 -16  11   -0.01    0.13
   8 -16  11    7.08    0.48
   8 -16  11    6.93    0.45
   9 -16  11    3.35    0.36
   9 -16  11    3.51    0.37
  10 -16  11    8.18    0.51
  10 -16  11    9.06    0.53
  11 -16  11    2.88    0.35
  11 -16  11    2.91    0.35
  12 -16  11   -0.34    0.15
  12 -16  11   -0.17    0.18
   0 -15  11    4.70    0.39
   1 -15  11    1.91    0.28
   2 -15  11    2.90    0.33
   2 -15  11    2.83    0.32
   3 -15  11    5.09    0.40
   3 -15  11    5.83    0.43
   4 -15  11    3.81    0.36
   4 -15  11    4.28    0.36
   5 -15  11   -0.02    0.13
   5 -15  11    0.03    0.14
   6 -15  11    0.66    0.20
   6 -15  11    0.26    0.16
   7 -15  11    0.19    0.15
   7 -15  11    0.22    0.17
   8 -15  11    0.25    0.15
   8 -15  11    0.35    0.17
   9 -15  11    6.43    0.46
   9 -15  11    7.25    0.45
  10 -15  11    0.87    0.21
  10 -15  11    0.95    0.23
  11 -15  11    1.30    0.23
  11 -15  11    1.66    0.27
  12 -15  11    4.25    0.37
  12 -15  11    3.94    0.38
  13 -15  11   -0.06    0.14
  13 -15  11   -0.02    0.14
   0 -14  11    5.17    0.39
   1 -14  11    0.64    0.06
   1 -14  11    0.62    0.19
   1 -14  11    0.66    0.19
   2 -14  11    1.95    0.24
   2 -14  11    1.72    0.12
   2 -14  11    1.39    0.23
   3 -14  11    0.14    0.14
   3 -14  11    0.16    0.16
   4 -14  11    3.57    0.34
   4 -14  11    3.79    0.32
   5 -14  11    0.03    0.14
   5 -14  11    0.01    0.13
   6 -14  11   43.22    1.49
   6 -14  11   43.18    1.47
   7 -14  11   -0.23    0.12
   7 -14  11    0.02    0.15
   7 -14  11    0.13    0.13
   8 -14  11    2.19    0.27
   8 -14  11    1.81    0.24
   8 -14  11    1.73    0.24
   9 -14  11    0.33    0.16
   9 -14  11    0.20    0.17
   9 -14  11   -0.36    0.12
  10 -14  11    4.46    0.37
  10 -14  11    4.86    0.34
  10 -14  11    4.28    0.36
  11 -14  11    1.53    0.23
  11 -14  11    1.88    0.26
  11 -14  11    1.76    0.26
  12 -14  11    4.02    0.37
  12 -14  11    3.17    0.33
  13 -14  11   -0.18    0.15
  13 -14  11   -0.08    0.13
  -1 -13  11    1.04    0.20
   0 -13  11    0.02    0.13
   1 -13  11    3.02    0.31
   1 -13  11    3.10    0.14
   1 -13  11    2.92    0.30
   2 -13  11   11.23    0.54
   2 -13  11   10.84    0.39
   2 -13  11   10.57    0.54
   3 -13  11    3.98    0.33
   3 -13  11    4.52    0.33
   3 -13  11    3.74    0.19
   4 -13  11   -0.13    0.05
   4 -13  11    0.11    0.11
   4 -13  11   -0.19    0.10
   4 -13  11    0.13    0.13
   5 -13  11    1.69    0.22
   5 -13  11    1.67    0.22
   5 -13  11    1.41    0.21
   6 -13  11    1.93    0.23
   6 -13  11    1.56    0.22
   6 -13  11    1.29    0.19
   7 -13  11   13.55    0.60
   7 -13  11   12.18    0.57
   7 -13  11   12.47    0.58
   8 -13  11   13.09    0.59
   8 -13  11   12.43    0.58
   8 -13  11   12.75    0.59
   9 -13  11   -0.05    0.12
   9 -13  11    0.12    0.14
   9 -13  11    0.22    0.14
  10 -13  11    1.34    0.22
  10 -13  11    1.15    0.21
  10 -13  11    1.50    0.22
  11 -13  11    1.60    0.23
  11 -13  11    1.72    0.24
  11 -13  11    1.46    0.22
  12 -13  11    0.70    0.18
  12 -13  11    0.69    0.20
  12 -13  11    0.97    0.21
  13 -13  11    2.17    0.26
  13 -13  11    2.05    0.26
  13 -13  11    2.55    0.30
  14 -13  11    0.29    0.19
  14 -13  11    0.22    0.16
  -1 -12  11    3.18    0.30
   0 -12  11   17.97    0.76
   0 -12  11   19.78    0.77
   1 -12  11    0.16    0.12
   1 -12  11    0.10    0.13
   1 -12  11    0.14    0.04
   2 -12  11    8.53    0.43
   2 -12  11    8.24    0.44
   2 -12  11    9.06    0.45
   2 -12  11    8.63    0.32
   3 -12  11    6.22    0.36
   3 -12  11    6.17    0.36
   3 -12  11    5.78    0.26
   3 -12  11    6.53    0.38
   4 -12  11    0.55    0.09
   4 -12  11    0.50    0.13
   4 -12  11    0.37    0.14
   4 -12  11    0.34    0.13
   5 -12  11    1.91    0.22
   5 -12  11    1.66    0.21
   5 -12  11    2.33    0.25
   5 -12  11    2.00    0.15
   6 -12  11    9.60    0.46
   6 -12  11    9.00    0.46
   6 -12  11   10.58    0.48
   7 -12  11    2.76    0.27
   7 -12  11    2.98    0.26
   7 -12  11    2.91    0.26
   8 -12  11    0.16    0.12
   8 -12  11    0.16    0.12
   8 -12  11   -0.06    0.10
   9 -12  11    4.33    0.31
   9 -12  11    4.90    0.31
   9 -12  11    4.48    0.32
  10 -12  11   36.83    1.26
  10 -12  11   37.37    1.28
  10 -12  11   36.55    1.27
  11 -12  11    6.70    0.42
  11 -12  11    6.25    0.38
  11 -12  11    7.60    0.42
  12 -12  11    1.64    0.24
  12 -12  11    1.29    0.21
  12 -12  11    1.72    0.22
  13 -12  11    3.05    0.31
  13 -12  11    2.84    0.31
  13 -12  11    3.13    0.28
  14 -12  11   11.28    0.54
  14 -12  11   10.94    0.56
  14 -12  11   10.02    0.56
  -6 -11  11    1.49    0.11
  -1 -11  11   27.66    0.99
  -1 -11  11   27.39    1.00
   0 -11  11    2.43    0.24
   0 -11  11    2.48    0.25
   0 -11  11    2.16    0.23
   1 -11  11   78.92    2.46
   1 -11  11   81.39    2.47
   1 -11  11   77.77    2.44
   1 -11  11   80.48    2.47
   2 -11  11    1.84    0.21
   2 -11  11    1.49    0.11
   2 -11  11    1.85    0.23
   2 -11  11    1.75    0.20
   3 -11  11    5.42    0.32
   3 -11  11    5.26    0.23
   3 -11  11    4.76    0.30
   3 -11  11    5.02    0.32
   4 -11  11   18.97    0.67
   4 -11  11   19.64    0.73
   4 -11  11   18.95    0.71
   4 -11  11   18.58    0.72
   5 -11  11   -0.09    0.08
   5 -11  11    0.01    0.10
   5 -11  11    0.03    0.05
   5 -11  11   -0.02    0.08
   6 -11  11    4.87    0.31
   6 -11  11    4.37    0.29
   6 -11  11    4.62    0.25
   6 -11  11    4.79    0.30
   7 -11  11    0.21    0.10
   7 -11  11    0.03    0.09
   7 -11  11    0.05    0.10
   8 -11  11    8.70    0.42
   8 -11  11    8.29    0.41
   8 -11  11    9.03    0.43
   9 -11  11   11.38    0.51
   9 -11  11   11.64    0.53
   9 -11  11   11.28    0.51
  10 -11  11    1.32    0.18
  10 -11  11    1.65    0.22
  10 -11  11    1.80    0.22
  11 -11  11    0.70    0.15
  11 -11  11    0.46    0.15
  11 -11  11    0.52    0.15
  12 -11  11    1.54    0.22
  12 -11  11    1.20    0.19
  12 -11  11    1.47    0.22
  13 -11  11    0.95    0.20
  13 -11  11    0.80    0.17
  13 -11  11    0.74    0.18
  14 -11  11    3.08    0.32
  14 -11  11    2.62    0.30
  -7 -10  11    0.11    0.06
  -6 -10  11    1.43    0.11
  -1 -10  11   11.60    0.51
  -1 -10  11   12.18    0.50
  -1 -10  11   11.31    0.51
   0 -10  11    1.83    0.19
   0 -10  11    1.58    0.19
   0 -10  11    1.84    0.20
   0 -10  11    1.57    0.08
   1 -10  11   11.08    0.48
   1 -10  11   10.82    0.47
   1 -10  11   10.91    0.38
   1 -10  11   10.96    0.47
   2 -10  11    6.81    0.35
   2 -10  11    7.15    0.28
   2 -10  11    7.18    0.35
   2 -10  11    7.28    0.37
   3 -10  11    6.90    0.34
   3 -10  11    6.74    0.36
   3 -10  11    6.45    0.33
   3 -10  11    7.26    0.29
   4 -10  11    5.49    0.25
   4 -10  11    5.45    0.30
   4 -10  11    5.43    0.30
   4 -10  11    5.44    0.30
  -5  10 -11    2.32    0.14
   5 -10  11    2.04    0.19
   5 -10  11    1.96    0.16
   5 -10  11    2.39    0.22
   5 -10  11    2.24    0.20
  -6  10 -11   70.93    2.26
   6 -10  11   72.92    2.20
   6 -10  11   72.93    2.19
   6 -10  11   69.49    2.29
   6 -10  11   69.77    2.17
   7 -10  11   17.75    0.65
   7 -10  11   16.01    0.64
   7 -10  11   17.40    0.66
   8 -10  11    0.11    0.10
   8 -10  11    0.09    0.10
   8 -10  11    0.20    0.10
   9 -10  11    6.81    0.36
   9 -10  11    6.41    0.34
   9 -10  11    6.30    0.34
  10 -10  11    0.04    0.10
  10 -10  11   -0.01    0.10
  10 -10  11   -0.03    0.11
  11 -10  11   13.24    0.57
  11 -10  11   13.36    0.57
  11 -10  11   12.84    0.55
  12 -10  11   12.61    0.58
  12 -10  11   12.81    0.56
  12 -10  11   11.74    0.53
  13 -10  11    6.00    0.39
  13 -10  11    5.72    0.39
  13 -10  11    5.32    0.33
  14 -10  11    0.14    0.13
  14 -10  11    0.54    0.17
  15 -10  11    0.16    0.13
  15 -10  11    0.07    0.16
  -8  -9  11    0.23    0.08
  -7  -9  11   11.46    0.43
  -6  -9  11    0.18    0.06
  -5  -9  11    0.57    0.07
  -2  -9  11    2.79    0.23
  -2  -9  11    2.99    0.21
  -1  -9  11    6.19    0.30
  -1  -9  11    5.31    0.31
  -1  -9  11    5.93    0.32
   0  -9  11    0.10    0.04
   0  -9  11    0.29    0.10
   0  -9  11    0.02    0.07
   0  -9  11    0.05    0.08
   1  -9  11   26.31    0.85
   1  -9  11   25.61    0.89
   1  -9  11   26.93    0.89
   1  -9  11   26.09    0.90
   2  -9  11    3.36    0.23
   2  -9  11    3.60    0.22
   2  -9  11    3.38    0.23
   2  -9  11    3.98    0.18
   3  -9  11   64.46    2.01
   3  -9  11   66.57    2.01
   3  -9  11   65.01    1.98
   3  -9  11   65.82    2.07
  -4   9 -11   34.48    1.13
   4  -9  11   35.12    1.13
   4  -9  11   34.78    1.15
   4  -9  11   36.86    1.15
   4  -9  11   34.91    1.16
  -5   9 -11    1.49    0.12
   5  -9  11    1.26    0.16
   5  -9  11    1.06    0.15
   5  -9  11    1.06    0.12
   5  -9  11    1.51    0.16
  -6   9 -11   12.91    0.49
   6  -9  11   12.94    0.53
   6  -9  11   13.72    0.52
   6  -9  11   13.18    0.53
   6  -9  11   13.77    0.53
  -7   9 -11    7.19    0.32
   7  -9  11    7.10    0.35
   7  -9  11    6.98    0.35
   7  -9  11    7.25    0.35
   7  -9  11    6.72    0.34
   8  -9  11   10.56    0.46
   8  -9  11   10.64    0.46
   8  -9  11   11.44    0.47
   9  -9  11   -0.08    0.09
   9  -9  11   -0.08    0.07
   9  -9  11    0.10    0.10
  10  -9  11    0.33    0.11
  10  -9  11    0.25    0.11
  10  -9  11    0.51    0.14
  11  -9  11    4.99    0.29
  11  -9  11    4.26    0.30
  11  -9  11    4.86    0.32
  12  -9  11    5.87    0.37
  12  -9  11    5.78    0.36
  12  -9  11    5.03    0.31
  13  -9  11    3.36    0.30
  13  -9  11    3.66    0.31
  13  -9  11    3.45    0.26
  14  -9  11    7.30    0.45
  14  -9  11    6.62    0.42
  15  -9  11    0.19    0.13
  15  -9  11    0.02    0.15
  -9  -8  11    0.42    0.10
  -8  -8  11    2.57    0.18
  -7  -8  11    0.44    0.09
  -6  -8  11    0.20    0.06
  -5  -8  11    2.03    0.12
  -4  -8  11    9.71    0.34
  -3  -8  11    6.55    0.23
  -3  -8  11    6.03    0.30
  -2  -8  11    6.15    0.31
  -2  -8  11    6.10    0.29
  -1  -8  11    2.77    0.20
  -1  -8  11    2.57    0.19
  -1  -8  11    2.35    0.18
   0  -8  11   16.31    0.58
   0  -8  11   16.09    0.53
   0  -8  11   15.22    0.58
   0  -8  11   15.62    0.57
   1  -8  11    0.00    0.08
   1  -8  11    0.09    0.07
   1  -8  11    0.08    0.04
   1  -8  11    0.07    0.08
   2  -8  11   17.14    0.61
   2  -8  11   16.73    0.60
   2  -8  11   17.55    0.62
   2  -8  11   17.37    0.59
  -3   8 -11   12.31    0.43
   3  -8  11   13.08    0.49
   3  -8  11   13.34    0.47
   3  -8  11   13.15    0.49
   3  -8  11   12.37    0.47
  -4   8 -11   72.28    2.30
   4  -8  11   76.70    2.34
   4  -8  11   69.90    2.22
   4  -8  11   74.44    2.22
   4  -8  11   74.17    2.19
  -5   8 -11   17.28    0.59
   5  -8  11   16.69    0.59
   5  -8  11   16.75    0.61
   5  -8  11   16.33    0.60
   5  -8  11   15.72    0.61
  -6   8 -11  100.89    3.23
   6  -8  11  101.83    3.06
   6  -8  11  101.78    3.08
   6  -8  11  107.55    3.04
   6  -8  11  103.42    3.27
  -7   8 -11   17.35    0.66
   7  -8  11   20.21    0.71
   7  -8  11   18.30    0.66
   7  -8  11   18.46    0.66
   7  -8  11   17.60    0.66
  -8   8 -11   39.22    1.31
   8  -8  11   37.45    1.26
   8  -8  11   39.52    1.25
   8  -8  11   38.90    1.25
   9  -8  11   19.96    0.73
   9  -8  11   18.93    0.70
   9  -8  11   19.67    0.72
  10  -8  11    0.34    0.11
  10  -8  11    0.21    0.12
  10  -8  11    0.16    0.10
  11  -8  11    0.15    0.10
  11  -8  11    0.28    0.12
  11  -8  11    0.21    0.13
  12  -8  11    1.25    0.21
  12  -8  11    1.57    0.18
  12  -8  11    1.22    0.19
  13  -8  11    0.71    0.16
  13  -8  11    0.83    0.19
  14  -8  11    0.77    0.19
  14  -8  11    0.48    0.17
  15  -8  11   -0.18    0.12
  15  -8  11    0.09    0.15
 -10  -7  11    0.21    0.10
  -9  -7  11    0.11    0.09
  -8  -7  11    2.88    0.20
  -7  -7  11    0.05    0.07
  -6  -7  11    0.36    0.07
  -5  -7  11    1.37    0.11
  -4  -7  11   55.63    1.68
  -4  -7  11   54.14    1.72
  -3  -7  11   20.00    0.69
  -3  -7  11   20.16    0.65
  -2  -7  11   19.57    0.67
  -2  -7  11   19.78    0.64
  -2  -7  11   19.97    0.69
  -1  -7  11   34.04    1.11
  -1  -7  11   34.48    1.10
  -1  -7  11   36.36    1.11
   0   7 -11    7.73    0.30
   0  -7  11    7.56    0.32
   0  -7  11    7.35    0.32
   0  -7  11    7.71    0.29
   0  -7  11    7.48    0.32
  -1   7 -11    0.37    0.07
   1  -7  11    0.39    0.06
   1  -7  11    0.26    0.08
   1  -7  11    0.33    0.08
   1  -7  11    0.32    0.08
  -2   7 -11   17.44    0.56
  -2   7 -11   18.07    0.57
   2  -7  11   17.28    0.58
   2  -7  11   16.30    0.59
   2  -7  11   16.36    0.60
   2  -7  11   17.77    0.60
  -3   7 -11   49.59    1.46
  -3   7 -11   47.84    1.54
   3  -7  11   48.84    1.47
   3  -7  11   50.38    1.50
   3  -7  11   49.11    1.57
   3  -7  11   47.46    1.51
  -4   7 -11   12.42    0.44
   4  -7  11   12.01    0.46
   4  -7  11   11.96    0.47
   4  -7  11   12.37    0.47
   4  -7  11   12.33    0.44
  -5   7 -11   20.23    0.71
   5  -7  11   21.21    0.75
   5  -7  11   21.21    0.72
   5  -7  11   20.93    0.69
   5  -7  11   20.22    0.71
  -6   7 -11   10.16    0.41
   6  -7  11    9.98    0.43
   6  -7  11   10.07    0.42
   6  -7  11   10.54    0.40
   6  -7  11    9.62    0.40
  -7   7 -11   17.08    0.63
   7  -7  11   16.65    0.61
   7  -7  11   16.66    0.66
   7  -7  11   16.31    0.62
   7  -7  11   18.40    0.62
  -8   7 -11    0.21    0.09
   8  -7  11    0.30    0.10
   8  -7  11    0.32    0.11
   8  -7  11    0.32    0.10
   8  -7  11    0.25    0.10
  -9   7 -11   34.78    1.19
   9  -7  11   33.96    1.12
   9  -7  11   33.96    1.11
   9  -7  11   33.31    1.13
  10  -7  11    1.13    0.17
  10  -7  11    1.32    0.16
  10  -7  11    1.17    0.17
  11  -7  11   14.30    0.61
  11  -7  11   14.63    0.56
  11  -7  11   14.68    0.60
  12  -7  11    1.55    0.18
  12  -7  11    1.53    0.22
  12  -7  11    1.73    0.21
  13  -7  11   -0.13    0.12
  13  -7  11   -0.07    0.11
  14  -7  11   -0.05    0.14
  14  -7  11   -0.04    0.12
 -11  -6  11    0.41    0.12
 -10  -6  11    0.92    0.14
  -9  -6  11    3.36    0.22
  -8  -6  11    9.22    0.39
  -7  -6  11    1.95    0.15
  -6  -6  11   11.91    0.44
  -5  -6  11    0.28    0.07
  -5  -6  11    0.21    0.08
  -4  -6  11    0.30    0.06
  -4  -6  11    0.26    0.07
  -3  -6  11    9.48    0.37
  -3  -6  11   10.14    0.35
  -3  -6  11    9.24    0.38
   2   6 -11    1.70    0.13
  -2  -6  11    1.43    0.12
  -2  -6  11    1.56    0.10
  -2  -6  11    1.50    0.13
   1   6 -11   14.33    0.48
  -1  -6  11   14.20    0.50
  -1  -6  11   13.94    0.50
  -1  -6  11   13.93    0.49
   0   6 -11    8.20    0.30
   0  -6  11    8.55    0.33
   0  -6  11    7.27    0.31
   0  -6  11    8.02    0.31
   0  -6  11    8.02    0.31
  -1   6 -11   32.91    1.02
  -1   6 -11   33.75    1.06
   1  -6  11   33.33    1.07
   1  -6  11   34.35    1.04
   1  -6  11   34.17    1.11
   1  -6  11   34.99    1.06
  -2   6 -11   23.55    0.75
  -2   6 -11   23.47    0.72
   2  -6  11   22.96    0.73
   2  -6  11   22.88    0.75
   2  -6  11   22.62    0.76
   2  -6  11   23.30    0.79
  -3   6 -11    9.43    0.36
  -3   6 -11    9.98    0.35
   3  -6  11    9.51    0.38
   3  -6  11   10.07    0.38
   3  -6  11    9.44    0.38
   3  -6  11   10.25    0.36
  -4   6 -11   22.89    0.78
  -4   6 -11   23.63    0.74
   4  -6  11   22.73    0.81
   4  -6  11   23.50    0.74
   4  -6  11   24.36    0.78
   4  -6  11   22.63    0.77
  -5   6 -11   18.95    0.69
   5  -6  11   20.65    0.68
   5  -6  11   20.21    0.72
   5  -6  11   19.08    0.67
   5  -6  11   19.84    0.65
  -6   6 -11   10.28    0.43
   6  -6  11   11.29    0.43
   6  -6  11   10.91    0.44
   6  -6  11   11.62    0.47
   6  -6  11   10.89    0.42
  -7   6 -11    0.67    0.11
   7  -6  11    0.83    0.12
   7  -6  11    0.95    0.13
   7  -6  11    0.75    0.12
   7  -6  11    0.84    0.14
  -8   6 -11    4.00    0.25
   8  -6  11    4.73    0.29
   8  -6  11    3.83    0.24
   8  -6  11    4.01    0.23
   8  -6  11    3.94    0.25
  -9   6 -11   28.50    1.05
   9  -6  11   29.79    1.00
   9  -6  11   28.28    0.97
   9  -6  11   31.70    1.01
 -10   6 -11   21.21    0.83
  10  -6  11   21.53    0.79
  10  -6  11   21.72    0.75
  10  -6  11   22.33    0.80
  11  -6  11    0.84    0.16
  11  -6  11    0.77    0.13
  11  -6  11    0.89    0.16
  12  -6  11   40.95    1.39
  12  -6  11   41.88    1.38
  12  -6  11   40.72    1.31
  13  -6  11    3.83    0.30
  13  -6  11    2.84    0.29
  14  -6  11    3.58    0.30
  14  -6  11    3.89    0.33
 -11  -5  11    0.82    0.14
 -10  -5  11    6.08    0.33
  -9  -5  11    0.99    0.14
  -8  -5  11   10.77    0.44
  -7  -5  11   12.28    0.47
  -6  -5  11    9.83    0.39
  -6  -5  11   10.12    0.36
   5   5 -11   58.28    1.73
  -5  -5  11   58.28    1.76
  -5  -5  11   59.20    1.86
   4   5 -11   17.74    0.58
  -4  -5  11   18.08    0.60
  -4  -5  11   18.18    0.61
   3   5 -11    9.65    0.34
   3   5 -11    9.71    0.37
  -3  -5  11    9.67    0.36
  -3  -5  11    9.72    0.35
  -3  -5  11    9.35    0.36
   2   5 -11   19.48    0.61
   2   5 -11   19.15    0.62
  -2  -5  11   19.16    0.63
  -2  -5  11   19.20    0.64
  -2  -5  11   19.24    0.65
   1   5 -11    5.31    0.21
   1   5 -11    5.31    0.22
  -1  -5  11    5.44    0.23
  -1  -5  11    5.71    0.24
  -1  -5  11    5.11    0.22
   0   5 -11   17.07    0.56
   0   5 -11   17.49    0.54
   0   5 -11   17.43    0.56
   0  -5  11   17.82    0.61
   0  -5  11   17.22    0.56
   0  -5  11   17.70    0.59
   0  -5  11   17.89    0.58
  -1   5 -11    0.32    0.05
  -1   5 -11    0.26    0.05
   1  -5  11    0.26    0.07
   1  -5  11    0.38    0.06
   1  -5  11    0.36    0.07
   1  -5  11    0.35    0.07
  -2   5 -11   33.54    1.00
  -2   5 -11   34.01    1.09
   2  -5  11   34.11    1.01
   2  -5  11   34.12    1.05
   2  -5  11   33.35    1.06
   2  -5  11   33.56    1.12
  -3   5 -11   34.75    1.15
   3  -5  11   35.36    1.18
   3  -5  11   36.58    1.10
   3  -5  11   34.47    1.06
  -4   5 -11    9.49    0.38
   4  -5  11    9.65    0.35
   4  -5  11    9.54    0.41
   4  -5  11   10.40    0.39
  -5   5 -11    2.01    0.15
   5  -5  11    1.94    0.16
   5  -5  11    1.68    0.14
   5  -5  11    2.03    0.14
  -6   5 -11    0.09    0.06
   6  -5  11    0.07    0.07
   6  -5  11   -0.04    0.06
   6  -5  11   -0.10    0.06
  -7   5 -11   78.46    2.49
   7  -5  11   76.42    2.31
   7  -5  11   77.89    2.34
   7  -5  11   77.32    2.33
  -8   5 -11    0.48    0.11
   8  -5  11    0.67    0.11
   8  -5  11    0.64    0.12
   8  -5  11    0.42    0.11
  -9   5 -11   19.67    0.76
   9  -5  11   19.48    0.72
   9  -5  11   19.81    0.69
   9  -5  11   20.17    0.73
 -10   5 -11    4.81    0.31
  10  -5  11    5.59    0.28
  10  -5  11    5.60    0.32
  10  -5  11    5.61    0.33
 -11   5 -11    0.81    0.15
  11  -5  11    1.02    0.17
  11  -5  11    1.48    0.20
  11  -5  11    1.13    0.14
  12  -5  11    0.05    0.11
  12  -5  11   -0.09    0.12
  13  -5  11    2.87    0.28
  13  -5  11    2.50    0.28
  14  -5  11    0.73    0.17
  14  -5  11    0.80    0.20
 -12  -4  11    0.18    0.10
 -11  -4  11    0.13    0.09
 -10  -4  11    0.58    0.12
  -9  -4  11    0.64    0.11
  -8  -4  11    1.66    0.16
  -7  -4  11    1.18    0.13
  -7  -4  11    1.13    0.10
   6   4 -11   14.57    0.46
  -6  -4  11   14.24    0.47
  -6  -4  11   13.39    0.52
   5   4 -11   16.60    0.52
  -5  -4  11   16.55    0.58
  -5  -4  11   16.33    0.54
   4   4 -11    9.10    0.34
   4   4 -11    8.59    0.29
  -4  -4  11    8.43    0.32
  -4  -4  11    7.87    0.33
   3   4 -11   -0.02    0.03
   3   4 -11    0.07    0.05
  -3  -4  11    0.03    0.04
  -3  -4  11    0.03    0.04
  -3  -4  11    0.01    0.04
   2   4 -11    1.84    0.11
   2   4 -11    2.03    0.09
   2   4 -11    1.95    0.10
  -2  -4  11    1.93    0.13
  -2  -4  11    1.71    0.12
  -2  -4  11    1.61    0.11
   1   4 -11    0.62    0.06
   1   4 -11    0.70    0.06
   1   4 -11    0.74    0.07
  -1  -4  11    0.57    0.08
  -1  -4  11    0.71    0.08
   0   4 -11    0.18    0.05
   0   4 -11    0.18    0.05
   0   4 -11    0.20    0.03
   0  -4  11    0.17    0.04
   0  -4  11    0.14    0.06
   0  -4  11    0.19    0.05
  -1   4 -11   97.86    2.72
  -1   4 -11   95.11    2.96
  -1   4 -11   93.34    2.76
   1  -4  11   93.77    2.73
   1  -4  11   94.40    2.99
   1  -4  11   96.89    2.77
  -2   4 -11    0.18    0.05
   2  -4  11    0.15    0.06
   2  -4  11    0.14    0.04
   2  -4  11    0.14    0.06
  -3   4 -11    7.85    0.31
   3  -4  11    7.18    0.27
   3  -4  11    7.01    0.30
   3  -4  11    7.38    0.33
  -4   4 -11   15.22    0.55
   4  -4  11   15.49    0.58
   4  -4  11   15.11    0.50
   4  -4  11   14.23    0.52
  -5   4 -11    0.98    0.11
   5  -4  11    0.95    0.10
   5  -4  11    0.92    0.11
   5  -4  11    0.94    0.13
  -6   4 -11   44.63    1.49
   6  -4  11   44.82    1.40
   6  -4  11   45.65    1.38
  -7   4 -11    8.11    0.38
   7  -4  11    8.06    0.40
   7  -4  11    8.34    0.37
   7  -4  11    7.91    0.35
  -8   4 -11    0.43    0.11
   8  -4  11    0.29    0.10
   8  -4  11    0.28    0.11
  -9   4 -11    1.26    0.17
   9  -4  11    1.11    0.16
   9  -4  11    0.82    0.15
 -10   4 -11   24.79    0.92
  10  -4  11   24.53    0.88
  10  -4  11   24.49    0.82
  10  -4  11   23.84    0.88
 -11   4 -11    4.55    0.31
  11  -4  11    4.66    0.30
  11  -4  11    4.61    0.32
  11  -4  11    4.36    0.25
  12  -4  11    0.24    0.12
  12  -4  11    0.13    0.13
  13  -4  11    3.61    0.31
  13  -4  11    3.48    0.33
  14  -4  11    0.37    0.16
  14  -4  11    0.54    0.17
 -13  -3  11    0.61    0.15
 -12  -3  11    2.52    0.24
 -11  -3  11    0.06    0.09
 -10  -3  11    3.44    0.24
  -9  -3  11   17.11    0.66
   8   3 -11   12.86    0.41
  -8  -3  11   12.44    0.50
   7   3 -11    0.57    0.06
  -7  -3  11    0.62    0.07
  -7  -3  11    0.52    0.10
   6   3 -11    1.23    0.07
  -6  -3  11    1.15    0.09
  -6  -3  11    1.12    0.12
   5   3 -11    2.59    0.10
   5   3 -11    2.23    0.16
  -5  -3  11    2.40    0.13
  -5  -3  11    2.36    0.15
   4   3 -11   27.06    0.85
   4   3 -11   27.18    0.80
  -4  -3  11   27.43    0.91
   3   3 -11    6.76    0.23
   3   3 -11    6.61    0.25
   3   3 -11    6.76    0.27
  -3  -3  11    6.69    0.24
  -3  -3  11    6.71    0.28
   2   3 -11   12.08    0.39
   2   3 -11   11.84    0.43
   2   3 -11   11.91    0.38
  -2  -3  11   12.34    0.45
  -2  -3  11   12.53    0.39
   1   3 -11    3.24    0.14
   1   3 -11    3.12    0.16
   1   3 -11    2.94    0.11
  -1  -3  11    3.19    0.14
  -1  -3  11    3.11    0.18
   0   3 -11    1.33    0.09
   0   3 -11    1.32    0.11
   0  -3  11    1.21    0.09
  -1   3 -11    0.04    0.04
  -1   3 -11    0.03    0.05
   1  -3  11    0.00    0.04
   1  -3  11    0.07    0.03
   1  -3  11    0.04    0.05
  -2   3 -11   49.29    1.57
   2  -3  11   47.89    1.42
   2  -3  11   48.72    1.60
   2  -3  11   49.39    1.46
  -3   3 -11   25.40    0.87
   3  -3  11   25.86    0.78
   3  -3  11   24.14    0.81
   3  -3  11   26.30    0.90
  -4   3 -11    1.01    0.11
   4  -3  11    1.33    0.15
   4  -3  11    1.22    0.10
   4  -3  11    1.15    0.12
  -5   3 -11   21.26    0.75
   5  -3  11   20.34    0.71
  -6   3 -11   15.05    0.59
   6  -3  11   15.12    0.56
   6  -3  11   15.12    0.62
  -7   3 -11    2.57    0.21
   7  -3  11    2.80    0.21
  -8   3 -11   37.19    1.29
   8  -3  11   37.24    1.21
  -9   3 -11    2.55    0.23
   9  -3  11    2.44    0.22
 -10   3 -11   14.07    0.62
  10  -3  11   14.95    0.60
 -11   3 -11    1.15    0.18
  11  -3  11    1.62    0.16
  11  -3  11    1.44    0.20
 -12   3 -11    0.33    0.14
  12  -3  11    0.37    0.14
  12  -3  11    0.53    0.16
  13  -3  11    2.36    0.26
  13  -3  11    2.23    0.27
 -13  -2  11    5.47    0.36
 -12  -2  11    2.61    0.25
 -11  -2  11    0.68    0.14
 -10  -2  11    0.07    0.09
  -9  -2  11    6.81    0.34
  -8  -2  11    3.72    0.15
  -8  -2  11    3.85    0.23
  -7  -2  11    3.62    0.22
  -7  -2  11    3.54    0.16
  -6  -2  11    0.67    0.10
  -5  -2  11    3.54    0.20
   4   2 -11    7.45    0.23
  -4  -2  11    7.93    0.32
   3   2 -11   14.57    0.43
   3   2 -11   14.05    0.45
  -3  -2  11   14.39    0.53
  -3  -2  11   14.19    0.44
   2   2 -11   64.03    1.81
   2   2 -11   62.24    1.81
   2   2 -11   64.55    1.84
   2   2 -11   62.85    2.02
  -2  -2  11   65.11    1.84
  -2  -2  11   62.93    2.03
   1   2 -11   97.56    3.06
   1   2 -11   98.92    2.81
  -1  -2  11   98.39    2.81
  -1  -2  11   95.49    3.07
   0   2 -11   10.53    0.41
   0   2 -11   10.70    0.36
   0  -2  11   10.23    0.35
  -1   2 -11    0.06    0.06
   1  -2  11    0.01    0.04
   1  -2  11    0.10    0.07
   1  -2  11    0.08    0.02
  -2   2 -11   13.36    0.49
   2  -2  11   12.31    0.45
   2  -2  11   12.81    0.51
  -3   2 -11   12.29    0.48
   3  -2  11   12.23    0.50
   3  -2  11   11.94    0.44
  -4   2 -11    1.75    0.15
   4  -2  11    2.05    0.15
   4  -2  11    1.20    0.15
  -5   2 -11   17.33    0.67
   5  -2  11   18.10    0.63
   5  -2  11   18.60    0.71
  -6   2 -11   53.83    1.80
   6  -2  11   54.61    1.68
  -7   2 -11    0.48    0.12
   7  -2  11    0.48    0.11
  -8   2 -11   13.39    0.55
   8  -2  11   11.70    0.52
  -9   2 -11   10.90    0.50
   9  -2  11   10.73    0.48
 -10   2 -11    0.43    0.13
  10  -2  11    0.22    0.12
 -11   2 -11    2.09    0.24
  11  -2  11    2.48    0.25
 -12   2 -11    2.26    0.26
  12  -2  11    2.36    0.26
  13  -2  11    0.12    0.14
  14   1 -11    1.59    0.24
  13   1 -11    0.29    0.15
 -13  -1  11    0.61    0.15
  12   1 -11    0.77    0.16
 -12  -1  11    0.79    0.16
 -11  -1  11    0.02    0.09
 -10  -1  11    0.78    0.14
  -9  -1  11   13.24    0.55
  -8  -1  11   14.62    0.46
  -8  -1  11   14.15    0.57
  -7  -1  11    0.03    0.07
  -6  -1  11    5.76    0.28
   5   1 -11   30.58    0.95
  -5  -1  11   31.88    1.06
   4   1 -11    2.20    0.11
  -4  -1  11    2.07    0.16
   3   1 -11   72.69    2.08
  -3  -1  11   74.41    2.32
  -3  -1  11   71.40    2.08
  -2  -1  11   66.33    1.93
  -2  -1  11   67.65    2.15
   1   1 -11   19.69    0.69
  -1  -1  11   19.01    0.60
  -1  -1  11   19.26    0.70
   0   1 -11   87.81    2.89
   0  -1  11   93.36    2.65
   0  -1  11   92.74    2.59
  -1   1 -11   48.07    1.64
  -1   1 -11   50.24    1.65
   1  -1  11   51.37    1.50
   1  -1  11   51.35    1.46
  -2   1 -11    0.13    0.06
  -2   1 -11    0.10    0.07
   2  -1  11    0.17    0.08
   2  -1  11    0.09    0.06
  -3   1 -11   13.52    0.53
   3  -1  11   13.17    0.48
  -4   1 -11    0.53    0.10
   4  -1  11    0.62    0.12
   4  -1  11    0.73    0.11
  -5   1 -11    1.24    0.15
   5  -1  11    1.82    0.17
  -6   1 -11    4.29    0.27
   6  -1  11    4.15    0.25
  -7   1 -11   69.03    2.30
   7  -1  11   71.05    2.15
  -8   1 -11    2.45    0.23
   8  -1  11    2.19    0.22
  -9   1 -11   11.22    0.53
   9  -1  11   11.36    0.51
 -10   1 -11   -0.06    0.10
  10  -1  11    0.01    0.10
 -11   1 -11    0.95    0.17
  11  -1  11    1.22    0.20
 -12   1 -11    0.53    0.16
  12  -1  11    0.35    0.16
  14   0 -11    0.03    0.13
 -14   0  11    0.01    0.12
  13   0 -11    1.92    0.23
 -13   0  11    1.90    0.23
  12   0 -11    0.26    0.12
 -12   0  11    0.18    0.12
  11   0 -11    5.62    0.32
 -11   0  11    5.61    0.34
  10   0 -11    4.39    0.26
 -10   0  11    3.68    0.27
   9   0 -11    3.07    0.20
  -9   0  11    2.37    0.22
  -9   0  11    2.80    0.12
   8   0 -11    0.97    0.12
  -8   0  11    0.69    0.12
   7   0 -11   15.31    0.53
  -7   0  11   15.83    0.60
   6   0 -11   14.34    0.49
  -6   0  11   14.36    0.55
   5   0 -11    8.24    0.30
  -5   0  11    8.56    0.37
   4   0 -11   14.37    0.45
  -4   0  11   14.38    0.55
   3   0 -11   20.62    0.61
  -3   0  11   19.68    0.73
  -3   0  11   20.93    0.61
   2   0 -11   19.81    0.58
  -2   0  11   20.67    0.72
  -2   0  11   18.66    0.60
   1   0 -11   10.19    0.40
   1   0 -11    9.97    0.41
  -1   0  11    9.54    0.29
  -1   0  11    9.26    0.33
  -1   0  11    9.14    0.40
   0   0 -11   13.89    0.55
   0   0 -11   14.73    0.57
   0   0  11   14.64    0.49
   0   0  11   15.20    0.46
  -1   0 -11    0.88    0.12
  -1   0 -11    1.09    0.13
   1   0  11    0.91    0.10
   1   0  11    0.96    0.09
  -2   0 -11   17.80    0.68
  -2   0 -11   18.25    0.68
   2   0  11   18.17    0.61
  -3   0 -11   13.28    0.52
   3   0  11   12.82    0.54
   3   0  11   12.73    0.46
   3   0  11   11.97    0.47
  -4   0 -11   38.76    1.34
   4   0  11   40.12    1.25
  -5   0 -11   13.39    0.56
   5   0  11   13.55    0.52
  -6   0 -11    5.61    0.32
   6   0  11    5.90    0.32
  -7   0 -11   27.43    0.99
   7   0  11   25.27    0.91
  -8   0 -11    0.62    0.14
   8   0  11    0.49    0.13
  -9   0 -11    3.27    0.27
   9   0  11    3.59    0.27
 -10   0 -11    5.22    0.35
  10   0  11    6.32    0.37
 -11   0 -11    0.60    0.16
  11   0  11    0.61    0.16
 -12   0 -11    3.19    0.32
  12   0  11    3.69    0.30
  14  -1 -11    0.33    0.15
 -14   1  11    0.17    0.14
  13  -1 -11   13.12    0.57
 -13   1  11   12.64    0.60
  12  -1 -11    1.38    0.18
 -12   1  11    1.52    0.21
  11  -1 -11    7.38    0.37
 -11   1  11    7.43    0.40
  10  -1 -11    1.07    0.15
 -10   1  11    1.15    0.17
   9  -1 -11    3.65    0.22
  -9   1  11    3.71    0.26
   8  -1 -11   16.40    0.58
  -8   1  11   16.26    0.64
   7  -1 -11   20.37    0.67
  -7   1  11   19.97    0.75
   6  -1 -11    6.41    0.26
  -6   1  11    6.85    0.33
   5  -1 -11    1.93    0.12
  -5   1  11    1.84    0.16
   4  -1 -11    0.07    0.04
  -4   1  11    0.06    0.07
  -4   1  11    0.07    0.03
  -4   1  11    0.06    0.02
   3  -1 -11   83.03    2.33
  -3   1  11   80.04    2.59
  -3   1  11   80.13    2.33
   2  -1 -11   13.45    0.42
  -2   1  11   13.06    0.53
  -2   1  11   13.32    0.41
   1  -1 -11    1.47    0.15
   1  -1 -11    1.44    0.09
  -1   1  11    1.55    0.09
  -1   1  11    1.38    0.15
   0  -1 -11    1.88    0.17
   0  -1 -11    2.19    0.18
   0   1  11    2.01    0.12
  -1  -1 -11    5.11    0.28
  -1  -1 -11    5.34    0.29
  -2  -1 -11    8.87    0.41
  -2  -1 -11    9.14    0.41
   2   1  11    8.87    0.35
  -3  -1 -11    0.68    0.12
  -4  -1 -11   27.14    0.98
  -5  -1 -11    1.74    0.19
   5   1  11    1.39    0.17
  -6  -1 -11   20.80    0.81
   6   1  11   21.19    0.77
  -7  -1 -11   25.86    0.98
   7   1  11   25.74    0.92
  -8  -1 -11    9.11    0.46
   8   1  11    8.69    0.44
  -9  -1 -11   22.20    0.89
   9   1  11   22.15    0.84
 -10  -1 -11    2.02    0.25
  10   1  11    1.56    0.23
 -11  -1 -11    2.34    0.27
  11   1  11    2.26    0.26
  15  -2 -11    1.86    0.26
  14  -2 -11    6.97    0.42
 -14   2  11    6.82    0.43
  13  -2 -11    3.30    0.27
 -13   2  11    3.23    0.29
  12  -2 -11   25.62    0.93
 -12   2  11   27.24    1.02
  11  -2 -11    0.65    0.13
 -11   2  11    0.71    0.15
  10  -2 -11   10.34    0.43
 -10   2  11    9.73    0.47
   9  -2 -11   -0.06    0.07
  -9   2  11   -0.08    0.08
   8  -2 -11    3.48    0.20
  -8   2  11    2.83    0.23
   7  -2 -11   11.66    0.43
  -7   2  11   11.49    0.49
   6  -2 -11    5.43    0.23
  -6   2  11    5.46    0.29
   5  -2 -11    0.22    0.06
  -5   2  11    0.33    0.04
  -5   2  11    0.26    0.08
   4  -2 -11    5.31    0.21
  -4   2  11    5.39    0.21
  -4   2  11    5.31    0.29
  -4   2  11    5.20    0.21
   3  -2 -11   27.43    0.85
  -3   2  11   28.37    0.99
  -3   2  11   28.15    0.84
   2  -2 -11    3.95    0.23
   2  -2 -11    3.84    0.17
  -2   2  11    3.53    0.23
  -2   2  11    3.95    0.16
   1  -2 -11   29.84    1.04
   1  -2 -11   30.55    0.93
  -1   2  11   29.62    1.05
  -1   2  11   30.23    0.91
   0  -2 -11   41.28    1.39
   0  -2 -11   40.91    1.41
  -1  -2 -11    7.45    0.36
   1   2  11    6.77    0.29
  -2  -2 -11    0.00    0.04
  -2  -2 -11   -0.01    0.08
  -3  -2 -11   11.68    0.51
  -4  -2 -11   93.99    3.04
  -5  -2 -11    1.17    0.17
  -6  -2 -11   82.98    2.72
  -7  -2 -11   22.57    0.87
   7   2  11   21.17    0.82
  -8  -2 -11   -0.15    0.09
   8   2  11   -0.03    0.10
  -9  -2 -11    0.08    0.12
   9   2  11    0.00    0.11
 -10  -2 -11   15.38    0.71
  10   2  11   16.58    0.70
 -11  -2 -11    0.35    0.16
  11   2  11    0.86    0.20
  15  -3 -11    3.10    0.32
 -15   3  11    2.45    0.30
  14  -3 -11    0.91    0.19
 -14   3  11    1.24    0.22
  13  -3 -11    0.02    0.11
 -13   3  11    0.01    0.12
  12  -3 -11    0.37    0.13
 -12   3  11    0.47    0.14
  11  -3 -11    9.49    0.43
 -11   3  11    9.57    0.48
  10  -3 -11    0.52    0.12
 -10   3  11    0.41    0.12
   9  -3 -11    0.63    0.11
  -9   3  11    0.52    0.13
   8  -3 -11    1.46    0.14
  -8   3  11    1.10    0.15
   7  -3 -11    0.30    0.08
  -7   3  11    0.09    0.09
  -7   3  11    0.18    0.03
   6  -3 -11    7.27    0.30
  -6   3  11    7.29    0.37
  -6   3  11    7.71    0.25
   5  -3 -11   61.97    1.82
  -5   3  11   58.61    2.01
  -5   3  11   62.80    1.81
  -5   3  11   61.98    1.79
   4  -3 -11    2.21    0.14
  -4   3  11    2.32    0.19
  -4   3  11    2.16    0.12
   3  -3 -11    4.84    0.26
   3  -3 -11    4.66    0.21
  -3   3  11    5.12    0.28
   2  -3 -11    0.11    0.06
   2  -3 -11    0.06    0.07
  -2   3  11    0.13    0.07
  -2   3  11   -0.02    0.04
   1  -3 -11    1.25    0.15
   1  -3 -11    1.28    0.12
  -1   3  11    1.28    0.11
   0  -3 -11    1.28    0.17
   0  -3 -11    1.18    0.13
   0   3  11    1.45    0.13
  -2  -3 -11   32.96    1.18
  -4  -3 -11   36.11    1.29
  -5  -3 -11   44.15    1.54
  -6  -3 -11    1.31    0.19
  -7  -3 -11    8.81    0.47
  -8  -3 -11    6.06    0.39
   8   3  11    6.50    0.40
  -9  -3 -11    0.15    0.13
   9   3  11    0.05    0.12
 -10  -3 -11    1.29    0.21
  10   3  11    1.24    0.22
  15  -4 -11    2.15    0.27
 -15   4  11    2.00    0.27
  14  -4 -11    0.22    0.14
 -14   4  11    0.38    0.16
  13  -4 -11    1.04    0.18
 -13   4  11    1.01    0.20
  12  -4 -11    3.84    0.27
 -12   4  11    4.26    0.32
  11  -4 -11    0.22    0.11
 -11   4  11    0.21    0.12
  10  -4 -11    4.87    0.28
 -10   4  11    5.18    0.33
   9  -4 -11    0.06    0.09
  -9   4  11    0.15    0.11
   8  -4 -11    1.40    0.15
  -8   4  11    1.40    0.18
  -8   4  11    1.46    0.08
   7  -4 -11    5.27    0.25
  -7   4  11    4.80    0.19
  -7   4  11    4.76    0.30
   6  -4 -11    0.92    0.11
  -6   4  11    0.93    0.14
  -6   4  11    0.98    0.08
   5  -4 -11   38.82    1.20
  -5   4  11   38.71    1.34
   4  -4 -11    6.19    0.27
  -4   4  11    6.31    0.27
  -4   4  11    6.60    0.26
  -4   4  11    5.77    0.32
   3  -4 -11    0.63    0.11
   3  -4 -11    0.75    0.11
  -3   4  11    0.66    0.12
  -3   4  11    0.65    0.09
   2  -4 -11    1.34    0.15
   2  -4 -11    1.37    0.14
  -2   4  11    1.74    0.18
   1  -4 -11    0.06    0.07
   1  -4 -11    0.00    0.04
   0  -4 -11    5.72    0.33
   0  -4 -11    4.87    0.26
  -1  -4 -11    0.28    0.11
  -1  -4 -11    0.26    0.10
  -2  -4 -11    2.57    0.23
  -2  -4 -11    2.59    0.25
  -3  -4 -11    1.86    0.22
  -3  -4 -11    1.50    0.20
  -4  -4 -11    2.56    0.26
  -5  -4 -11   17.61    0.74
  -6  -4 -11    3.24    0.28
  -7  -4 -11    1.43    0.20
  -8  -4 -11    4.83    0.37
   8   4  11    5.48    0.37
  -9  -4 -11    0.41    0.16
   9   4  11    0.53    0.18
  15  -5 -11    1.80    0.24
 -15   5  11    1.37    0.23
  14  -5 -11    0.29    0.15
 -14   5  11    0.34    0.16
  13  -5 -11    1.00    0.18
 -13   5  11    0.95    0.20
  12  -5 -11    0.58    0.14
 -12   5  11    0.53    0.16
  11  -5 -11    3.31    0.25
 -11   5  11    3.16    0.28
  10  -5 -11    8.59    0.40
 -10   5  11    9.03    0.46
   9  -5 -11   17.27    0.63
  -9   5  11   17.29    0.72
   8  -5 -11   26.97    0.90
  -8   5  11   27.77    1.02
   7  -5 -11   33.97    1.08
  -7   5  11   34.21    1.21
  -7   5  11   33.34    1.02
   6  -5 -11    7.50    0.33
  -6   5  11    7.39    0.29
  -6   5  11    7.65    0.40
   5  -5 -11   37.88    1.22
  -5   5  11   40.19    1.37
   4  -5 -11   14.51    0.59
   4  -5 -11   15.02    0.54
  -4   5  11   15.02    0.62
   3  -5 -11    1.81    0.19
   3  -5 -11    1.57    0.15
  -3   5  11    1.41    0.18
   2  -5 -11    0.56    0.11
  -2   5  11    0.54    0.13
   1  -5 -11    0.04    0.06
   1  -5 -11    0.05    0.08
   0  -5 -11   10.57    0.48
   0  -5 -11    9.97    0.50
   0  -5 -11   10.77    0.45
  -1  -5 -11    4.82    0.32
  -1  -5 -11    4.18    0.29
  -2  -5 -11   13.93    0.62
  -3  -5 -11    1.60    0.22
  -4  -5 -11   15.68    0.68
  -5  -5 -11    0.34    0.13
  -6  -5 -11    0.02    0.13
  -7  -5 -11    0.86    0.18
  -8  -5 -11   -0.01    0.12
  -9  -5 -11    0.03    0.13
   9   5  11    0.12    0.13
  15  -6 -11    4.44    0.35
 -15   6  11    4.16    0.37
  14  -6 -11    0.09    0.14
 -14   6  11   -0.03    0.12
  13  -6 -11    0.52    0.15
 -13   6  11    0.62    0.18
  12  -6 -11    3.78    0.28
 -12   6  11    4.60    0.33
  11  -6 -11    0.05    0.10
 -11   6  11    0.07    0.11
  10  -6 -11   13.31    0.54
 -10   6  11   13.25    0.61
   9  -6 -11    1.53    0.18
  -9   6  11    1.09    0.18
   8  -6 -11   28.41    0.97
  -8   6  11   29.81    0.92
  -8   6  11   29.41    1.09
   7  -6 -11   23.53    0.80
  -7   6  11   22.67    0.89
   6  -6 -11   18.93    0.68
  -6   6  11   19.72    0.78
   5  -6 -11    7.43    0.34
  -5   6  11    7.63    0.40
   4  -6 -11   13.92    0.53
   4  -6 -11   13.90    0.56
  -4   6  11   12.60    0.58
   3  -6 -11    2.76    0.21
   3  -6 -11    2.36    0.20
  -3   6  11    2.53    0.22
   1  -6 -11    0.27    0.10
   1  -6 -11    0.38    0.12
   0  -6 -11   14.66    0.60
   0  -6 -11   15.65    0.67
   0  -6 -11   15.03    0.64
  -1  -6 -11    1.45    0.21
  -2  -6 -11    4.78    0.34
  -3  -6 -11    6.59    0.40
  -4  -6 -11    0.16    0.13
  -5  -6 -11   27.52    1.07
  -6  -6 -11   12.16    0.60
  -7  -6 -11    3.70    0.33
  -8  -6 -11    3.02    0.32
  15  -7 -11    0.53    0.18
  14  -7 -11   -0.02    0.12
 -14   7  11    0.18    0.16
  13  -7 -11    1.24    0.20
 -13   7  11    1.30    0.21
  12  -7 -11    2.93    0.25
 -12   7  11    2.29    0.27
  11  -7 -11    1.99    0.22
 -11   7  11    2.29    0.26
  10  -7 -11    3.65    0.26
 -10   7  11    3.56    0.30
   9  -7 -11    0.65    0.14
  -9   7  11    0.66    0.16
   8  -7 -11    3.80    0.26
  -8   7  11    3.94    0.31
   7  -7 -11   56.85    1.76
  -7   7  11   55.66    1.92
   6  -7 -11   47.53    1.51
  -6   7  11   48.07    1.66
   5  -7 -11    0.49    0.12
   5  -7 -11    0.43    0.12
  -5   7  11    0.36    0.12
   4  -7 -11    2.20    0.22
   4  -7 -11    2.42    0.22
  -4   7  11    1.75    0.20
   3  -7 -11    9.05    0.42
  -3   7  11    8.77    0.45
   2  -7 -11    6.58    0.35
   1  -7 -11    7.08    0.38
   0  -7 -11   27.14    0.99
   0  -7 -11   29.29    1.10
  -1  -7 -11   30.40    1.16
  -2  -7 -11    4.86    0.36
  -3  -7 -11   15.71    0.71
  -4  -7 -11    1.64    0.23
  -5  -7 -11   -0.08    0.11
  -6  -7 -11    0.55    0.17
  -7  -7 -11    9.38    0.53
  15  -8 -11    0.24    0.15
  14  -8 -11    9.82    0.50
  13  -8 -11   -0.01    0.13
  12  -8 -11   17.62    0.71
  11  -8 -11    0.12    0.12
 -11   8  11   -0.07    0.10
  10  -8 -11    3.23    0.26
 -10   8  11    3.78    0.31
   9  -8 -11    0.19    0.12
  -9   8  11    0.15    0.12
   8  -8 -11    5.65    0.33
  -8   8  11    5.62    0.37
   7  -8 -11    6.90    0.37
  -7   8  11    6.73    0.41
   6  -8 -11    8.56    0.42
  -6   8  11    9.02    0.47
   5  -8 -11    0.07    0.11
  -5   8  11   -0.11    0.10
   4  -8 -11    0.91    0.15
  -4   8  11    1.17    0.18
   3  -8 -11   12.14    0.53
   2  -8 -11    1.06    0.17
   1  -8 -11   -0.01    0.11
   0  -8 -11    1.03    0.19
   0  -8 -11    1.25    0.20
  -1  -8 -11    1.64    0.24
  -2  -8 -11   -0.20    0.10
  -3  -8 -11    1.27    0.22
  -4  -8 -11    9.98    0.54
  -5  -8 -11    0.13    0.13
  -6  -8 -11    0.31    0.16
  15  -9 -11   -0.02    0.13
  14  -9 -11    3.94    0.36
  13  -9 -11    0.37    0.16
  12  -9 -11    1.78    0.24
  11  -9 -11    0.22    0.12
  10  -9 -11   -0.04    0.09
   9  -9 -11    3.87    0.29
   8  -9 -11    0.07    0.11
   7  -9 -11    6.55    0.37
   6  -9 -11    6.12    0.36
   5  -9 -11    1.55    0.21
   4  -9 -11   22.02    0.83
   3  -9 -11    2.69    0.26
   2  -9 -11    0.34    0.14
   1  -9 -11    3.88    0.30
   1  -9 -11    3.82    0.33
   0  -9 -11    0.03    0.13
   0  -9 -11    0.25    0.15
  -1  -9 -11    0.39    0.15
  -2  -9 -11    0.08    0.14
  -3  -9 -11    1.24    0.23
  -4  -9 -11    2.12    0.27
  -5  -9 -11    0.29    0.15
  14 -10 -11    0.10    0.16
  13 -10 -11    2.07    0.27
  12 -10 -11    6.41    0.41
  11 -10 -11   11.29    0.54
  10 -10 -11    1.38    0.22
   9 -10 -11    0.18    0.14
   8 -10 -11    0.59    0.16
   7 -10 -11   10.42    0.51
   6 -10 -11    0.90    0.18
   5 -10 -11    2.76    0.29
   4 -10 -11    3.28    0.31
   3 -10 -11    7.38    0.43
   2 -10 -11    1.42    0.23
   1 -10 -11    4.86    0.35
   1 -10 -11    4.66    0.38
   0 -10 -11    3.62    0.37
  -1 -10 -11    0.18    0.16
  -2 -10 -11    2.27    0.29
  -3 -10 -11    2.07    0.28
  14 -11 -11    0.81    0.22
  13 -11 -11    5.02    0.39
  12 -11 -11   18.54    0.78
  11 -11 -11    5.38    0.38
  10 -11 -11    7.79    0.45
   9 -11 -11    6.26    0.40
   8 -11 -11    2.42    0.28
   7 -11 -11    8.17    0.46
   6 -11 -11   -0.05    0.13
   5 -11 -11   15.08    0.68
   4 -11 -11    0.96    0.19
   3 -11 -11    2.30    0.28
   2 -11 -11    0.71    0.19
   1 -11 -11    4.47    0.40
   1 -11 -11    4.95    0.38
   0 -11 -11    2.13    0.29
  -1 -11 -11    0.35    0.18
  -2 -11 -11    6.12    0.45
  13 -12 -11    1.19    0.25
  12 -12 -11    0.12    0.15
  11 -12 -11    8.41    0.50
  10 -12 -11    4.45    0.36
   9 -12 -11    9.81    0.53
   8 -12 -11    1.90    0.26
   7 -12 -11    0.63    0.19
   6 -12 -11    2.78    0.32
   5 -12 -11    7.07    0.46
   4 -12 -11    4.11    0.35
   3 -12 -11    0.00    0.15
   2 -12 -11    1.76    0.29
   2 -12 -11    1.70    0.26
   1 -12 -11    1.91    0.30
   1 -12 -11    2.44    0.31
   0 -12 -11    0.48    0.19
  12 -13 -11    0.06    0.16
  11 -13 -11    2.14    0.30
  10 -13 -11    0.12    0.14
   9 -13 -11    0.43    0.17
   8 -13 -11    0.00    0.14
   7 -13 -11    1.60    0.25
   6 -13 -11    0.12    0.15
   5 -13 -11    0.04    0.14
   4 -13 -11   -0.12    0.13
   3 -13 -11    0.62    0.19
   2 -13 -11    0.46    0.19
   2 -13 -11    0.69    0.20
   9 -14 -11    2.19    0.31
   8 -14 -11    1.95    0.30
   7 -14 -11    4.54    0.44
   6 -14 -11    1.82    0.30
   5 -14 -11    3.58    0.39
   4 -17  12    1.19    0.25
   4 -17  12    1.41    0.27
   5 -17  12    1.05    0.26
   5 -17  12    0.74    0.22
   6 -17  12    0.15    0.18
   6 -17  12    0.13    0.19
   7 -17  12    0.14    0.16
   7 -17  12   -0.04    0.15
   8 -17  12    0.24    0.17
   8 -17  12    0.22    0.18
   9 -17  12    1.49    0.28
   9 -17  12    1.83    0.30
   1 -16  12   10.27    0.58
   2 -16  12    9.13    0.53
   2 -16  12    7.14    0.51
   3 -16  12    4.84    0.40
   3 -16  12    5.06    0.40
   4 -16  12    0.23    0.17
   4 -16  12    0.38    0.19
   5 -16  12   -0.09    0.13
   5 -16  12    0.01    0.16
   6 -16  12    2.66    0.32
   6 -16  12    2.93    0.34
   7 -16  12    2.83    0.33
   7 -16  12    2.91    0.32
   8 -16  12    7.31    0.47
   8 -16  12    6.97    0.48
   9 -16  12   12.99    0.65
   9 -16  12   12.18    0.64
  10 -16  12    9.49    0.55
  10 -16  12    9.63    0.56
  11 -16  12    1.55    0.28
  11 -16  12    1.72    0.28
   0 -15  12    0.20    0.17
   1 -15  12    0.89    0.22
   2 -15  12    1.03    0.24
   2 -15  12    0.92    0.21
   3 -15  12   14.20    0.68
   3 -15  12   15.83    0.72
   4 -15  12    6.74    0.44
   4 -15  12    7.07    0.45
   5 -15  12    5.41    0.39
   5 -15  12    5.14    0.39
   6 -15  12    1.02    0.20
   6 -15  12    0.64    0.19
   7 -15  12    0.21    0.15
   7 -15  12    0.49    0.19
   8 -15  12    8.29    0.49
   8 -15  12    9.02    0.50
   9 -15  12    1.19    0.24
   9 -15  12    0.89    0.22
  10 -15  12    5.63    0.43
  10 -15  12    6.57    0.44
  11 -15  12   -0.08    0.15
  11 -15  12   -0.17    0.14
  12 -15  12    0.92    0.22
  12 -15  12    0.53    0.21
   0 -14  12   -0.25    0.11
   1 -14  12    0.04    0.12
   1 -14  12    0.25    0.14
   2 -14  12    3.21    0.16
   2 -14  12    4.07    0.33
   2 -14  12    2.67    0.30
   3 -14  12    7.21    0.43
   3 -14  12    6.97    0.45
   4 -14  12    3.78    0.35
   4 -14  12    3.54    0.33
   5 -14  12    0.22    0.15
   5 -14  12    0.29    0.14
   5 -14  12    0.18    0.13
   6 -14  12    0.13    0.13
   6 -14  12    0.40    0.17
   6 -14  12    0.34    0.16
   7 -14  12    6.70    0.43
   7 -14  12    6.10    0.39
   7 -14  12    6.27    0.40
   8 -14  12    3.73    0.31
   8 -14  12    3.04    0.31
   8 -14  12    3.48    0.33
   9 -14  12   22.20    0.90
   9 -14  12   22.31    0.89
   9 -14  12   22.82    0.90
  10 -14  12   -0.06    0.11
  10 -14  12    0.17    0.15
  10 -14  12   -0.15    0.14
  11 -14  12    0.96    0.22
  11 -14  12    0.66    0.18
  11 -14  12    0.83    0.20
  12 -14  12    0.19    0.15
  12 -14  12    0.13    0.15
  12 -14  12    0.17    0.15
  13 -14  12    1.59    0.24
  13 -14  12    2.04    0.29
  13 -14  12    1.58    0.26
   0 -13  12    3.68    0.32
   0 -13  12    3.30    0.31
   1 -13  12    4.79    0.35
   1 -13  12    5.31    0.38
   1 -13  12    5.64    0.21
   2 -13  12    1.42    0.11
   2 -13  12    1.76    0.23
   2 -13  12    1.52    0.22
   3 -13  12    5.42    0.36
   3 -13  12    4.72    0.23
   3 -13  12    5.62    0.36
   3 -13  12    5.22    0.36
   4 -13  12   16.87    0.70
   4 -13  12   17.09    0.71
   4 -13  12   16.10    0.69
   5 -13  12    2.61    0.28
   5 -13  12    2.58    0.26
   5 -13  12    2.94    0.29
   6 -13  12    2.30    0.26
   6 -13  12    2.06    0.25
   6 -13  12    1.94    0.23
   7 -13  12    2.66    0.27
   7 -13  12    2.60    0.26
   7 -13  12    2.31    0.26
   8 -13  12    0.22    0.14
   8 -13  12    0.17    0.14
   8 -13  12   -0.02    0.13
   9 -13  12    0.07    0.13
   9 -13  12    0.23    0.14
   9 -13  12    0.56    0.17
  10 -13  12    0.14    0.15
  10 -13  12    0.19    0.13
  10 -13  12    0.11    0.14
  11 -13  12    1.02    0.21
  11 -13  12    1.61    0.23
  11 -13  12    1.31    0.23
  12 -13  12    3.20    0.31
  12 -13  12    4.03    0.36
  12 -13  12    3.40    0.34
  13 -13  12    0.41    0.15
  13 -13  12   -0.06    0.15
  13 -13  12    0.22    0.17
  14 -13  12   -0.15    0.13
  14 -13  12    0.00    0.13
  14 -13  12    0.14    0.17
  -1 -12  12   11.25    0.54
   0 -12  12    0.63    0.16
   1 -12  12    4.42    0.33
   1 -12  12    4.55    0.32
   1 -12  12    4.63    0.31
   1 -12  12    4.73    0.19
   2 -12  12    2.11    0.13
   2 -12  12    1.90    0.23
   2 -12  12    1.72    0.21
   2 -12  12    2.24    0.25
   3 -12  12    5.58    0.25
   3 -12  12    6.03    0.35
   3 -12  12    5.66    0.34
   3 -12  12    5.65    0.34
   4 -12  12    1.71    0.21
   4 -12  12    1.34    0.19
   4 -12  12    1.19    0.18
   4 -12  12    1.06    0.12
   5 -12  12    3.70    0.28
   5 -12  12    3.94    0.28
   5 -12  12    3.97    0.29
   6 -12  12    0.99    0.17
   6 -12  12    1.09    0.18
   6 -12  12    0.97    0.17
   7 -12  12    3.22    0.26
   7 -12  12    3.31    0.27
   7 -12  12    3.22    0.27
   8 -12  12    6.77    0.38
   8 -12  12    7.39    0.40
   8 -12  12    7.43    0.41
   9 -12  12    5.77    0.36
   9 -12  12    6.49    0.37
   9 -12  12    6.13    0.36
  10 -12  12   17.69    0.72
  10 -12  12   18.42    0.73
  10 -12  12   18.00    0.74
  11 -12  12    5.54    0.37
  11 -12  12    5.68    0.36
  11 -12  12    5.64    0.37
  12 -12  12    1.15    0.22
  12 -12  12    1.12    0.19
  12 -12  12    1.37    0.22
  13 -12  12    1.42    0.21
  13 -12  12    0.75    0.18
  13 -12  12    1.31    0.23
  14 -12  12    0.33    0.18
  14 -12  12    0.25    0.14
  14 -12  12    0.39    0.18
  -1 -11  12    7.19    0.38
  -1 -11  12    7.47    0.40
  -1 -11  12    7.66    0.41
   0 -11  12    0.05    0.09
   0 -11  12   -0.04    0.09
   0 -11  12   -0.09    0.10
   1 -11  12   15.85    0.64
   1 -11  12   15.25    0.52
   1 -11  12   15.77    0.63
   1 -11  12   14.76    0.61
   2 -11  12    1.01    0.17
   2 -11  12    1.13    0.10
   2 -11  12    0.94    0.16
   2 -11  12    1.14    0.17
   3 -11  12    0.03    0.05
   3 -11  12    0.07    0.09
   3 -11  12   -0.05    0.09
   3 -11  12   -0.03    0.09
   4 -11  12    9.74    0.45
   4 -11  12    9.56    0.43
   4 -11  12    9.69    0.44
   4 -11  12    9.17    0.38
   5 -11  12    0.76    0.14
   5 -11  12    0.81    0.11
   5 -11  12    0.84    0.14
   5 -11  12    0.97    0.17
   6 -11  12   19.83    0.74
   6 -11  12   20.18    0.74
   6 -11  12   18.76    0.72
   7 -11  12    2.56    0.25
   7 -11  12    2.71    0.23
   7 -11  12    3.04    0.25
   8 -11  12    0.65    0.15
   8 -11  12    0.81    0.16
   8 -11  12    0.79    0.15
   9 -11  12    0.01    0.10
   9 -11  12   -0.16    0.09
   9 -11  12    0.10    0.10
  10 -11  12    0.77    0.16
  10 -11  12    0.85    0.16
  10 -11  12    0.61    0.15
  11 -11  12   12.83    0.58
  11 -11  12   13.75    0.60
  11 -11  12   12.97    0.57
  12 -11  12   12.07    0.57
  12 -11  12   11.78    0.54
  12 -11  12   12.36    0.58
  13 -11  12    0.24    0.16
  13 -11  12   -0.19    0.10
  13 -11  12    0.01    0.14
  14 -11  12    3.88    0.35
  14 -11  12    3.17    0.33
  -7 -10  12   12.08    0.44
  -6 -10  12   -0.01    0.05
  -2 -10  12    0.37    0.11
  -1 -10  12    5.98    0.33
  -1 -10  12    5.50    0.32
  -1 -10  12    5.87    0.33
   0 -10  12    8.12    0.39
   0 -10  12    6.51    0.35
   0 -10  12    7.48    0.36
   0 -10  12    7.02    0.26
   1 -10  12    0.13    0.09
   1 -10  12    0.06    0.04
   1 -10  12   -0.04    0.09
   1 -10  12    0.00    0.09
   2 -10  12    0.27    0.06
   2 -10  12    0.35    0.11
   2 -10  12    0.30    0.11
   2 -10  12    0.23    0.12
   3 -10  12   10.25    0.39
   3 -10  12    9.98    0.43
   3 -10  12    9.85    0.42
   3 -10  12    9.11    0.43
   4 -10  12    6.79    0.30
   4 -10  12    6.54    0.33
   4 -10  12    6.79    0.34
   4 -10  12    6.62    0.34
  -5  10 -12    0.35    0.07
   5 -10  12    0.34    0.11
   5 -10  12    0.37    0.09
   5 -10  12    0.25    0.10
   5 -10  12    0.33    0.10
   6 -10  12   12.88    0.52
   6 -10  12   12.42    0.51
   6 -10  12   12.67    0.53
   6 -10  12   12.72    0.51
   7 -10  12    7.14    0.36
   7 -10  12    7.27    0.37
   7 -10  12    6.33    0.34
   8 -10  12   -0.01    0.09
   8 -10  12    0.00    0.09
   8 -10  12    0.00    0.09
   9 -10  12    0.22    0.12
   9 -10  12    0.05    0.09
   9 -10  12    0.24    0.12
  10 -10  12    3.52    0.28
  10 -10  12    3.79    0.28
  10 -10  12    3.83    0.26
  11 -10  12   -0.07    0.10
  11 -10  12   -0.05    0.10
  11 -10  12    0.02    0.11
  12 -10  12    4.78    0.35
  12 -10  12    4.85    0.31
  12 -10  12    4.87    0.34
  13 -10  12    4.15    0.34
  13 -10  12    3.51    0.28
  13 -10  12    3.90    0.33
  14 -10  12    0.61    0.18
  14 -10  12    0.49    0.16
  -8  -9  12    0.28    0.08
  -7  -9  12   -0.03    0.06
  -6  -9  12    0.15    0.06
  -5  -9  12    1.69    0.11
  -4  -9  12    0.24    0.05
  -3  -9  12   -0.04    0.08
  -2  -9  12    0.08    0.09
  -2  -9  12    0.00    0.09
  -1  -9  12   25.62    0.85
  -1  -9  12   24.12    0.85
  -1  -9  12   24.10    0.85
   0  -9  12    1.42    0.09
   0  -9  12    1.06    0.14
   0  -9  12    0.81    0.13
   1  -9  12    1.32    0.15
   1  -9  12    1.22    0.15
   1  -9  12    1.05    0.14
   1  -9  12    1.02    0.09
   2  -9  12    4.86    0.27
   2  -9  12    4.31    0.25
   2  -9  12    4.86    0.27
   2  -9  12    4.88    0.22
   3  -9  12    5.15    0.24
   3  -9  12    5.57    0.28
   3  -9  12    4.68    0.28
   3  -9  12    5.12    0.28
  -4   9 -12    9.04    0.34
   4  -9  12    8.82    0.38
   4  -9  12    9.78    0.41
   4  -9  12    9.63    0.38
   4  -9  12    8.75    0.40
  -5   9 -12    5.11    0.23
   5  -9  12    5.44    0.27
   5  -9  12    5.21    0.30
   5  -9  12    4.83    0.27
   5  -9  12    5.33    0.29
  -6   9 -12    6.10    0.28
   6  -9  12    5.77    0.31
   6  -9  12    6.75    0.32
   6  -9  12    6.30    0.31
   6  -9  12    6.67    0.34
   7  -9  12    3.48    0.25
   7  -9  12    3.51    0.24
   7  -9  12    3.89    0.24
   8  -9  12    1.00    0.15
   8  -9  12    0.66    0.14
   8  -9  12    0.93    0.15
   9  -9  12    1.33    0.17
   9  -9  12    1.01    0.16
   9  -9  12    1.48    0.17
  10  -9  12    1.84    0.22
  10  -9  12    1.51    0.18
  10  -9  12    1.50    0.19
  11  -9  12    0.86    0.15
  11  -9  12    0.72    0.16
  11  -9  12    0.77    0.16
  12  -9  12    2.02    0.25
  12  -9  12    2.08    0.24
  12  -9  12    2.30    0.23
  13  -9  12    5.41    0.36
  13  -9  12    5.71    0.33
  13  -9  12    6.02    0.38
  14  -9  12    1.40    0.22
  14  -9  12    1.75    0.26
  -9  -8  12    0.24    0.09
  -8  -8  12    0.05    0.07
  -7  -8  12    0.66    0.10
  -6  -8  12    3.12    0.17
  -5  -8  12   20.14    0.67
  -4  -8  12    5.50    0.22
  -4  -8  12    5.42    0.28
  -3  -8  12   10.64    0.37
  -3  -8  12   10.97    0.44
  -2  -8  12   19.23    0.68
  -2  -8  12   18.72    0.67
  -1  -8  12   13.94    0.53
  -1  -8  12   14.18    0.54
  -1  -8  12   14.13    0.53
   0  -8  12    8.72    0.32
   0  -8  12    8.29    0.36
   0  -8  12    8.78    0.37
   0  -8  12    8.81    0.37
   1  -8  12    2.97    0.20
   1  -8  12    3.57    0.22
   1  -8  12    2.86    0.19
   1  -8  12    3.41    0.17
   2  -8  12   40.30    1.31
   2  -8  12   40.28    1.28
   2  -8  12   41.67    1.26
   2  -8  12   39.86    1.29
  -3   8 -12    7.04    0.27
   3  -8  12    7.07    0.31
   3  -8  12    7.24    0.33
   3  -8  12    6.89    0.31
   3  -8  12    7.60    0.33
  -4   8 -12    4.82    0.21
   4  -8  12    4.59    0.24
   4  -8  12    4.22    0.25
   4  -8  12    4.89    0.24
   4  -8  12    4.15    0.24
  -5   8 -12    5.25    0.24
   5  -8  12    5.25    0.28
   5  -8  12    4.99    0.26
   5  -8  12    5.53    0.28
   5  -8  12    5.34    0.26
  -6   8 -12    1.08    0.12
   6  -8  12    1.05    0.15
   6  -8  12    1.48    0.16
   6  -8  12    1.27    0.14
   6  -8  12    1.07    0.14
  -7   8 -12    2.19    0.17
   7  -8  12    2.19    0.19
   7  -8  12    2.32    0.20
   7  -8  12    2.25    0.21
   7  -8  12    2.18    0.20
  -8   8 -12   10.46    0.47
   8  -8  12   10.78    0.46
   8  -8  12   10.72    0.45
   8  -8  12   10.29    0.44
   9  -8  12   12.40    0.54
   9  -8  12   12.94    0.52
   9  -8  12   13.92    0.54
  10  -8  12    0.02    0.10
  10  -8  12   -0.03    0.09
  10  -8  12   -0.06    0.09
  11  -8  12    0.02    0.09
  11  -8  12   -0.07    0.10
  11  -8  12   -0.06    0.11
  12  -8  12    2.23    0.22
  12  -8  12    1.96    0.25
  12  -8  12    2.99    0.29
  13  -8  12    1.70    0.24
  13  -8  12    1.32    0.22
  14  -8  12    0.06    0.13
  14  -8  12    0.08    0.12
 -10  -7  12    3.68    0.25
  -9  -7  12   26.54    0.93
  -8  -7  12   21.61    0.77
  -7  -7  12   26.00    0.89
  -6  -7  12    2.56    0.16
  -5  -7  12    3.03    0.16
  -5  -7  12    2.79    0.19
  -4  -7  12   38.79    1.22
  -4  -7  12   38.72    1.24
  -3  -7  12    2.03    0.16
  -3  -7  12    1.77    0.17
  -3  -7  12    1.67    0.11
  -2  -7  12   27.78    0.88
  -2  -7  12   25.56    0.86
  -2  -7  12   27.08    0.88
  -1  -7  12    1.19    0.13
  -1  -7  12    1.11    0.13
  -1  -7  12    1.30    0.14
   0   7 -12    0.07    0.05
   0  -7  12    0.01    0.06
   0  -7  12    0.08    0.06
   0  -7  12    0.02    0.04
   0  -7  12    0.03    0.06
  -1   7 -12    3.55    0.17
   1  -7  12    3.35    0.20
   1  -7  12    3.55    0.21
   1  -7  12    3.82    0.19
   1  -7  12    3.53    0.19
  -2   7 -12    6.69    0.26
  -2   7 -12    6.39    0.24
   2  -7  12    6.44    0.27
   2  -7  12    6.44    0.29
   2  -7  12    6.40    0.28
   2  -7  12    6.16    0.29
  -3   7 -12    1.59    0.11
  -3   7 -12    1.23    0.09
   3  -7  12    1.16    0.13
   3  -7  12    1.18    0.12
   3  -7  12    1.11    0.13
   3  -7  12    1.24    0.12
  -4   7 -12    6.56    0.27
   4  -7  12    5.91    0.29
   4  -7  12    6.83    0.28
   4  -7  12    6.95    0.31
   4  -7  12    6.37    0.30
  -5   7 -12    1.27    0.12
   5  -7  12    1.16    0.14
   5  -7  12    0.89    0.13
   5  -7  12    0.85    0.11
   5  -7  12    0.87    0.12
  -6   7 -12    0.04    0.06
   6  -7  12    0.06    0.08
   6  -7  12   -0.03    0.07
   6  -7  12   -0.04    0.06
   6  -7  12    0.00    0.07
  -7   7 -12    8.98    0.40
   7  -7  12    9.55    0.39
   7  -7  12    9.32    0.41
   7  -7  12    9.32    0.39
   7  -7  12    9.07    0.43
  -8   7 -12   16.73    0.63
   8  -7  12   15.56    0.60
   8  -7  12   16.21    0.60
   8  -7  12   16.18    0.61
  -9   7 -12   18.11    0.72
   9  -7  12   19.48    0.69
   9  -7  12   18.38    0.67
   9  -7  12   18.65    0.70
  10  -7  12    0.04    0.08
  10  -7  12   -0.03    0.09
  10  -7  12    0.16    0.11
  11  -7  12    0.22    0.09
  11  -7  12    0.00    0.11
  11  -7  12    0.17    0.11
  12  -7  12    2.92    0.22
  12  -7  12    2.38    0.25
  12  -7  12    2.43    0.26
  13  -7  12   -0.04    0.12
  13  -7  12    0.00    0.12
  14  -7  12    0.19    0.15
  14  -7  12    0.22    0.16
 -11  -6  12   10.53    0.49
 -10  -6  12    1.56    0.17
  -9  -6  12    0.27    0.10
  -8  -6  12   14.92    0.57
  -7  -6  12    0.61    0.10
  -6  -6  12   24.89    0.85
  -6  -6  12   25.02    0.81
  -5  -6  12   32.78    1.03
  -5  -6  12   32.13    1.06
  -4  -6  12   22.04    0.72
  -4  -6  12   20.96    0.71
  -3  -6  12    7.34    0.28
  -3  -6  12    7.42    0.30
  -3  -6  12    6.77    0.30
   2   6 -12    0.12    0.07
   2   6 -12    0.19    0.06
  -2  -6  12    0.15    0.06
  -2  -6  12    0.10    0.06
  -2  -6  12    0.06    0.05
   1   6 -12   14.32    0.48
  -1  -6  12   13.96    0.50
  -1  -6  12   13.77    0.48
  -1  -6  12   14.26    0.50
   0   6 -12   14.65    0.48
   0  -6  12   14.73    0.53
   0  -6  12   15.38    0.53
   0  -6  12   14.61    0.50
   0  -6  12   15.21    0.52
  -1   6 -12   20.66    0.63
  -1   6 -12   20.04    0.65
   1  -6  12   19.51    0.68
   1  -6  12   19.06    0.64
   1  -6  12   20.79    0.70
   1  -6  12   20.92    0.67
  -2   6 -12   23.13    0.72
  -2   6 -12   23.23    0.76
   2  -6  12   24.29    0.80
   2  -6  12   23.48    0.77
   2  -6  12   23.08    0.73
   2  -6  12   21.80    0.76
  -3   6 -12    1.27    0.10
  -3   6 -12    1.39    0.11
   3  -6  12    0.93    0.11
   3  -6  12    1.38    0.11
   3  -6  12    1.38    0.12
   3  -6  12    1.08    0.13
  -4   6 -12   14.06    0.51
   4  -6  12   14.27    0.51
   4  -6  12   14.26    0.54
   4  -6  12   13.36    0.51
   4  -6  12   13.76    0.48
  -5   6 -12    7.34    0.31
   5  -6  12    6.80    0.31
   5  -6  12    7.20    0.34
   5  -6  12    7.16    0.29
   5  -6  12    6.89    0.31
  -6   6 -12    5.90    0.28
   6  -6  12    5.88    0.27
   6  -6  12    6.12    0.28
   6  -6  12    5.67    0.31
   6  -6  12    5.82    0.29
  -7   6 -12    6.05    0.31
   7  -6  12    6.26    0.30
   7  -6  12    6.34    0.31
   7  -6  12    6.78    0.35
   7  -6  12    6.18    0.30
  -8   6 -12   11.96    0.51
   8  -6  12   12.82    0.49
   8  -6  12   11.54    0.54
   8  -6  12   12.91    0.51
   8  -6  12   12.72    0.49
  -9   6 -12    0.34    0.10
   9  -6  12    0.59    0.14
   9  -6  12    0.50    0.11
   9  -6  12    0.45    0.13
  10  -6  12   37.72    1.26
  10  -6  12   37.87    1.26
  10  -6  12   37.95    1.22
  11  -6  12    3.82    0.24
  11  -6  12    4.08    0.30
  11  -6  12    3.39    0.27
  12  -6  12    0.38    0.11
  12  -6  12    0.76    0.18
  12  -6  12    0.69    0.17
  13  -6  12    0.84    0.20
  13  -6  12    0.60    0.17
  14  -6  12    3.54    0.34
  14  -6  12    4.37    0.34
 -11  -5  12    0.58    0.13
 -10  -5  12   21.96    0.82
  -9  -5  12    0.44    0.11
  -8  -5  12    8.98    0.39
  -7  -5  12    5.12    0.22
  -7  -5  12    4.86    0.25
  -6  -5  12    0.18    0.07
  -6  -5  12    0.26    0.07
   5   5 -12   24.17    0.75
  -5  -5  12   23.98    0.77
  -5  -5  12   23.72    0.81
   4   5 -12   32.24    1.00
  -4  -5  12   33.19    1.08
  -4  -5  12   33.55    1.03
   3   5 -12   80.38    2.32
   3   5 -12   80.52    2.34
  -3  -5  12   80.55    2.34
  -3  -5  12   78.09    2.37
  -3  -5  12   79.09    2.50
   2   5 -12    1.18    0.10
   2   5 -12    1.47    0.10
  -2  -5  12    1.26    0.11
  -2  -5  12    1.40    0.11
  -2  -5  12    1.51    0.12
   1   5 -12    3.02    0.11
   1   5 -12    2.91    0.14
   1   5 -12    2.86    0.14
  -1  -5  12    2.85    0.17
  -1  -5  12    2.96    0.16
  -1  -5  12    2.80    0.16
   0   5 -12    6.66    0.23
   0   5 -12    6.44    0.24
   0   5 -12    6.76    0.26
   0  -5  12    6.60    0.24
   0  -5  12    6.53    0.29
   0  -5  12    6.21    0.27
   0  -5  12    6.38    0.26
  -1   5 -12   12.13    0.42
  -1   5 -12   11.74    0.38
   1  -5  12   11.50    0.46
   1  -5  12   11.92    0.39
   1  -5  12   12.61    0.43
  -2   5 -12    0.04    0.04
  -2   5 -12    0.05    0.03
   2  -5  12    0.03    0.04
   2  -5  12    0.05    0.06
   2  -5  12    0.04    0.06
  -3   5 -12    4.53    0.22
   3  -5  12    4.56    0.19
   3  -5  12    4.97    0.23
   3  -5  12    4.81    0.25
  -4   5 -12    4.53    0.22
   4  -5  12    4.78    0.25
   4  -5  12    4.47    0.20
   4  -5  12    4.23    0.22
  -5   5 -12   18.06    0.63
   5  -5  12   17.49    0.61
   5  -5  12   17.11    0.58
   5  -5  12   16.56    0.66
  -6   5 -12    1.35    0.14
   6  -5  12    1.67    0.17
   6  -5  12    1.75    0.14
   6  -5  12    1.35    0.16
  -7   5 -12    0.94    0.13
   7  -5  12    1.20    0.17
   7  -5  12    1.33    0.14
   7  -5  12    1.32    0.16
  -8   5 -12    8.97    0.41
   8  -5  12    8.74    0.38
   8  -5  12    8.22    0.39
   8  -5  12    8.04    0.36
  -9   5 -12    1.34    0.17
   9  -5  12    1.58    0.19
   9  -5  12    1.40    0.17
   9  -5  12    1.72    0.17
 -10   5 -12   31.68    1.16
  10  -5  12   32.38    1.11
  10  -5  12   32.07    1.10
  10  -5  12   33.23    1.06
  11  -5  12   -0.11    0.09
  11  -5  12    0.15    0.08
  11  -5  12   -0.25    0.10
  12  -5  12    5.65    0.37
  12  -5  12    5.46    0.36
  13  -5  12    5.46    0.38
  13  -5  12    4.74    0.34
  14  -5  12    0.31    0.16
  14  -5  12    0.30    0.15
 -12  -4  12    0.33    0.13
 -11  -4  12    2.34    0.22
 -10  -4  12    0.98    0.15
  -9  -4  12    0.05    0.08
  -8  -4  12    3.76    0.23
  -7  -4  12   38.29    1.15
  -7  -4  12   37.14    1.26
   6   4 -12    3.40    0.15
  -6  -4  12    3.67    0.17
  -6  -4  12    3.59    0.20
   5   4 -12    8.90    0.30
  -5  -4  12    8.87    0.33
  -5  -4  12    8.74    0.36
   4   4 -12   87.16    2.61
   4   4 -12   89.58    2.56
  -4  -4  12   87.43    2.62
  -4  -4  12   91.91    2.80
   3   4 -12   -0.04    0.03
   3   4 -12    0.00    0.04
   3   4 -12    0.02    0.03
  -3  -4  12    0.00    0.05
  -3  -4  12    0.03    0.05
  -3  -4  12    0.04    0.04
   2   4 -12    0.60    0.06
   2   4 -12    0.62    0.06
   2   4 -12    0.66    0.07
  -2  -4  12    0.65    0.07
  -2  -4  12    0.46    0.08
   1   4 -12    0.65    0.07
   1   4 -12    0.62    0.05
   1   4 -12    0.58    0.07
  -1  -4  12    0.78    0.08
  -1  -4  12    0.54    0.08
   0   4 -12   11.90    0.42
   0   4 -12   11.55    0.36
   0   4 -12   12.31    0.40
   0  -4  12   11.54    0.36
   0  -4  12   11.50    0.40
  -1   4 -12   22.07    0.73
  -1   4 -12   21.65    0.69
   1  -4  12   21.37    0.76
   1  -4  12   21.49    0.69
   1  -4  12   21.20    0.64
  -2   4 -12   13.68    0.50
   2  -4  12   13.15    0.47
   2  -4  12   13.93    0.43
   2  -4  12   13.47    0.53
  -3   4 -12   41.69    1.39
   3  -4  12   41.61    1.26
   3  -4  12   42.98    1.31
   3  -4  12   44.18    1.43
  -4   4 -12    3.80    0.22
   4  -4  12    4.43    0.25
   4  -4  12    3.99    0.19
   4  -4  12    4.21    0.22
  -5   4 -12    2.09    0.17
   5  -4  12    1.94    0.16
   5  -4  12    2.12    0.18
   5  -4  12    2.44    0.15
  -6   4 -12    1.91    0.17
   6  -4  12    1.77    0.14
   6  -4  12    1.94    0.17
  -7   4 -12    3.83    0.25
   7  -4  12    3.59    0.22
   7  -4  12    3.74    0.24
  -8   4 -12   36.53    1.30
   8  -4  12   38.72    1.22
   8  -4  12   37.61    1.23
  -9   4 -12    1.65    0.19
   9  -4  12    1.85    0.21
   9  -4  12    2.20    0.22
 -10   4 -12    0.21    0.12
  10  -4  12    0.30    0.10
  10  -4  12    0.22    0.12
  10  -4  12    0.42    0.14
 -11   4 -12   26.00    1.03
  11  -4  12   27.20    0.92
  11  -4  12   28.73    0.99
  11  -4  12   27.79    0.99
  12  -4  12    1.29    0.20
  12  -4  12    0.94    0.19
  13  -4  12   12.17    0.58
  13  -4  12   11.79    0.58
 -12  -3  12    0.55    0.13
 -11  -3  12   11.00    0.50
 -10  -3  12    7.91    0.39
  -9  -3  12    5.14    0.29
  -8  -3  12   30.88    1.07
  -7  -3  12    2.50    0.13
  -7  -3  12    2.28    0.18
   6   3 -12    3.72    0.13
  -6  -3  12    3.63    0.17
  -6  -3  12    3.67    0.21
   5   3 -12    0.80    0.05
   5   3 -12    0.55    0.09
  -5  -3  12    0.67    0.09
  -5  -3  12    0.81    0.09
   4   3 -12   14.28    0.43
   4   3 -12   13.85    0.48
   4   3 -12   14.08    0.51
  -4  -3  12   14.44    0.53
   3   3 -12   95.48    2.99
   3   3 -12   95.63    2.76
   3   3 -12   97.40    2.74
  -3  -3  12   93.80    3.00
  -3  -3  12   96.07    2.75
   2   3 -12   14.12    0.43
   2   3 -12   13.39    0.42
   2   3 -12   13.82    0.49
  -2  -3  12   13.87    0.44
  -2  -3  12   12.92    0.50
   1   3 -12  213.23    5.95
   1   3 -12  206.38    6.42
  -1  -3  12  206.85    5.95
  -1  -3  12  206.60    6.44
   0   3 -12    1.19    0.10
   0   3 -12    1.28    0.12
   0  -3  12    1.39    0.10
  -1   3 -12    0.56    0.07
  -1   3 -12    0.65    0.09
   1  -3  12    0.47    0.09
   1  -3  12    0.47    0.07
   1  -3  12    0.47    0.04
  -2   3 -12    3.13    0.18
   2  -3  12    2.95    0.16
   2  -3  12    3.07    0.13
   2  -3  12    2.88    0.20
  -3   3 -12    0.64    0.09
  -4   3 -12    1.30    0.14
   4  -3  12    1.56    0.11
   4  -3  12    1.52    0.16
   4  -3  12    1.43    0.14
  -5   3 -12   10.99    0.46
   5  -3  12   11.04    0.43
  -6   3 -12   21.09    0.81
   6  -3  12   23.34    0.86
   6  -3  12   22.80    0.77
  -7   3 -12    3.10    0.23
   7  -3  12    2.93    0.22
  -8   3 -12    4.50    0.29
   8  -3  12    4.83    0.29
  -9   3 -12    1.59    0.19
   9  -3  12    1.52    0.19
 -10   3 -12    4.18    0.30
  10  -3  12    4.34    0.29
 -11   3 -12    2.82    0.27
  11  -3  12    3.43    0.27
  11  -3  12    2.94    0.21
  12  -3  12    0.28    0.14
  12  -3  12    0.28    0.13
  13  -3  12    0.88    0.19
  13  -3  12    1.06    0.21
  13   2 -12    2.80    0.29
 -13  -2  12    2.25    0.25
 -12  -2  12    7.56    0.41
 -11  -2  12    3.19    0.26
 -10  -2  12   12.34    0.53
  -9  -2  12    0.41    0.11
  -8  -2  12    8.68    0.30
  -8  -2  12    9.26    0.41
  -7  -2  12    1.46    0.15
  -7  -2  12    1.62    0.10
  -6  -2  12   20.59    0.74
  -5  -2  12   20.71    0.74
  -4  -2  12    6.07    0.28
   3   2 -12    2.69    0.11
   3   2 -12    2.88    0.12
  -3  -2  12    2.78    0.11
  -3  -2  12    2.49    0.17
   2   2 -12    8.19    0.35
  -2  -2  12    8.32    0.28
  -2  -2  12    8.84    0.36
   1   2 -12    1.25    0.12
  -1  -2  12    1.04    0.09
  -1  -2  12    1.38    0.14
   0   2 -12   13.94    0.52
   0  -2  12   13.80    0.46
  -1   2 -12   61.89    1.89
   1  -2  12   57.56    1.91
   1  -2  12   58.27    1.67
   1  -2  12   57.32    1.68
   1  -2  12   57.43    1.73
  -2   2 -12   22.90    0.81
   2  -2  12   23.70    0.84
   2  -2  12   22.65    0.74
  -3   2 -12   51.34    1.70
   3  -2  12   51.01    1.57
   3  -2  12   53.46    1.74
  -4   2 -12    2.67    0.19
   4  -2  12    2.65    0.17
  -5   2 -12    3.12    0.22
   5  -2  12    3.13    0.20
   5  -2  12    2.97    0.24
  -6   2 -12    0.04    0.07
   6  -2  12    0.12    0.09
  -7   2 -12    0.34    0.11
   7  -2  12    0.35    0.11
  -8   2 -12    0.18    0.10
   8  -2  12    0.00    0.09
  -9   2 -12    0.37    0.12
   9  -2  12    0.09    0.11
 -10   2 -12   -0.12    0.10
  10  -2  12   -0.03    0.11
 -11   2 -12   10.02    0.51
  11  -2  12    9.99    0.50
 -12   2 -12    1.86    0.24
  12  -2  12    2.02    0.26
  13  -2  12    0.81    0.18
  13   1 -12    5.79    0.37
 -13  -1  12    6.04    0.37
  12   1 -12    2.07    0.23
 -12  -1  12    1.83    0.22
  11   1 -12    0.93    0.16
 -11  -1  12    0.54    0.14
  10   1 -12    0.25    0.11
 -10  -1  12    0.17    0.10
   9   1 -12   14.63    0.55
  -9  -1  12   14.38    0.60
   8   1 -12   10.27    0.41
  -8  -1  12   10.94    0.46
   7   1 -12   42.51    1.28
  -7  -1  12   40.97    1.40
   6   1 -12    0.97    0.10
  -6  -1  12    0.96    0.12
   5   1 -12    3.30    0.15
  -5  -1  12    3.12    0.20
   4   1 -12   63.59    1.88
  -4  -1  12   66.99    2.10
   3   1 -12    4.54    0.15
  -3  -1  12    4.39    0.16
  -3  -1  12    4.18    0.23
   2   1 -12   77.40    2.47
  -2  -1  12   79.58    2.24
  -2  -1  12   75.27    2.47
   1   1 -12    8.25    0.36
  -1  -1  12    7.97    0.36
  -1  -1  12    8.61    0.29
   0   1 -12   19.45    0.70
   0  -1  12   18.81    0.55
   0  -1  12   18.76    0.61
  -1   1 -12   19.24    0.71
   1  -1  12   18.51    0.63
   1  -1  12   19.96    0.59
  -2   1 -12   34.21    1.16
   2  -1  12   34.81    1.19
   2  -1  12   32.35    1.06
   2  -1  12   34.27    1.03
  -3   1 -12    2.39    0.18
   3  -1  12    2.18    0.16
  -4   1 -12   11.88    0.49
   4  -1  12   11.80    0.52
   4  -1  12   11.27    0.45
  -5   1 -12    1.76    0.19
   5  -1  12    1.75    0.18
  -6   1 -12   31.96    1.14
   6  -1  12   31.86    1.06
  -7   1 -12   19.67    0.78
   7  -1  12   19.79    0.73
  -8   1 -12    2.16    0.23
   8  -1  12    2.50    0.24
  -9   1 -12    4.04    0.29
   9  -1  12    3.14    0.27
 -10   1 -12    2.55    0.26
  10  -1  12    2.73    0.27
 -11   1 -12    0.20    0.13
  11  -1  12    0.15    0.12
 -12   1 -12    0.46    0.16
  12  -1  12    0.63    0.17
  14   0 -12    2.42    0.27
 -14   0  12    2.83    0.29
  13   0 -12    0.58    0.16
 -13   0  12    1.04    0.18
  12   0 -12    6.96    0.37
 -12   0  12    6.95    0.40
  11   0 -12    0.39    0.12
 -11   0  12    0.58    0.14
  10   0 -12    3.30    0.23
 -10   0  12    3.50    0.27
   9   0 -12    3.84    0.23
  -9   0  12    3.55    0.26
   8   0 -12    4.64    0.24
  -8   0  12    4.82    0.29
   7   0 -12   20.06    0.66
  -7   0  12   19.62    0.74
   6   0 -12    3.19    0.17
  -6   0  12    3.38    0.22
   5   0 -12    0.18    0.05
  -5   0  12    0.15    0.07
   4   0 -12    0.32    0.05
  -4   0  12    0.32    0.03
  -4   0  12    0.38    0.09
   3   0 -12    5.57    0.19
  -3   0  12    5.69    0.20
  -3   0  12    6.02    0.29
   2   0 -12  154.50    4.33
  -2   0  12  150.20    4.37
  -2   0  12  153.08    4.78
   1   0 -12    6.95    0.34
  -1   0  12    7.26    0.27
  -1   0  12    7.26    0.34
  -1   0  12    7.27    0.23
   0   0 -12    3.57    0.23
   0   0  12    3.84    0.15
   0   0  12    3.71    0.18
  -1   0 -12    1.25    0.15
   1   0  12    1.12    0.12
   1   0  12    1.14    0.09
  -2   0 -12   31.69    1.08
   2   0  12   29.65    0.97
  -3   0 -12    6.11    0.33
   3   0  12    6.24    0.29
   3   0  12    6.40    0.35
   3   0  12    6.76    0.29
  -4   0 -12    2.36    0.20
   4   0  12    1.88    0.18
  -5   0 -12   89.64    2.90
   5   0  12   89.49    2.69
  -6   0 -12    0.76    0.14
  -7   0 -12    7.84    0.41
   7   0  12    8.58    0.40
  -8   0 -12    1.21    0.18
   8   0  12    1.07    0.18
  -9   0 -12   -0.02    0.10
   9   0  12   -0.06    0.09
 -10   0 -12    5.03    0.35
  10   0  12    4.36    0.33
 -11   0 -12    1.43    0.22
  11   0  12    1.06    0.20
 -12   0 -12    2.24    0.27
  12   0  12    2.29    0.27
  14  -1 -12    2.55    0.28
 -14   1  12    1.96    0.25
  13  -1 -12    0.79    0.17
 -13   1  12    1.02    0.19
  12  -1 -12    0.06    0.11
 -12   1  12    0.08    0.11
  11  -1 -12    1.39    0.18
 -11   1  12    1.64    0.20
  10  -1 -12    0.14    0.09
 -10   1  12   -0.09    0.09
   9  -1 -12   16.27    0.58
  -9   1  12   15.49    0.64
   8  -1 -12    2.12    0.16
  -8   1  12    2.18    0.21
   7  -1 -12    6.62    0.29
  -7   1  12    7.66    0.36
   6  -1 -12   17.60    0.58
  -6   1  12   17.69    0.67
   5  -1 -12   10.12    0.36
  -5   1  12   11.08    0.46
   4  -1 -12   18.97    0.59
  -4   1  12   19.70    0.58
  -4   1  12   18.53    0.57
  -4   1  12   18.70    0.71
   3  -1 -12   12.06    0.39
  -3   1  12   12.06    0.39
  -3   1  12   11.84    0.38
  -3   1  12   12.63    0.50
   2  -1 -12    0.05    0.04
  -2   1  12   -0.09    0.06
  -2   1  12    0.00    0.03
   1  -1 -12   48.75    1.66
  -1   1  12   50.97    1.66
  -1   1  12   49.56    1.45
   0  -1 -12    5.24    0.28
   0  -1 -12    5.33    0.29
   0   1  12    5.00    0.21
  -1  -1 -12   39.01    1.31
  -1  -1 -12   36.41    1.29
  -2  -1 -12    4.13    0.26
  -2  -1 -12    4.06    0.26
   2   1  12    4.08    0.21
  -3  -1 -12    0.75    0.13
  -4  -1 -12    0.09    0.09
   4   1  12    0.02    0.07
  -5  -1 -12   18.06    0.73
   5   1  12   18.14    0.68
  -6  -1 -12    5.75    0.35
   6   1  12    5.92    0.34
  -7  -1 -12    0.66    0.15
   7   1  12    0.62    0.14
  -8  -1 -12    5.29    0.35
   8   1  12    5.01    0.32
  -9  -1 -12    0.00    0.11
   9   1  12    0.08    0.11
 -10  -1 -12    1.57    0.23
  10   1  12    1.67    0.24
 -11  -1 -12    1.03    0.20
  11   1  12    1.34    0.21
  14  -2 -12    7.14    0.41
 -14   2  12    7.11    0.45
  13  -2 -12    1.84    0.22
 -13   2  12    1.59    0.23
  12  -2 -12    0.21    0.12
 -12   2  12    0.23    0.12
  11  -2 -12    0.00    0.08
 -11   2  12    0.01    0.10
  10  -2 -12    0.12    0.09
 -10   2  12    0.06    0.10
   9  -2 -12    8.10    0.36
  -9   2  12    8.15    0.41
   8  -2 -12    8.94    0.36
  -8   2  12    8.90    0.43
   7  -2 -12    1.58    0.13
  -7   2  12    1.26    0.16
   6  -2 -12   39.75    1.17
  -6   2  12   36.86    1.32
   5  -2 -12    1.87    0.12
  -5   2  12    1.92    0.09
  -5   2  12    1.63    0.17
   4  -2 -12    0.62    0.08
  -4   2  12    0.57    0.12
  -4   2  12    0.68    0.07
  -4   2  12    0.71    0.07
   3  -2 -12    1.73    0.11
  -3   2  12    1.76    0.10
  -3   2  12    1.52    0.17
   2  -2 -12   19.69    0.63
  -2   2  12   19.81    0.74
  -2   2  12   19.49    0.61
   1  -2 -12    6.62    0.32
   1  -2 -12    6.15    0.24
  -1   2  12    5.31    0.22
   0  -2 -12    0.25    0.10
   0  -2 -12    0.17    0.09
   0   2  12    0.22    0.06
  -1  -2 -12    2.28    0.19
  -1  -2 -12    2.39    0.21
   1   2  12    2.37    0.16
  -2  -2 -12    3.67    0.26
  -2  -2 -12    3.86    0.26
  -3  -2 -12    0.07    0.09
  -3  -2 -12    0.27    0.11
  -4  -2 -12   11.34    0.52
  -5  -2 -12    1.46    0.19
  -6  -2 -12    6.64    0.40
   6   2  12    7.77    0.39
  -7  -2 -12    2.89    0.27
   7   2  12    3.48    0.28
  -8  -2 -12   -0.03    0.10
   8   2  12    0.04    0.10
  -9  -2 -12    7.31    0.43
   9   2  12    6.82    0.42
 -10  -2 -12    1.89    0.25
  10   2  12    1.67    0.23
  15  -3 -12    0.21    0.15
 -15   3  12    0.14    0.14
  14  -3 -12    2.33    0.26
 -14   3  12    1.89    0.25
  13  -3 -12    3.34    0.27
 -13   3  12    3.60    0.31
  12  -3 -12    1.74    0.20
 -12   3  12    1.48    0.22
  11  -3 -12    0.24    0.11
 -11   3  12    0.32    0.12
  10  -3 -12    0.57    0.12
 -10   3  12    0.30    0.12
   9  -3 -12    5.09    0.27
  -9   3  12    5.71    0.33
   8  -3 -12    0.50    0.10
  -8   3  12    0.55    0.13
   7  -3 -12    1.61    0.15
  -7   3  12    1.78    0.07
  -7   3  12    1.83    0.20
   6  -3 -12    0.96    0.11
  -6   3  12    0.91    0.07
  -6   3  12    1.15    0.16
   5  -3 -12    5.81    0.25
  -5   3  12    5.96    0.24
  -5   3  12    5.95    0.33
  -5   3  12    5.94    0.23
   4  -3 -12   21.77    0.70
  -4   3  12   21.66    0.82
  -4   3  12   22.27    0.69
   3  -3 -12   85.61    2.53
  -3   3  12   87.75    2.80
   2  -3 -12   34.36    1.04
   2  -3 -12   33.54    1.17
  -2   3  12   33.52    1.02
  -2   3  12   32.43    1.17
   1  -3 -12   66.75    2.20
   1  -3 -12   66.84    2.00
  -1   3  12   68.42    1.99
   0  -3 -12    0.05    0.09
   0  -3 -12    0.14    0.09
  -1  -3 -12    7.03    0.38
  -1  -3 -12    7.73    0.40
  -2  -3 -12    0.08    0.08
  -2  -3 -12   -0.03    0.09
  -3  -3 -12    2.97    0.25
  -3  -3 -12    2.53    0.24
  -4  -3 -12    5.85    0.36
  -5  -3 -12    6.87    0.40
  -6  -3 -12    6.54    0.39
  -7  -3 -12    0.30    0.14
   7   3  12    0.41    0.15
  -8  -3 -12    6.56    0.41
   8   3  12    5.99    0.40
  -9  -3 -12    2.47    0.29
   9   3  12    2.57    0.29
 -10  -3 -12    0.24    0.14
  10   3  12    0.22    0.16
  15  -4 -12    0.93    0.20
 -15   4  12    0.97    0.22
  14  -4 -12    1.63    0.22
 -14   4  12    1.66    0.24
  13  -4 -12    0.17    0.13
 -13   4  12    0.20    0.13
  12  -4 -12    7.02    0.38
 -12   4  12    7.60    0.44
  11  -4 -12    1.91    0.20
 -11   4  12    2.47    0.25
  10  -4 -12    5.86    0.30
 -10   4  12    5.32    0.35
   9  -4 -12    9.56    0.40
  -9   4  12    9.47    0.47
   8  -4 -12    2.81    0.19
  -8   4  12    2.22    0.23
  -8   4  12    2.49    0.11
   7  -4 -12    2.20    0.17
  -7   4  12    2.62    0.22
  -7   4  12    2.18    0.11
   6  -4 -12    0.21    0.08
  -6   4  12    0.07    0.03
  -6   4  12    0.33    0.12
   5  -4 -12   49.06    1.51
  -5   4  12   50.18    1.49
  -5   4  12   50.24    1.69
   4  -4 -12    0.02    0.07
  -4   4  12    0.07    0.08
  -4   4  12    0.05    0.06
   3  -4 -12   24.93    0.80
  -3   4  12   23.59    0.90
   2  -4 -12   50.71    1.50
   2  -4 -12   46.90    1.64
  -2   4  12   48.51    1.66
   1  -4 -12   36.49    1.18
   1  -4 -12   38.68    1.31
   0  -4 -12   15.74    0.65
   0  -4 -12   14.57    0.62
  -1  -4 -12   -0.01    0.07
  -1  -4 -12    0.08    0.10
  -3  -4 -12   -0.11    0.09
  -4  -4 -12   21.63    0.87
  -5  -4 -12    1.39    0.20
  -6  -4 -12    7.97    0.45
  -7  -4 -12    0.75    0.17
  -8  -4 -12    1.79    0.24
   8   4  12    1.84    0.24
  -9  -4 -12    0.39    0.16
   9   4  12    0.59    0.19
  15  -5 -12    3.50    0.33
 -15   5  12    3.08    0.33
  14  -5 -12    1.63    0.23
 -14   5  12    1.92    0.27
  13  -5 -12    2.11    0.24
 -13   5  12    2.49    0.29
  12  -5 -12   -0.12    0.09
 -12   5  12    0.12    0.13
  11  -5 -12    0.11    0.10
 -11   5  12    0.10    0.12
  10  -5 -12    9.26    0.41
 -10   5  12    9.14    0.47
   9  -5 -12    0.61    0.12
  -9   5  12    0.64    0.15
   8  -5 -12   23.25    0.79
  -8   5  12   23.34    0.91
   7  -5 -12    0.42    0.10
  -7   5  12    0.49    0.14
  -7   5  12    0.46    0.07
   6  -5 -12   12.17    0.46
  -6   5  12   11.35    0.53
  -6   5  12   11.75    0.42
   5  -5 -12    0.11    0.09
  -5   5  12    0.16    0.11
   4  -5 -12   86.09    2.50
  -4   5  12   81.46    2.74
   3  -5 -12    2.69    0.22
   3  -5 -12    3.01    0.20
  -3   5  12    2.82    0.23
   2  -5 -12    0.16    0.08
   2  -5 -12    0.11    0.08
  -2   5  12    0.05    0.09
   1  -5 -12    4.40    0.28
   1  -5 -12    4.08    0.25
   0  -5 -12   21.99    0.88
   0  -5 -12   22.16    0.78
  -1  -5 -12    0.42    0.14
  -2  -5 -12   22.23    0.89
  -3  -5 -12    1.66    0.22
  -4  -5 -12    0.76    0.17
  -5  -5 -12    7.37    0.43
  -6  -5 -12    1.91    0.24
  -7  -5 -12    1.58    0.23
  -8  -5 -12   -0.19    0.11
  15  -6 -12    3.24    0.32
 -15   6  12    3.40    0.36
  14  -6 -12    9.22    0.48
 -14   6  12    9.60    0.55
  13  -6 -12    5.71    0.36
 -13   6  12    6.68    0.43
  12  -6 -12   16.81    0.66
 -12   6  12   16.24    0.74
  11  -6 -12    4.01    0.27
 -11   6  12    3.82    0.32
  10  -6 -12   12.75    0.53
 -10   6  12   13.68    0.62
   9  -6 -12    0.49    0.12
  -9   6  12    0.58    0.15
   8  -6 -12    2.32    0.21
  -8   6  12    3.01    0.29
   7  -6 -12   13.16    0.51
  -7   6  12   12.57    0.59
   6  -6 -12    5.97    0.31
  -6   6  12    6.23    0.37
   5  -6 -12    0.17    0.09
  -5   6  12    0.10    0.11
   4  -6 -12    5.25    0.28
  -4   6  12    4.68    0.32
   3  -6 -12    0.20    0.10
   3  -6 -12    0.23    0.10
  -3   6  12    0.15    0.10
   2  -6 -12    5.24    0.30
   2  -6 -12    5.58    0.33
   1  -6 -12    0.86    0.15
   1  -6 -12    0.17    0.08
   0  -6 -12   15.40    0.68
   0  -6 -12   14.66    0.60
  -1  -6 -12    0.44    0.15
  -2  -6 -12    7.03    0.42
  -3  -6 -12   13.54    0.64
  -4  -6 -12   17.61    0.77
  -5  -6 -12   19.33    0.83
  -6  -6 -12    2.38    0.27
  -7  -6 -12    1.84    0.25
  15  -7 -12    0.49    0.17
  14  -7 -12    2.28    0.26
  13  -7 -12    1.67    0.22
 -13   7  12    1.66    0.25
  12  -7 -12    0.42    0.15
 -12   7  12    0.52    0.16
  11  -7 -12    1.57    0.20
 -11   7  12    1.68    0.24
  10  -7 -12    0.50    0.13
 -10   7  12    0.75    0.18
   9  -7 -12    4.72    0.29
  -9   7  12    4.12    0.32
   8  -7 -12    0.06    0.10
  -8   7  12    0.20    0.13
   7  -7 -12   17.18    0.65
  -7   7  12   16.96    0.73
   6  -7 -12    0.02    0.09
  -6   7  12    0.18    0.11
   5  -7 -12    0.67    0.14
  -5   7  12    0.78    0.17
   4  -7 -12    0.83    0.15
  -4   7  12    0.52    0.15
   3  -7 -12    3.13    0.24
  -3   7  12    3.11    0.27
   2  -7 -12    8.37    0.41
   1  -7 -12   21.58    0.81
   0  -7 -12    1.43    0.20
   0  -7 -12    1.56    0.22
  -1  -7 -12    1.05    0.19
  -2  -7 -12    2.81    0.29
  -3  -7 -12    8.56    0.50
  -4  -7 -12    0.07    0.13
  -5  -7 -12    3.92    0.35
  -6  -7 -12    6.36    0.43
  15  -8 -12    0.39    0.16
  14  -8 -12    4.79    0.36
  13  -8 -12    0.40    0.15
  12  -8 -12    4.26    0.31
  11  -8 -12   -0.12    0.10
 -11   8  12    0.04    0.12
  10  -8 -12    1.28    0.19
 -10   8  12    1.23    0.20
   9  -8 -12   -0.02    0.09
  -9   8  12    0.04    0.11
   8  -8 -12    1.44    0.19
  -8   8  12    1.59    0.23
   7  -8 -12    1.21    0.17
  -7   8  12    1.25    0.20
   6  -8 -12    8.88    0.42
  -6   8  12    8.34    0.46
   5  -8 -12    4.88    0.31
  -5   8  12    4.74    0.34
   4  -8 -12   39.87    1.33
   3  -8 -12    0.09    0.11
   2  -8 -12    0.39    0.13
   1  -8 -12    3.63    0.29
   1  -8 -12    4.02    0.34
   0  -8 -12    0.94    0.20
  -1  -8 -12    3.22    0.33
  -2  -8 -12    0.14    0.15
  -3  -8 -12    0.18    0.15
  -4  -8 -12    1.00    0.21
  -5  -8 -12    2.48    0.29
  14  -9 -12    0.42    0.17
  13  -9 -12    0.80    0.19
  12  -9 -12    0.84    0.19
  11  -9 -12    0.06    0.12
  10  -9 -12    1.88    0.23
   9  -9 -12    7.95    0.42
   8  -9 -12    3.77    0.29
   7  -9 -12    8.72    0.44
   6  -9 -12   14.42    0.61
   5  -9 -12    6.71    0.38
   4  -9 -12    3.34    0.28
   3  -9 -12    1.85    0.23
   2  -9 -12    0.57    0.16
   1  -9 -12    3.62    0.30
   1  -9 -12    3.11    0.33
   0  -9 -12    7.88    0.49
  -1  -9 -12   12.57    0.64
  -2  -9 -12    1.95    0.27
  -3  -9 -12    1.92    0.28
  -4  -9 -12    0.00    0.13
  14 -10 -12    2.35    0.29
  13 -10 -12   -0.15    0.13
  12 -10 -12    6.40    0.40
  11 -10 -12    0.92    0.18
  10 -10 -12    0.98    0.19
   9 -10 -12    0.46    0.15
   8 -10 -12   13.06    0.59
   7 -10 -12    1.77    0.23
   6 -10 -12    0.38    0.15
   5 -10 -12    2.42    0.28
   4 -10 -12    0.12    0.14
   3 -10 -12    8.67    0.48
   2 -10 -12    0.27    0.15
   1 -10 -12    8.03    0.49
   1 -10 -12    6.55    0.43
   0 -10 -12    0.40    0.17
  -1 -10 -12    1.83    0.28
  -2 -10 -12    2.82    0.33
  -3 -10 -12    0.05    0.15
  13 -11 -12    0.81    0.21
  12 -11 -12    0.32    0.16
  11 -11 -12    0.66    0.18
  10 -11 -12    0.33    0.16
   9 -11 -12    1.02    0.21
   8 -11 -12    0.72    0.19
   7 -11 -12    0.00    0.13
   6 -11 -12   -0.05    0.13
   5 -11 -12    0.27    0.16
   4 -11 -12    0.35    0.16
   3 -11 -12    1.05    0.22
   2 -11 -12    1.18    0.23
   2 -11 -12    1.35    0.26
   1 -11 -12    1.52    0.26
   1 -11 -12    1.49    0.24
   0 -11 -12   29.15    1.20
  -1 -11 -12    1.07    0.24
  12 -12 -12    1.19    0.23
  11 -12 -12    1.84    0.27
  10 -12 -12    0.05    0.14
   9 -12 -12    0.25    0.15
   8 -12 -12    0.16    0.15
   7 -12 -12    1.03    0.20
   6 -12 -12    4.72    0.38
   5 -12 -12    1.10    0.23
   4 -12 -12    0.19    0.16
   3 -12 -12    8.70    0.52
   2 -12 -12    0.34    0.17
   2 -12 -12    0.31    0.18
   1 -12 -12    0.24    0.18
  11 -13 -12    1.69    0.27
  10 -13 -12   -0.10    0.14
   9 -13 -12    0.27    0.19
   8 -13 -12   -0.16    0.12
   7 -13 -12    2.48    0.32
   6 -13 -12    0.70    0.20
   5 -13 -12   -0.10    0.14
   4 -13 -12    0.81    0.21
   3 -13 -12    3.94    0.40
   4 -17  13    0.01    0.18
   4 -17  13   -0.02    0.15
   5 -17  13    2.79    0.34
   5 -17  13    2.50    0.33
   6 -17  13    0.24    0.17
   6 -17  13    0.20    0.18
   7 -17  13    2.69    0.35
   7 -17  13    2.57    0.33
   8 -17  13    9.21    0.56
   8 -17  13   10.24    0.60
   9 -17  13    2.88    0.35
   1 -16  13    2.93    0.35
   2 -16  13    1.38    0.25
   2 -16  13    0.58    0.20
   3 -16  13    0.08    0.14
   3 -16  13   -0.11    0.16
   4 -16  13    0.04    0.15
   4 -16  13   -0.17    0.14
   5 -16  13    1.11    0.23
   5 -16  13    1.55    0.26
   6 -16  13    1.05    0.23
   6 -16  13    1.36    0.24
   7 -16  13    2.37    0.30
   7 -16  13    1.97    0.28
   8 -16  13   -0.23    0.12
   8 -16  13    0.07    0.15
   9 -16  13    2.97    0.34
   9 -16  13    3.10    0.34
  10 -16  13    1.24    0.26
  10 -16  13    0.93    0.24
  11 -16  13    0.22    0.20
  11 -16  13    0.03    0.18
   0 -15  13    0.05    0.14
   1 -15  13    0.16    0.17
   1 -15  13    0.01    0.15
   2 -15  13    0.60    0.19
   2 -15  13    0.46    0.19
   3 -15  13    1.08    0.21
   3 -15  13    0.72    0.21
   4 -15  13    9.23    0.50
   4 -15  13    8.25    0.50
   5 -15  13   -0.11    0.14
   5 -15  13    0.75    0.18
   6 -15  13    2.08    0.28
   6 -15  13    1.52    0.23
   6 -15  13    1.40    0.24
   7 -15  13    0.74    0.20
   7 -15  13    0.24    0.17
   7 -15  13    0.65    0.18
   8 -15  13    0.19    0.14
   8 -15  13   -0.02    0.13
   8 -15  13    0.22    0.17
   9 -15  13    0.58    0.18
   9 -15  13    0.29    0.16
   9 -15  13    0.32    0.16
  10 -15  13   -0.33    0.12
  10 -15  13    0.16    0.14
  10 -15  13   -0.27    0.13
  11 -15  13    0.21    0.17
  11 -15  13    0.46    0.18
  11 -15  13    0.07    0.17
  12 -15  13    1.36    0.26
  12 -15  13    1.00    0.20
  12 -15  13    0.84    0.22
   0 -14  13   -0.02    0.12
   1 -14  13    3.24    0.33
   1 -14  13    4.26    0.34
   2 -14  13    3.16    0.32
   2 -14  13    3.47    0.33
   2 -14  13    3.72    0.18
   3 -14  13    4.92    0.38
   3 -14  13    4.25    0.34
   4 -14  13   10.42    0.53
   4 -14  13    9.77    0.51
   4 -14  13   10.33    0.55
   5 -14  13    0.11    0.15
   5 -14  13    0.15    0.14
   5 -14  13    0.27    0.16
   6 -14  13    0.93    0.19
   6 -14  13    0.64    0.17
   6 -14  13    0.89    0.20
   7 -14  13    0.09    0.13
   7 -14  13    0.22    0.16
   7 -14  13    0.06    0.13
   8 -14  13    0.86    0.19
   8 -14  13    0.94    0.22
   8 -14  13    1.21    0.22
   9 -14  13    1.34    0.22
   9 -14  13    1.38    0.23
   9 -14  13    0.99    0.20
  10 -14  13   17.09    0.76
  10 -14  13   18.28    0.76
  10 -14  13   18.64    0.77
  11 -14  13    0.11    0.15
  11 -14  13    0.40    0.16
  11 -14  13    0.10    0.14
  12 -14  13    2.80    0.32
  12 -14  13    2.69    0.30
  12 -14  13    2.68    0.29
  13 -14  13    3.26    0.33
  13 -14  13    3.14    0.33
  13 -14  13    3.40    0.35
   0 -13  13    8.01    0.45
   0 -13  13    7.36    0.44
   1 -13  13    0.59    0.06
   1 -13  13    0.50    0.16
   1 -13  13    0.65    0.17
   2 -13  13    5.04    0.36
   2 -13  13    4.87    0.34
   2 -13  13    5.20    0.35
   2 -13  13    4.72    0.22
   3 -13  13   14.98    0.55
   3 -13  13   15.22    0.67
   3 -13  13   15.53    0.66
   3 -13  13   16.01    0.66
   4 -13  13   13.09    0.58
   4 -13  13   13.44    0.61
   4 -13  13   12.49    0.58
   5 -13  13   30.70    1.09
   5 -13  13   30.46    1.10
   5 -13  13   30.06    1.08
   6 -13  13    2.02    0.25
   6 -13  13    2.70    0.28
   6 -13  13    2.52    0.26
   7 -13  13   17.72    0.73
   7 -13  13   18.26    0.75
   7 -13  13   19.00    0.75
   8 -13  13   -0.04    0.13
   8 -13  13   -0.08    0.11
   8 -13  13   -0.02    0.12
   9 -13  13    0.86    0.19
   9 -13  13    0.87    0.19
   9 -13  13    0.26    0.15
  10 -13  13    0.14    0.15
  10 -13  13    0.08    0.14
  10 -13  13    0.13    0.14
  11 -13  13    4.75    0.35
  11 -13  13    4.78    0.36
  11 -13  13    5.19    0.37
  12 -13  13    0.61    0.18
  12 -13  13    0.34    0.15
  12 -13  13    0.39    0.17
  13 -13  13    4.94    0.39
  13 -13  13    4.91    0.40
  13 -13  13    5.46    0.37
  -1 -12  13    4.53    0.33
   0 -12  13    1.45    0.20
   0 -12  13    1.15    0.20
   0 -12  13    1.28    0.21
   1 -12  13    6.99    0.26
   1 -12  13    6.32    0.37
   1 -12  13    6.44    0.39
   1 -12  13    6.17    0.36
   2 -12  13    2.00    0.23
   2 -12  13    1.97    0.23
   2 -12  13    2.21    0.14
   2 -12  13    2.31    0.23
   3 -12  13    0.09    0.11
   3 -12  13    0.02    0.10
   3 -12  13   -0.02    0.06
   3 -12  13    0.21    0.13
   4 -12  13    3.60    0.28
   4 -12  13    3.72    0.28
   4 -12  13    3.55    0.21
   4 -12  13    3.91    0.28
   5 -12  13    0.02    0.10
   5 -12  13    0.12    0.11
   5 -12  13    0.01    0.11
   6 -12  13   11.21    0.50
   6 -12  13   10.79    0.51
   6 -12  13   11.32    0.52
   7 -12  13    0.31    0.13
   7 -12  13    0.21    0.13
   7 -12  13    0.58    0.15
   8 -12  13    6.91    0.39
   8 -12  13    7.03    0.39
   8 -12  13    6.22    0.37
   9 -12  13    8.87    0.45
   9 -12  13    9.37    0.46
   9 -12  13    9.19    0.48
  10 -12  13    3.31    0.28
  10 -12  13    2.95    0.31
  10 -12  13    3.12    0.27
  11 -12  13    1.71    0.24
  11 -12  13    2.00    0.23
  11 -12  13    2.07    0.25
  12 -12  13   -0.05    0.11
  12 -12  13   -0.04    0.12
  12 -12  13    0.18    0.15
  13 -12  13    1.00    0.21
  13 -12  13    0.97    0.19
  13 -12  13    0.56    0.18
  14 -12  13    0.05    0.17
  14 -12  13    0.81    0.18
  14 -12  13    0.53    0.17
  -1 -11  13   -0.02    0.10
  -1 -11  13    0.06    0.11
  -1 -11  13   -0.05    0.10
   0 -11  13    0.73    0.15
   0 -11  13    0.41    0.13
   0 -11  13    0.58    0.15
   1 -11  13    3.63    0.26
   1 -11  13    3.64    0.27
   1 -11  13    4.36    0.30
   1 -11  13    4.02    0.18
   2 -11  13   33.98    1.14
   2 -11  13   33.23    1.15
   2 -11  13   35.48    1.16
   2 -11  13   32.86    1.10
   3 -11  13    9.37    0.45
   3 -11  13    9.67    0.44
   3 -11  13    8.84    0.37
   3 -11  13    9.21    0.43
   4 -11  13    0.37    0.12
   4 -11  13    0.30    0.12
   4 -11  13    0.30    0.08
   4 -11  13    0.31    0.12
   5 -11  13    0.03    0.06
   5 -11  13    0.02    0.09
   5 -11  13   -0.12    0.08
   5 -11  13    0.03    0.09
   6 -11  13   10.86    0.48
   6 -11  13   11.19    0.49
   6 -11  13   10.36    0.47
   7 -11  13    0.67    0.14
   7 -11  13    0.51    0.15
   7 -11  13    0.55    0.13
   8 -11  13    0.01    0.11
   8 -11  13    0.15    0.11
   8 -11  13   -0.06    0.08
   9 -11  13    7.62    0.41
   9 -11  13    7.02    0.37
   9 -11  13    6.82    0.38
  10 -11  13    0.86    0.16
  10 -11  13    0.71    0.16
  10 -11  13    0.73    0.18
  11 -11  13    7.11    0.39
  11 -11  13    7.11    0.42
  11 -11  13    6.80    0.40
  12 -11  13    0.73    0.17
  12 -11  13    0.62    0.16
  12 -11  13    1.10    0.21
  13 -11  13    3.85    0.29
  13 -11  13    3.48    0.33
  13 -11  13    3.91    0.35
  14 -11  13    1.69    0.26
  14 -11  13    1.36    0.24
  -7 -10  13    1.64    0.14
  -6 -10  13    0.09    0.05
  -2 -10  13    1.52    0.20
  -2 -10  13    2.28    0.21
  -1 -10  13   11.20    0.49
  -1 -10  13   11.24    0.49
  -1 -10  13   11.23    0.48
   0 -10  13    0.98    0.09
   0 -10  13    0.90    0.15
   0 -10  13    1.04    0.16
   0 -10  13    0.84    0.14
   1 -10  13    2.34    0.22
   1 -10  13    2.27    0.14
   1 -10  13    2.32    0.22
   1 -10  13    2.54    0.21
   2 -10  13   20.75    0.75
   2 -10  13   21.81    0.77
   2 -10  13   20.71    0.72
   2 -10  13   21.66    0.78
   3 -10  13    0.07    0.08
   3 -10  13   -0.07    0.08
   3 -10  13    0.05    0.09
   3 -10  13   -0.04    0.05
   4 -10  13    0.00    0.06
   4 -10  13   -0.07    0.09
   4 -10  13   -0.03    0.08
   4 -10  13    0.04    0.09
   5 -10  13    0.07    0.09
   5 -10  13    0.08    0.07
   5 -10  13    0.01    0.09
   5 -10  13   -0.10    0.09
   6 -10  13    0.31    0.12
   6 -10  13    0.40    0.12
   6 -10  13    0.52    0.12
   7 -10  13   10.87    0.47
   7 -10  13   10.65    0.47
   7 -10  13   10.04    0.45
   8 -10  13    0.61    0.14
   8 -10  13    0.39    0.12
   8 -10  13    0.33    0.12
   9 -10  13   -0.06    0.09
   9 -10  13   -0.03    0.09
   9 -10  13    0.06    0.10
  10 -10  13    0.48    0.14
  10 -10  13    0.22    0.11
  10 -10  13    0.16    0.13
  11 -10  13    0.08    0.11
  11 -10  13    0.02    0.11
  11 -10  13    0.24    0.12
  12 -10  13   -0.01    0.10
  12 -10  13   -0.02    0.12
  12 -10  13    0.00    0.13
  13 -10  13    4.29    0.33
  13 -10  13    4.23    0.30
  13 -10  13    4.22    0.34
  14 -10  13    0.29    0.16
  14 -10  13    0.41    0.17
  -8  -9  13    4.28    0.23
  -7  -9  13   -0.10    0.06
  -6  -9  13    4.95    0.23
  -5  -9  13    5.77    0.24
  -4  -9  13    2.81    0.21
  -4  -9  13    2.52    0.13
  -3  -9  13    2.63    0.20
  -2  -9  13   11.94    0.50
  -2  -9  13   12.56    0.50
  -1  -9  13   -0.02    0.07
  -1  -9  13    0.10    0.09
  -1  -9  13    0.00    0.08
   0  -9  13    3.69    0.24
   0  -9  13    3.57    0.17
   0  -9  13    3.54    0.24
   0  -9  13    3.58    0.23
   1  -9  13    1.03    0.10
   1  -9  13    0.92    0.14
   1  -9  13    0.77    0.13
   1  -9  13    0.80    0.12
   2  -9  13    6.86    0.29
   2  -9  13    7.24    0.32
   2  -9  13    7.10    0.34
   2  -9  13    6.48    0.33
   3  -9  13   18.24    0.66
   3  -9  13   18.35    0.64
   3  -9  13   17.46    0.66
   3  -9  13   17.74    0.64
  -4   9 -13    6.87    0.27
   4  -9  13    7.23    0.32
   4  -9  13    7.18    0.32
   4  -9  13    7.22    0.35
   4  -9  13    6.47    0.33
  -5   9 -13    2.10    0.14
   5  -9  13    1.57    0.17
   5  -9  13    1.91    0.18
   5  -9  13    2.02    0.19
   5  -9  13    2.05    0.18
   6  -9  13    4.68    0.29
   6  -9  13    5.30    0.28
   6  -9  13    5.08    0.29
   6  -9  13    5.73    0.31
   7  -9  13   12.87    0.52
   7  -9  13   14.09    0.56
   7  -9  13   13.46    0.54
   8  -9  13    0.81    0.15
   8  -9  13    1.42    0.18
   8  -9  13    1.31    0.17
   9  -9  13    5.35    0.32
   9  -9  13    5.23    0.31
   9  -9  13    5.11    0.30
  10  -9  13    0.16    0.12
  10  -9  13   -0.04    0.08
  10  -9  13    0.22    0.11
  11  -9  13   10.06    0.50
  11  -9  13   11.18    0.50
  11  -9  13   10.52    0.47
  12  -9  13    7.24    0.38
  12  -9  13    7.30    0.42
  12  -9  13    7.36    0.43
  13  -9  13    7.13    0.43
  13  -9  13    6.90    0.37
  13  -9  13    6.88    0.42
  14  -9  13    0.23    0.17
  14  -9  13    0.41    0.17
  -9  -8  13    0.10    0.08
  -8  -8  13    1.21    0.13
  -7  -8  13    2.83    0.18
  -6  -8  13   -0.03    0.05
  -5  -8  13    1.90    0.17
  -5  -8  13    1.77    0.13
  -4  -8  13    1.99    0.18
  -4  -8  13    1.74    0.12
  -3  -8  13    0.88    0.08
  -3  -8  13    0.81    0.13
  -2  -8  13    2.44    0.19
  -2  -8  13    2.68    0.19
  -1  -8  13    0.10    0.08
  -1  -8  13    0.23    0.09
  -1  -8  13    0.30    0.09
   0  -8  13   17.16    0.61
   0  -8  13   16.78    0.58
   0  -8  13   15.96    0.60
   0  -8  13   16.76    0.59
   1  -8  13    2.66    0.19
   1  -8  13    2.87    0.20
   1  -8  13    3.11    0.19
   1  -8  13    2.74    0.16
   2  -8  13   17.55    0.63
   2  -8  13   17.81    0.61
   2  -8  13   16.76    0.63
   2  -8  13   18.23    0.64
  -3   8 -13    1.25    0.09
   3  -8  13    1.51    0.14
   3  -8  13    1.06    0.14
   3  -8  13    1.08    0.14
   3  -8  13    1.31    0.13
  -4   8 -13    1.76    0.12
   4  -8  13    1.91    0.18
   4  -8  13    1.34    0.15
   4  -8  13    1.82    0.15
   4  -8  13    1.82    0.15
  -5   8 -13    9.73    0.38
   5  -8  13    9.18    0.41
   5  -8  13    9.83    0.41
   5  -8  13    9.73    0.42
   5  -8  13   10.25    0.39
  -6   8 -13    7.80    0.33
   6  -8  13    7.72    0.37
   6  -8  13    7.53    0.35
   6  -8  13    7.63    0.36
   6  -8  13    7.16    0.33
  -7   8 -13   44.55    1.56
   7  -8  13   49.60    1.48
   7  -8  13   46.99    1.50
   7  -8  13   47.87    1.51
   8  -8  13    8.13    0.37
   8  -8  13    7.86    0.37
   8  -8  13    8.11    0.39
   9  -8  13    1.68    0.20
   9  -8  13    1.86    0.20
   9  -8  13    1.71    0.19
  10  -8  13   23.63    0.86
  10  -8  13   22.18    0.81
  10  -8  13   23.36    0.84
  11  -8  13    0.92    0.17
  11  -8  13    1.14    0.19
  11  -8  13    1.20    0.17
  12  -8  13    7.70    0.43
  12  -8  13    7.70    0.43
  12  -8  13    7.15    0.37
  13  -8  13    1.05    0.21
  13  -8  13    0.69    0.17
  14  -8  13    0.57    0.18
  14  -8  13    1.01    0.19
 -10  -7  13    5.66    0.31
  -9  -7  13    6.33    0.32
  -8  -7  13    5.05    0.27
  -7  -7  13    6.42    0.30
  -6  -7  13    0.53    0.09
  -5  -7  13   17.97    0.64
  -5  -7  13   18.43    0.63
  -4  -7  13    4.46    0.24
  -4  -7  13    4.23    0.21
  -3  -7  13    2.19    0.17
  -3  -7  13    1.83    0.13
  -3  -7  13    2.01    0.16
  -2  -7  13   11.11    0.41
  -2  -7  13   12.04    0.45
  -2  -7  13   11.05    0.44
   1   7 -13    8.47    0.33
  -1  -7  13    8.31    0.35
  -1  -7  13    8.49    0.36
  -1  -7  13    8.32    0.34
   0   7 -13    3.64    0.18
   0  -7  13    3.80    0.21
   0  -7  13    3.65    0.19
   0  -7  13    3.81    0.19
   0  -7  13    3.45    0.21
  -1   7 -13   28.54    0.89
   1  -7  13   28.49    0.95
   1  -7  13   28.96    0.91
   1  -7  13   30.20    0.94
   1  -7  13   29.13    0.98
  -2   7 -13    3.56    0.17
  -2   7 -13    3.34    0.15
   2  -7  13    3.02    0.20
   2  -7  13    3.56    0.21
   2  -7  13    3.15    0.19
   2  -7  13    3.25    0.18
  -3   7 -13   19.17    0.62
  -3   7 -13   18.94    0.64
   3  -7  13   18.80    0.69
   3  -7  13   19.23    0.67
   3  -7  13   18.75    0.66
   3  -7  13   19.32    0.63
  -4   7 -13    0.00    0.04
   4  -7  13    0.07    0.06
   4  -7  13    0.03    0.06
   4  -7  13    0.05    0.07
   4  -7  13    0.06    0.07
  -5   7 -13   25.85    0.88
   5  -7  13   26.52    0.83
   5  -7  13   24.88    0.91
   5  -7  13   25.44    0.87
   5  -7  13   25.68    0.86
  -6   7 -13   15.73    0.60
   6  -7  13   16.85    0.60
   6  -7  13   16.38    0.57
   6  -7  13   15.33    0.63
   6  -7  13   15.84    0.59
  -7   7 -13   33.98    1.17
   7  -7  13   35.52    1.11
   7  -7  13   33.49    1.13
   7  -7  13   35.28    1.12
   7  -7  13   33.24    1.21
  -8   7 -13    0.33    0.10
   8  -7  13    0.43    0.12
   8  -7  13    0.27    0.10
   8  -7  13    0.32    0.12
   9  -7  13    5.48    0.30
   9  -7  13    5.54    0.32
   9  -7  13    5.55    0.31
  10  -7  13    4.93    0.31
  10  -7  13    5.11    0.33
  10  -7  13    4.84    0.29
  11  -7  13   39.10    1.30
  11  -7  13   41.44    1.35
  11  -7  13   40.04    1.35
  12  -7  13    1.70    0.19
  12  -7  13    1.58    0.22
  12  -7  13    1.75    0.22
  13  -7  13    0.51    0.17
  13  -7  13    0.41    0.16
  14  -7  13    8.52    0.49
  14  -7  13    8.56    0.48
 -10  -6  13    3.24    0.24
  -9  -6  13    0.02    0.08
  -8  -6  13    4.42    0.25
  -7  -6  13   -0.03    0.06
  -6  -6  13    0.94    0.11
  -6  -6  13    0.97    0.11
  -5  -6  13    4.41    0.23
  -5  -6  13    4.46    0.22
   4   6 -13    5.73    0.24
  -4  -6  13    5.74    0.25
  -4  -6  13    5.64    0.27
   3   6 -13    0.07    0.05
  -3  -6  13    0.01    0.06
  -3  -6  13    0.10    0.06
  -3  -6  13    0.06    0.05
   2   6 -13    5.66    0.24
  -2  -6  13    5.80    0.26
  -2  -6  13    5.40    0.24
  -2  -6  13    5.45    0.26
   1   6 -13    2.17    0.13
  -1  -6  13    2.59    0.16
  -1  -6  13    2.67    0.17
   0   6 -13    8.42    0.30
   0  -6  13    8.91    0.36
   0  -6  13    8.56    0.34
   0  -6  13    9.40    0.36
   0  -6  13    8.86    0.32
  -1   6 -13    4.15    0.18
  -1   6 -13    4.44    0.18
   1  -6  13    4.29    0.19
   1  -6  13    4.30    0.22
   1  -6  13    4.18    0.22
   1  -6  13    4.45    0.23
  -2   6 -13    0.05    0.04
  -2   6 -13    0.07    0.04
   2  -6  13    0.00    0.06
   2  -6  13   -0.03    0.05
   2  -6  13    0.04    0.04
   2  -6  13    0.01    0.06
  -3   6 -13   10.54    0.36
  -3   6 -13   10.59    0.39
   3  -6  13    9.91    0.40
   3  -6  13   10.87    0.43
   3  -6  13   10.43    0.37
   3  -6  13    9.81    0.40
  -4   6 -13    1.57    0.13
   4  -6  13    1.36    0.14
   4  -6  13    1.69    0.12
   4  -6  13    1.50    0.15
   4  -6  13    1.40    0.15
  -5   6 -13    0.93    0.11
   5  -6  13    0.60    0.11
   5  -6  13    0.69    0.12
   5  -6  13    0.71    0.10
   5  -6  13    0.64    0.12
  -6   6 -13   35.98    1.19
   6  -6  13   34.85    1.10
   6  -6  13   34.72    1.23
   6  -6  13   35.03    1.13
   6  -6  13   35.00    1.14
  -7   6 -13    8.25    0.37
   7  -6  13    7.37    0.39
   7  -6  13    8.20    0.36
   7  -6  13    7.41    0.36
   7  -6  13    7.67    0.34
  -8   6 -13    4.68    0.28
   8  -6  13    4.79    0.26
   8  -6  13    4.93    0.27
   8  -6  13    4.30    0.27
  -9   6 -13   -0.09    0.07
   9  -6  13   -0.07    0.09
   9  -6  13   -0.09    0.08
   9  -6  13    0.04    0.10
  10  -6  13    0.55    0.12
  10  -6  13    0.36    0.13
  10  -6  13    0.47    0.13
  11  -6  13    2.25    0.21
  11  -6  13    1.93    0.22
  11  -6  13    2.31    0.25
  12  -6  13    2.38    0.26
  12  -6  13    1.97    0.20
  12  -6  13    1.84    0.24
  13  -6  13    0.10    0.13
  13  -6  13   -0.22    0.10
  14  -6  13    1.07    0.21
  14  -6  13    1.08    0.22
 -11  -5  13    0.54    0.13
 -10  -5  13    1.87    0.20
  -9  -5  13    1.11    0.15
  -8  -5  13    2.58    0.20
  -7  -5  13   12.07    0.43
  -7  -5  13   12.42    0.48
  -6  -5  13   19.40    0.68
  -6  -5  13   18.67    0.63
   5   5 -13    8.39    0.30
  -5  -5  13    8.29    0.34
  -5  -5  13    7.96    0.32
   4   5 -13    7.00    0.26
  -4  -5  13    6.87    0.29
  -4  -5  13    6.87    0.30
   3   5 -13   33.72    1.04
   3   5 -13   33.46    1.01
  -3  -5  13   34.65    1.11
  -3  -5  13   33.17    1.06
  -3  -5  13   33.12    1.03
   2   5 -13    4.90    0.20
   2   5 -13    4.97    0.20
  -2  -5  13    4.70    0.22
  -2  -5  13    4.91    0.23
  -2  -5  13    4.98    0.23
   1   5 -13    0.32    0.04
   1   5 -13    0.31    0.06
   1   5 -13    0.22    0.05
  -1  -5  13    0.26    0.07
  -1  -5  13    0.31    0.06
   0   5 -13   33.43    1.07
   0   5 -13   34.57    0.99
   0  -5  13   33.34    1.00
   0  -5  13   33.03    1.04
  -1   5 -13    1.83    0.09
  -1   5 -13    1.82    0.12
   1  -5  13    1.87    0.10
   1  -5  13    1.92    0.15
   1  -5  13    1.99    0.14
  -2   5 -13    6.94    0.29
   2  -5  13    6.90    0.25
   2  -5  13    6.89    0.32
   2  -5  13    7.01    0.29
  -3   5 -13    1.42    0.12
   3  -5  13    1.34    0.10
   3  -5  13    1.46    0.13
   3  -5  13    1.22    0.14
  -4   5 -13    0.09    0.06
   4  -5  13    0.07    0.07
   4  -5  13    0.06    0.05
   4  -5  13    0.12    0.07
  -5   5 -13   11.85    0.47
   5  -5  13   11.42    0.50
   5  -5  13   11.35    0.46
   5  -5  13   12.21    0.43
  -6   5 -13   -0.03    0.06
   6  -5  13   -0.16    0.07
   6  -5  13   -0.03    0.08
   6  -5  13   -0.05    0.06
  -7   5 -13    0.68    0.12
   7  -5  13    0.52    0.12
   7  -5  13    0.51    0.11
   7  -5  13    0.42    0.12
  -8   5 -13    6.72    0.36
   8  -5  13    7.33    0.35
   8  -5  13    7.90    0.37
  -9   5 -13    7.40    0.40
   9  -5  13    8.79    0.40
   9  -5  13    8.23    0.37
   9  -5  13    8.24    0.41
  10  -5  13    3.08    0.25
  10  -5  13    2.77    0.21
  10  -5  13    2.24    0.23
  11  -5  13   -0.20    0.11
  11  -5  13   -0.04    0.12
  11  -5  13    0.18    0.09
  12  -5  13    2.73    0.28
  12  -5  13    3.21    0.28
  13  -5  13   12.28    0.58
  13  -5  13   11.46    0.57
 -12  -4  13    4.63    0.32
 -11  -4  13    3.26    0.26
 -10  -4  13    0.91    0.14
  -9  -4  13    0.27    0.10
  -8  -4  13    3.95    0.24
  -7  -4  13    9.94    0.42
  -7  -4  13    9.90    0.36
  -6  -4  13   45.10    1.46
  -6  -4  13   43.40    1.34
   5   4 -13    5.46    0.19
  -5  -4  13    5.05    0.23
  -5  -4  13    5.37    0.26
   4   4 -13   46.07    1.35
   4   4 -13   46.48    1.39
  -4  -4  13   45.92    1.40
  -4  -4  13   45.53    1.50
   3   4 -13   22.62    0.72
   3   4 -13   22.24    0.68
   3   4 -13   21.81    0.66
  -3  -4  13   20.67    0.75
  -3  -4  13   21.03    0.68
   2   4 -13    0.18    0.04
   2   4 -13    0.30    0.06
   2   4 -13    0.18    0.04
  -2  -4  13    0.21    0.05
  -2  -4  13    0.26    0.07
   1   4 -13   18.14    0.53
   1   4 -13   17.78    0.57
   1   4 -13   17.85    0.61
  -1  -4  13   17.40    0.64
  -1  -4  13   17.80    0.58
   0   4 -13   10.69    0.38
   0   4 -13   11.10    0.41
   0  -4  13   10.90    0.38
  -1   4 -13   32.16    1.04
   1  -4  13   31.21    1.08
   1  -4  13   30.43    0.98
   1  -4  13   32.64    0.93
  -2   4 -13    0.26    0.06
   2  -4  13    0.17    0.07
   2  -4  13    0.17    0.06
   2  -4  13    0.13    0.04
  -3   4 -13    8.10    0.33
   3  -4  13    6.43    0.30
   3  -4  13    7.60    0.36
   3  -4  13    7.31    0.27
  -4   4 -13    4.07    0.22
   4  -4  13    4.08    0.25
   4  -4  13    3.64    0.21
   4  -4  13    3.76    0.18
  -5   4 -13   40.64    1.37
   5  -4  13   41.33    1.42
   5  -4  13   42.51    1.30
   5  -4  13   39.94    1.25
  -6   4 -13   39.67    1.31
   6  -4  13   39.31    1.19
   6  -4  13   37.50    1.22
   6  -4  13   36.34    1.34
  -7   4 -13   14.25    0.59
   7  -4  13   14.90    0.57
   7  -4  13   14.81    0.54
  -8   4 -13   34.98    1.20
   8  -4  13   32.30    1.10
   8  -4  13   33.92    1.13
  -9   4 -13    2.07    0.22
   9  -4  13    1.69    0.20
   9  -4  13    1.85    0.19
 -10   4 -13    3.61    0.28
  10  -4  13    3.01    0.24
  10  -4  13    3.04    0.25
  11  -4  13    0.75    0.13
  11  -4  13    0.71    0.18
  11  -4  13    0.75    0.17
  12  -4  13    3.80    0.31
  12  -4  13    3.62    0.31
  13  -4  13    1.28    0.21
  13  -4  13    1.15    0.22
 -12  -3  13    1.87    0.22
 -11  -3  13    2.89    0.25
 -10  -3  13    1.01    0.16
  -9  -3  13    4.95    0.30
  -8  -3  13    2.38    0.20
  -7  -3  13    0.13    0.06
  -7  -3  13    0.22    0.08
  -6  -3  13   -0.03    0.06
  -6  -3  13    0.05    0.05
   5   3 -13   35.06    0.99
   5   3 -13   33.84    1.07
  -5  -3  13   34.05    1.15
   4   3 -13    4.00    0.20
   4   3 -13    4.04    0.14
   4   3 -13    3.98    0.18
  -4  -3  13    3.90    0.22
  -4  -3  13    3.76    0.15
   3   3 -13   20.99    0.64
   3   3 -13   20.88    0.72
   3   3 -13   21.02    0.63
  -3  -3  13   20.41    0.64
  -3  -3  13   21.03    0.74
   2   3 -13    0.54    0.04
   2   3 -13    0.74    0.09
   2   3 -13    0.63    0.06
  -2  -3  13    0.58    0.09
  -2  -3  13    0.59    0.06
   1   3 -13    8.51    0.30
   1   3 -13    8.37    0.34
  -1  -3  13    8.37    0.36
  -1  -3  13    8.36    0.30
   0   3 -13   14.52    0.49
   0   3 -13   15.15    0.54
   0  -3  13   14.67    0.49
  -1   3 -13    0.30    0.07
   1  -3  13    0.19    0.03
   1  -3  13    0.17    0.08
   1  -3  13    0.14    0.05
  -2   3 -13    8.15    0.34
   2  -3  13    7.89    0.37
   2  -3  13    7.26    0.31
   2  -3  13    7.85    0.26
  -3   3 -13   39.74    1.34
   3  -3  13   40.89    1.38
   3  -3  13   40.84    1.20
   3  -3  13   39.72    1.25
  -4   3 -13    7.06    0.33
   4  -3  13    6.54    0.27
   4  -3  13    6.97    0.31
   4  -3  13    7.04    0.36
  -5   3 -13    0.05    0.07
   5  -3  13    0.08    0.07
   5  -3  13    0.06    0.06
   5  -3  13    0.17    0.08
  -6   3 -13   16.60    0.64
   6  -3  13   15.47    0.59
  -7   3 -13   27.92    1.02
   7  -3  13   28.69    0.97
  -8   3 -13   18.42    0.72
   8  -3  13   17.65    0.68
  -9   3 -13   53.00    1.79
   9  -3  13   52.15    1.68
 -10   3 -13    3.67    0.29
  10  -3  13    4.08    0.29
  11  -3  13    9.26    0.48
  12  -3  13    0.29    0.15
  12  -3  13    0.23    0.14
  13  -3  13    5.57    0.37
  13  -3  13    5.06    0.38
  13   2 -13    1.06    0.20
 -13  -2  13    0.57    0.16
  12   2 -13    0.02    0.12
 -12  -2  13    0.23    0.12
 -11  -2  13    3.06    0.26
 -10  -2  13    0.17    0.10
  -9  -2  13    1.00    0.14
  -8  -2  13    0.55    0.07
  -8  -2  13    0.46    0.11
  -7  -2  13    0.19    0.05
  -7  -2  13    0.28    0.09
  -6  -2  13    0.09    0.08
  -5  -2  13   16.18    0.61
   4   2 -13   20.30    0.63
   4   2 -13   20.48    0.62
  -4  -2  13   20.40    0.73
  -4  -2  13   20.25    0.60
   3   2 -13    0.14    0.03
   3   2 -13    0.24    0.07
   3   2 -13    0.16    0.03
  -3  -2  13    0.13    0.07
  -3  -2  13    0.11    0.03
   2   2 -13    0.33    0.08
  -2  -2  13    0.33    0.05
  -2  -2  13    0.29    0.09
   1   2 -13    0.05    0.06
  -1  -2  13    0.04    0.04
  -1  -2  13   -0.01    0.07
   0   2 -13   28.50    0.98
   0  -2  13   28.42    0.88
  -1   2 -13  110.76    3.52
   1  -2  13  113.77    3.25
   1  -2  13  111.29    3.18
   1  -2  13  111.95    3.19
  -2   2 -13    6.12    0.31
   2  -2  13    7.03    0.34
   2  -2  13    6.37    0.28
  -3   2 -13   38.09    1.34
   3  -2  13   41.73    1.24
   3  -2  13   39.61    1.37
  -4   2 -13   38.27    1.23
   4  -2  13   32.11    1.24
   4  -2  13   36.62    1.14
  -5   2 -13    1.98    0.18
   5  -2  13    1.91    0.17
  -6   2 -13    1.52    0.17
   6  -2  13    1.65    0.17
  -7   2 -13    7.12    0.38
   7  -2  13    6.37    0.34
  -8   2 -13    0.05    0.09
   8  -2  13    0.00    0.10
  -9   2 -13    4.73    0.32
   9  -2  13    4.48    0.31
 -10   2 -13   12.47    0.60
  10  -2  13   13.81    0.58
 -11   2 -13    1.94    0.23
  11  -2  13    2.29    0.25
  12  -2  13   14.29    0.64
  13   1 -13   12.92    0.59
 -13  -1  13   14.15    0.64
  12   1 -13    3.75    0.28
 -12  -1  13    3.45    0.29
  11   1 -13    4.64    0.30
 -11  -1  13    4.67    0.32
  10   1 -13   13.66    0.54
 -10  -1  13   13.79    0.59
   9   1 -13   20.25    0.71
  -9  -1  13   20.23    0.78
   8   1 -13    0.35    0.09
  -8  -1  13    0.18    0.10
   7   1 -13    1.40    0.13
  -7  -1  13    1.21    0.16
   6   1 -13    6.71    0.27
  -6  -1  13    6.79    0.33
   5   1 -13   16.21    0.52
  -5  -1  13   16.43    0.62
   4   1 -13    0.24    0.04
  -4  -1  13    0.17    0.08
   3   1 -13    1.96    0.08
  -3  -1  13    2.22    0.17
  -3  -1  13    2.03    0.09
   2   1 -13   15.69    0.61
  -2  -1  13   16.17    0.61
  -2  -1  13   16.05    0.50
   1   1 -13   49.49    1.62
  -1  -1  13   48.19    1.62
  -1  -1  13   49.35    1.45
   0   1 -13   11.15    0.47
   0  -1  13   11.53    0.40
   0  -1  13   11.35    0.34
  -1   1 -13    8.99    0.40
   1  -1  13    9.18    0.35
   1  -1  13    9.26    0.31
  -2   1 -13    0.29    0.09
   2  -1  13    0.41    0.08
   2  -1  13    0.31    0.06
  -3   1 -13    0.78    0.13
   3  -1  13    0.59    0.12
   3  -1  13    0.87    0.12
  -4   1 -13   28.71    1.03
   4  -1  13   29.38    0.96
  -5   1 -13    3.26    0.24
   5  -1  13    3.45    0.23
  -6   1 -13   13.90    0.59
   6  -1  13   13.41    0.54
  -7   1 -13    0.23    0.10
   7  -1  13    0.20    0.11
  -8   1 -13    2.77    0.26
   8  -1  13    2.36    0.24
  -9   1 -13    4.86    0.34
   9  -1  13    5.31    0.34
 -10   1 -13    7.31    0.43
  10  -1  13    8.09    0.44
 -11   1 -13    0.17    0.13
  11  -1  13    0.20    0.13
  12  -1  13    0.08    0.14
  14   0 -13    3.59    0.31
 -14   0  13    4.07    0.35
  13   0 -13    0.67    0.16
 -13   0  13    0.56    0.16
  12   0 -13    1.51    0.19
 -12   0  13    1.47    0.21
  11   0 -13    9.15    0.42
 -11   0  13    8.75    0.46
  10   0 -13    9.35    0.41
 -10   0  13    9.23    0.46
   9   0 -13   10.25    0.41
  -9   0  13    9.84    0.46
   8   0 -13    0.33    0.10
  -8   0  13    0.32    0.11
   7   0 -13    7.07    0.29
  -7   0  13    7.22    0.36
   6   0 -13    0.47    0.07
  -6   0  13    0.39    0.10
   5   0 -13    2.10    0.12
  -5   0  13    1.82    0.17
   4   0 -13   23.96    0.71
  -4   0  13   23.13    0.86
  -4   0  13   24.13    0.70
   3   0 -13   16.09    0.48
  -3   0  13   15.99    0.62
  -3   0  13   15.86    0.49
  -2   0  13    8.15    0.37
  -2   0  13    7.12    0.27
   1   0 -13    5.48    0.30
  -1   0  13    5.27    0.29
  -1   0  13    5.65    0.18
  -1   0  13    5.75    0.23
   0   0 -13   68.06    2.22
   0   0  13   69.59    1.96
   0   0  13   66.32    2.01
  -1   0 -13    2.53    0.20
   1   0  13    2.76    0.14
   1   0  13    2.66    0.17
  -2   0 -13    8.58    0.41
   2   0  13    8.65    0.33
   2   0  13    8.70    0.36
  -3   0 -13    5.01    0.29
   3   0  13    5.02    0.26
  -4   0 -13    9.05    0.44
   4   0  13   10.01    0.42
  -5   0 -13   12.51    0.55
   5   0  13   12.83    0.51
  -6   0 -13   23.60    0.89
   6   0  13   22.65    0.83
  -7   0 -13    7.17    0.40
   7   0  13    6.91    0.38
  -8   0 -13    1.49    0.21
   8   0  13    1.50    0.20
  -9   0 -13    1.10    0.19
   9   0  13    1.16    0.19
 -10   0 -13    0.41    0.14
  10   0  13    0.31    0.15
 -11   0 -13    1.10    0.20
  11   0  13    1.83    0.25
  14  -1 -13    1.91    0.24
 -14   1  13    1.79    0.25
  13  -1 -13    0.94    0.18
 -13   1  13    0.84    0.18
  12  -1 -13    0.56    0.14
 -12   1  13    0.51    0.15
  11  -1 -13   14.21    0.57
 -11   1  13   14.19    0.63
  10  -1 -13   20.51    0.72
 -10   1  13   19.65    0.79
   9  -1 -13    7.47    0.33
  -9   1  13    7.08    0.38
   8  -1 -13   16.89    0.58
  -8   1  13   16.26    0.67
   7  -1 -13    0.11    0.06
  -7   1  13    0.07    0.08
   6  -1 -13    1.70    0.12
  -6   1  13    1.29    0.16
   5  -1 -13   17.14    0.55
  -5   1  13   17.73    0.68
   4  -1 -13    0.06    0.04
  -4   1  13    0.04    0.07
  -4   1  13    0.07    0.03
   3  -1 -13    0.10    0.04
  -3   1  13    0.13    0.04
  -3   1  13    0.13    0.03
  -3   1  13    0.07    0.08
   2  -1 -13    4.72    0.18
  -2   1  13    4.51    0.17
  -2   1  13    5.09    0.28
  -2   1  13    4.52    0.20
   1  -1 -13    1.41    0.17
  -1   1  13    1.35    0.16
  -1   1  13    1.33    0.09
   0  -1 -13    3.66    0.25
   0   1  13    3.82    0.17
  -1  -1 -13    1.23    0.17
   1   1  13    1.16    0.11
  -2  -1 -13   12.17    0.52
   2   1  13   11.35    0.45
  -3  -1 -13   22.54    0.86
   3   1  13   23.15    0.79
  -4  -1 -13   18.72    0.75
   4   1  13   18.59    0.68
  -5  -1 -13    1.16    0.17
   5   1  13    1.14    0.16
  -6  -1 -13   10.90    0.52
   6   1  13   11.70    0.51
  -7  -1 -13   11.57    0.55
   7   1  13   11.78    0.52
  -8  -1 -13    0.08    0.12
   8   1  13    0.01    0.12
  -9  -1 -13    2.35    0.26
   9   1  13    2.48    0.27
 -10  -1 -13    2.71    0.29
  10   1  13    2.34    0.27
 -11  -1 -13    0.16    0.14
  11   1  13    0.14    0.13
  14  -2 -13    1.98    0.24
 -14   2  13    2.03    0.27
  13  -2 -13    6.11    0.37
 -13   2  13    5.99    0.40
  12  -2 -13    0.24    0.11
 -12   2  13    0.31    0.14
  11  -2 -13    1.15    0.16
 -11   2  13    0.89    0.17
  10  -2 -13   23.20    0.82
 -10   2  13   24.74    0.93
   9  -2 -13    0.01    0.08
  -9   2  13   -0.04    0.09
   8  -2 -13   95.41    2.78
  -8   2  13   93.37    3.05
   7  -2 -13    0.30    0.08
  -7   2  13    0.26    0.10
   6  -2 -13    1.42    0.12
  -6   2  13    1.51    0.17
   5  -2 -13    4.31    0.19
  -5   2  13    3.53    0.26
  -5   2  13    4.24    0.16
   4  -2 -13    0.19    0.06
  -4   2  13    0.12    0.05
  -4   2  13    0.15    0.09
  -4   2  13    0.19    0.05
   3  -2 -13    0.24    0.06
  -3   2  13    0.31    0.05
  -3   2  13    0.22    0.10
   2  -2 -13    1.33    0.10
  -2   2  13    1.41    0.09
  -2   2  13    1.25    0.16
   1  -2 -13   26.77    0.83
   1  -2 -13   26.08    0.98
   0  -2 -13   15.11    0.63
   0   2  13   14.91    0.51
  -1  -2 -13    0.14    0.10
  -2  -2 -13    1.47    0.19
  -2  -2 -13    1.25    0.17
  -3  -2 -13    6.91    0.38
  -3  -2 -13    6.63    0.38
  -4  -2 -13    7.49    0.41
  -5  -2 -13   13.39    0.60
  -6  -2 -13    1.77    0.21
   6   2  13    1.88    0.22
  -7  -2 -13    5.05    0.35
   7   2  13    5.71    0.36
  -8  -2 -13    9.38    0.50
   8   2  13    8.98    0.48
  -9  -2 -13    6.03    0.41
   9   2  13    6.43    0.39
 -10  -2 -13    6.00    0.41
  10   2  13    6.32    0.42
  14  -3 -13    0.08    0.13
 -14   3  13    0.11    0.14
  13  -3 -13    4.38    0.31
 -13   3  13    5.20    0.37
  12  -3 -13   19.26    0.73
 -12   3  13   19.55    0.82
  11  -3 -13    0.01    0.09
 -11   3  13    0.09    0.11
  10  -3 -13    0.11    0.09
 -10   3  13   -0.05    0.10
   9  -3 -13   15.76    0.58
  -9   3  13   15.67    0.67
   8  -3 -13    0.35    0.10
  -8   3  13    0.05    0.10
   7  -3 -13   15.69    0.54
  -7   3  13   15.16    0.45
  -7   3  13   14.91    0.63
   6  -3 -13    0.15    0.07
  -6   3  13    0.12    0.10
  -6   3  13    0.08    0.04
   5  -3 -13   14.30    0.51
  -5   3  13   15.87    0.63
  -5   3  13   14.79    0.49
  -5   3  13   14.75    0.50
   4  -3 -13   10.31    0.38
  -4   3  13   10.30    0.47
  -4   3  13   10.26    0.38
  -4   3  13   10.01    0.36
   3  -3 -13   14.92    0.51
  -3   3  13   14.99    0.62
  -3   3  13   14.68    0.49
   2  -3 -13    7.91    0.32
  -2   3  13    7.91    0.40
  -2   3  13    8.14    0.30
   1  -3 -13    3.66    0.20
   1  -3 -13    3.83    0.28
  -1   3  13    3.82    0.19
   0  -3 -13    1.87    0.21
   0  -3 -13    1.24    0.17
  -1  -3 -13   17.59    0.71
  -1  -3 -13   16.16    0.69
  -2  -3 -13    0.34    0.12
  -2  -3 -13    0.08    0.10
  -3  -3 -13    2.04    0.23
  -3  -3 -13    1.94    0.23
  -4  -3 -13   10.55    0.52
  -5  -3 -13   27.99    1.07
  -6  -3 -13   13.68    0.63
  -7  -3 -13    3.79    0.32
   7   3  13    3.92    0.30
  -8  -3 -13    0.03    0.12
   8   3  13    0.09    0.14
  -9  -3 -13    1.36    0.22
   9   3  13    1.38    0.23
  14  -4 -13    6.87    0.40
 -14   4  13    6.96    0.46
  13  -4 -13    1.78    0.22
 -13   4  13    1.13    0.21
  12  -4 -13    0.05    0.10
 -12   4  13    0.07    0.12
  11  -4 -13    0.25    0.11
 -11   4  13    0.00    0.10
  10  -4 -13    1.72    0.18
 -10   4  13    2.01    0.23
   9  -4 -13   11.14    0.45
  -9   4  13   11.53    0.54
   8  -4 -13    8.75    0.37
  -8   4  13    8.37    0.44
   7  -4 -13   17.99    0.63
  -7   4  13   18.16    0.56
  -7   4  13   17.89    0.73
   6  -4 -13   83.76    2.48
  -6   4  13   84.11    2.75
   5  -4 -13   52.10    1.62
  -5   4  13   53.48    1.61
  -5   4  13   56.08    1.83
   4  -4 -13    5.50    0.26
  -4   4  13    5.86    0.34
   3  -4 -13   29.10    0.92
  -3   4  13   27.92    1.05
   2  -4 -13    5.62    0.27
  -2   4  13    5.38    0.33
   1  -4 -13    0.33    0.10
   1  -4 -13    0.48    0.14
   1  -4 -13    0.54    0.13
   0  -4 -13   15.05    0.64
   0  -4 -13   15.20    0.66
  -1  -4 -13    9.06    0.47
  -1  -4 -13    8.98    0.45
  -2  -4 -13    7.24    0.41
  -3  -4 -13    0.42    0.13
  -4  -4 -13    3.50    0.30
  -5  -4 -13    1.24    0.20
  -6  -4 -13    0.95    0.19
  -7  -4 -13    1.66    0.23
  -8  -4 -13    2.99    0.32
   8   4  13    2.94    0.30
  -9  -4 -13    0.13    0.14
   9   4  13    0.06    0.13
  15  -5 -13    1.23    0.22
 -15   5  13    1.44    0.26
  14  -5 -13    0.64    0.17
 -14   5  13    0.55    0.19
  13  -5 -13    1.65    0.22
 -13   5  13    1.48    0.23
  12  -5 -13    0.08    0.11
 -12   5  13    0.07    0.12
  11  -5 -13    1.11    0.17
 -11   5  13    1.17    0.20
  10  -5 -13    5.72    0.31
 -10   5  13    5.72    0.37
   9  -5 -13    0.01    0.08
  -9   5  13    0.09    0.10
   8  -5 -13    0.02    0.09
  -8   5  13    0.11    0.12
   7  -5 -13    0.03    0.08
  -7   5  13    0.15    0.12
   6  -5 -13   24.96    0.84
  -6   5  13   25.73    0.97
  -6   5  13   25.04    0.81
   5  -5 -13    3.19    0.22
  -5   5  13    3.73    0.29
   4  -5 -13  134.41    3.93
  -4   5  13  134.81    4.30
   3  -5 -13   77.70    2.32
  -3   5  13   76.51    2.54
   2  -5 -13   46.35    1.45
   1  -5 -13   16.36    0.70
   1  -5 -13   17.52    0.74
   1  -5 -13   17.69    0.64
   0  -5 -13   13.22    0.62
   0  -5 -13   13.43    0.60
  -1  -5 -13    0.67    0.16
  -2  -5 -13    1.46    0.22
  -3  -5 -13    6.24    0.40
  -4  -5 -13    2.33    0.27
  -5  -5 -13    4.28    0.34
  -6  -5 -13    7.68    0.46
  -7  -5 -13    0.17    0.14
  -8  -5 -13    1.88    0.26
   8   5  13    2.15    0.29
  15  -6 -13    0.18    0.15
  14  -6 -13    0.73    0.18
 -14   6  13    1.26    0.22
  13  -6 -13   13.66    0.59
 -13   6  13   13.39    0.67
  12  -6 -13    0.42    0.14
 -12   6  13    0.88    0.19
  11  -6 -13    4.52    0.30
 -11   6  13    4.72    0.35
  10  -6 -13    5.64    0.31
 -10   6  13    4.95    0.36
   9  -6 -13    0.74    0.13
  -9   6  13    0.55    0.16
   8  -6 -13    3.25    0.23
  -8   6  13    3.65    0.29
   7  -6 -13   13.65    0.54
  -7   6  13   14.80    0.65
   6  -6 -13   12.94    0.53
  -6   6  13   14.45    0.63
   5  -6 -13   11.20    0.46
  -5   6  13   11.50    0.55
   4  -6 -13    4.37    0.26
  -4   6  13    4.20    0.31
   3  -6 -13   40.30    1.31
  -3   6  13   41.29    1.45
   2  -6 -13   50.73    1.78
   2  -6 -13   50.25    1.59
   1  -6 -13    2.09    0.26
   1  -6 -13    1.91    0.20
   0  -6 -13    4.35    0.34
  -1  -6 -13    5.56    0.38
  -2  -6 -13    4.68    0.35
  -3  -6 -13    2.89    0.31
  -4  -6 -13    4.49    0.36
  -5  -6 -13   -0.03    0.13
  -6  -6 -13    6.19    0.42
  -7  -6 -13    3.52    0.35
  14  -7 -13    0.08    0.13
  13  -7 -13    3.36    0.30
 -13   7  13    2.56    0.30
  12  -7 -13    3.22    0.26
 -12   7  13    2.31    0.28
  11  -7 -13    0.01    0.10
 -11   7  13   -0.08    0.10
  10  -7 -13    8.70    0.41
 -10   7  13    8.06    0.48
   9  -7 -13    0.00    0.09
  -9   7  13    0.22    0.13
   8  -7 -13    4.30    0.27
  -8   7  13    3.56    0.31
   7  -7 -13    1.22    0.17
  -7   7  13    1.26    0.20
   6  -7 -13   -0.05    0.09
  -6   7  13   -0.19    0.09
   5  -7 -13   10.69    0.47
  -5   7  13   11.04    0.54
   4  -7 -13   14.75    0.58
  -4   7  13   13.50    0.63
   3  -7 -13   -0.08    0.09
   2  -7 -13    2.31    0.23
   1  -7 -13    1.08    0.20
   1  -7 -13    1.10    0.18
   0  -7 -13    1.41    0.23
  -1  -7 -13   -0.04    0.12
  -2  -7 -13    0.11    0.13
  -3  -7 -13    0.70    0.19
  -4  -7 -13   25.44    1.04
  -5  -7 -13   11.25    0.59
  -6  -7 -13    0.48    0.18
  14  -8 -13    1.19    0.21
  13  -8 -13    3.54    0.30
  12  -8 -13    4.28    0.32
  11  -8 -13    6.25    0.37
  10  -8 -13   11.44    0.51
   9  -8 -13    0.50    0.14
  -9   8  13    0.79    0.17
   8  -8 -13    0.76    0.15
  -8   8  13    0.44    0.15
   7  -8 -13    2.02    0.22
  -7   8  13    2.04    0.25
   6  -8 -13    2.73    0.26
   5  -8 -13    1.15    0.18
   4  -8 -13    8.00    0.41
   3  -8 -13    1.40    0.20
   2  -8 -13    0.30    0.13
   1  -8 -13   12.29    0.56
   1  -8 -13   11.56    0.61
   0  -8 -13    2.50    0.29
  -1  -8 -13    1.18    0.22
  -2  -8 -13    0.19    0.15
  -3  -8 -13    0.43    0.18
  -4  -8 -13    4.48    0.38
  -5  -8 -13    2.12    0.29
  14  -9 -13    5.45    0.39
  13  -9 -13    1.96    0.25
  12  -9 -13    0.17    0.14
  11  -9 -13    2.41    0.26
  10  -9 -13    0.55    0.16
   9  -9 -13   -0.09    0.11
   8  -9 -13   16.36    0.67
   7  -9 -13    2.52    0.27
   6  -9 -13   10.03    0.49
   5  -9 -13    3.53    0.29
   4  -9 -13    1.24    0.20
   3  -9 -13    1.14    0.19
   2  -9 -13    8.51    0.46
   1  -9 -13    6.27    0.40
   1  -9 -13    5.86    0.42
   0  -9 -13    2.54    0.31
  -1  -9 -13    0.20    0.16
  -2  -9 -13   -0.07    0.12
  -3  -9 -13    2.87    0.34
  -4  -9 -13    0.81    0.20
  13 -10 -13    0.50    0.17
  12 -10 -13    8.82    0.48
  11 -10 -13    1.07    0.21
  10 -10 -13    2.98    0.30
   9 -10 -13    0.31    0.15
   8 -10 -13    0.57    0.17
   7 -10 -13   10.58    0.53
   6 -10 -13    3.24    0.31
   5 -10 -13   69.29    2.21
   4 -10 -13    1.50    0.23
   3 -10 -13    0.39    0.15
   2 -10 -13    4.80    0.37
   2 -10 -13    5.70    0.43
   1 -10 -13    2.20    0.27
   1 -10 -13    2.09    0.29
   0 -10 -13    1.77    0.27
  -1 -10 -13    2.02    0.29
  -2 -10 -13    0.22    0.17
  13 -11 -13    0.05    0.16
  12 -11 -13   -0.04    0.14
  11 -11 -13    0.59    0.18
  10 -11 -13   -0.06    0.13
   9 -11 -13    4.00    0.37
   8 -11 -13    1.89    0.26
   7 -11 -13    4.91    0.37
   6 -11 -13    5.07    0.38
   5 -11 -13   13.82    0.65
   4 -11 -13    5.79    0.40
   3 -11 -13   12.96    0.63
   2 -11 -13    7.44    0.50
   2 -11 -13    6.58    0.45
   1 -11 -13    2.21    0.32
   0 -11 -13    0.36    0.20
  -1 -11 -13    1.39    0.26
  12 -12 -13   -0.08    0.15
  11 -12 -13    0.02    0.15
  10 -12 -13    0.80    0.20
   9 -12 -13    2.46    0.30
   8 -12 -13    2.05    0.28
   7 -12 -13    1.26    0.23
   6 -12 -13    7.03    0.46
   5 -12 -13   -0.17    0.14
   4 -12 -13    2.16    0.29
   3 -12 -13    0.11    0.14
   2 -12 -13   11.07    0.64
   2 -12 -13   10.28    0.59
   1 -12 -13    3.02    0.37
  10 -13 -13    1.00    0.24
   9 -13 -13    2.57    0.32
   8 -13 -13    4.40    0.42
   7 -13 -13    0.43    0.19
   6 -13 -13   -0.07    0.15
   5 -13 -13    0.22    0.18
   4 -13 -13    0.00    0.17
   5 -17  14    1.67    0.30
   5 -17  14    1.82    0.28
   6 -17  14    2.58    0.33
   6 -17  14    2.27    0.33
   7 -17  14    0.96    0.23
   7 -17  14    0.78    0.23
   8 -17  14    5.43    0.43
   1 -16  14    0.93    0.22
   2 -16  14    0.48    0.19
   2 -16  14    0.68    0.22
   3 -16  14    5.25    0.43
   3 -16  14    5.49    0.41
   4 -16  14   12.48    0.65
   4 -16  14   11.10    0.60
   5 -16  14    0.01    0.16
   5 -16  14   -0.11    0.14
   6 -16  14    0.58    0.19
   6 -16  14    0.74    0.23
   7 -16  14    0.20    0.16
   7 -16  14    0.22    0.17
   8 -16  14    0.81    0.22
   8 -16  14    0.45    0.19
   9 -16  14    0.84    0.20
   9 -16  14    0.70    0.21
   9 -16  14    1.36    0.24
  10 -16  14    4.51    0.42
  10 -16  14    3.95    0.35
  10 -16  14    3.56    0.36
   0 -15  14    2.88    0.32
   1 -15  14    0.29    0.16
   1 -15  14    0.42    0.18
   2 -15  14    3.70    0.37
   2 -15  14    3.94    0.37
   3 -15  14    5.63    0.41
   3 -15  14    5.65    0.39
   4 -15  14    3.09    0.35
   4 -15  14    3.19    0.33
   5 -15  14    1.02    0.22
   5 -15  14    0.62    0.20
   5 -15  14    1.00    0.21
   6 -15  14    1.02    0.21
   6 -15  14    1.07    0.21
   6 -15  14    0.63    0.19
   7 -15  14    0.08    0.14
   7 -15  14    0.10    0.15
   7 -15  14    0.06    0.13
   8 -15  14    0.89    0.20
   8 -15  14    1.54    0.25
   8 -15  14    1.08    0.21
   9 -15  14    0.58    0.17
   9 -15  14    0.17    0.14
   9 -15  14   -0.03    0.16
  10 -15  14    2.22    0.30
  10 -15  14    2.19    0.27
  10 -15  14    1.92    0.27
  11 -15  14    0.69    0.19
  11 -15  14    0.95    0.22
  11 -15  14    0.87    0.23
  12 -15  14    6.38    0.45
  12 -15  14    6.94    0.46
   0 -14  14    0.29    0.14
   0 -14  14    0.21    0.13
   1 -14  14    0.62    0.18
   1 -14  14    0.55    0.18
   2 -14  14    2.68    0.15
   2 -14  14    2.50    0.28
   2 -14  14    2.29    0.28
   3 -14  14    5.48    0.39
   3 -14  14    5.76    0.40
   3 -14  14    5.63    0.39
   4 -14  14   12.87    0.61
   4 -14  14   13.25    0.60
   4 -14  14   12.40    0.59
   5 -14  14    6.07    0.39
   5 -14  14    6.92    0.42
   5 -14  14    5.93    0.41
   6 -14  14    2.93    0.30
   6 -14  14    2.28    0.27
   6 -14  14    2.83    0.29
   7 -14  14    0.80    0.19
   7 -14  14    0.97    0.19
   7 -14  14    0.87    0.18
   8 -14  14   10.12    0.51
   8 -14  14    9.41    0.50
   8 -14  14    9.67    0.51
   9 -14  14    0.52    0.18
   9 -14  14    0.03    0.13
   9 -14  14   -0.07    0.12
  10 -14  14    0.26    0.15
  10 -14  14   -0.10    0.13
  10 -14  14   -0.04    0.13
  11 -14  14    0.38    0.16
  11 -14  14    0.42    0.17
  11 -14  14    0.19    0.15
  12 -14  14    2.61    0.30
  12 -14  14    3.14    0.34
  12 -14  14    3.01    0.32
   0 -13  14    2.73    0.28
   0 -13  14    2.39    0.27
   1 -13  14    1.67    0.11
   1 -13  14    1.34    0.22
   1 -13  14    1.34    0.22
   1 -13  14    1.62    0.22
   2 -13  14   18.91    0.67
   2 -13  14   19.46    0.78
   2 -13  14   20.55    0.78
   2 -13  14   19.88    0.79
   3 -13  14    9.01    0.45
   3 -13  14    7.81    0.34
   3 -13  14    8.42    0.45
   3 -13  14    8.45    0.45
   4 -13  14    1.59    0.24
   4 -13  14    1.76    0.23
   4 -13  14    2.20    0.26
   5 -13  14    0.58    0.16
   5 -13  14    0.70    0.17
   5 -13  14    0.68    0.17
   6 -13  14    9.68    0.50
   6 -13  14   10.01    0.49
   6 -13  14    9.36    0.47
   7 -13  14    3.59    0.30
   7 -13  14    3.89    0.30
   7 -13  14    4.37    0.34
   8 -13  14    4.44    0.34
   8 -13  14    5.08    0.36
   8 -13  14    4.89    0.35
   9 -13  14   10.88    0.53
   9 -13  14   12.31    0.57
   9 -13  14   11.51    0.56
  10 -13  14    0.55    0.17
  10 -13  14    0.46    0.16
  10 -13  14    0.52    0.18
  11 -13  14    6.36    0.41
  11 -13  14    5.68    0.39
  11 -13  14    5.93    0.38
  12 -13  14   -0.01    0.12
  12 -13  14    0.06    0.13
  12 -13  14   -0.05    0.14
  13 -13  14    0.07    0.13
  13 -13  14   -0.09    0.13
  13 -13  14    0.03    0.16
  -1 -12  14    4.07    0.32
  -1 -12  14    4.32    0.31
   0 -12  14   26.12    0.96
   0 -12  14   26.61    0.98
   0 -12  14   26.35    0.96
   1 -12  14   14.92    0.64
   1 -12  14   15.09    0.63
   1 -12  14   14.98    0.52
   1 -12  14   15.63    0.64
   2 -12  14    0.09    0.12
   2 -12  14    0.14    0.12
   2 -12  14    0.19    0.06
   2 -12  14    0.14    0.11
   3 -12  14   35.05    1.25
   3 -12  14   36.14    1.21
   3 -12  14   39.64    1.27
   3 -12  14   36.64    1.24
   4 -12  14    0.69    0.16
   4 -12  14    0.41    0.09
   4 -12  14    0.55    0.15
   4 -12  14    0.62    0.16
   5 -12  14   10.32    0.48
   5 -12  14   10.04    0.48
   5 -12  14    9.54    0.46
   6 -12  14    3.33    0.28
   6 -12  14    4.05    0.30
   6 -12  14    3.09    0.27
   7 -12  14    0.20    0.12
   7 -12  14    0.17    0.14
   7 -12  14    0.16    0.12
   8 -12  14    1.18    0.20
   8 -12  14    1.21    0.20
   8 -12  14    1.04    0.18
   9 -12  14    0.84    0.16
   9 -12  14    0.86    0.19
   9 -12  14    0.84    0.17
  10 -12  14    2.34    0.26
  10 -12  14    1.93    0.24
  10 -12  14    2.26    0.25
  11 -12  14    0.11    0.11
  11 -12  14   -0.04    0.13
  11 -12  14    0.07    0.13
  12 -12  14    8.38    0.48
  12 -12  14    8.04    0.44
  12 -12  14    7.57    0.45
  13 -12  14    0.78    0.20
  13 -12  14    1.11    0.23
  13 -12  14    0.52    0.17
  -2 -11  14    7.77    0.40
  -1 -11  14   19.75    0.76
  -1 -11  14   20.59    0.78
   0 -11  14    1.45    0.19
   0 -11  14    1.20    0.18
   0 -11  14    1.14    0.18
   1 -11  14    1.10    0.17
   1 -11  14    0.94    0.09
   1 -11  14    0.87    0.16
   1 -11  14    0.98    0.17
   2 -11  14    0.66    0.14
   2 -11  14    0.88    0.16
   2 -11  14    0.52    0.14
   2 -11  14    1.08    0.11
   3 -11  14   13.36    0.56
   3 -11  14   13.47    0.50
   3 -11  14   13.16    0.54
   3 -11  14   12.52    0.54
   4 -11  14    0.50    0.13
   4 -11  14    0.41    0.11
   4 -11  14    0.47    0.12
   4 -11  14    0.45    0.09
   5 -11  14    0.03    0.09
   5 -11  14    0.14    0.09
   5 -11  14    0.04    0.09
   6 -11  14    7.74    0.40
   6 -11  14    7.82    0.40
   6 -11  14    7.58    0.38
   7 -11  14    3.17    0.26
   7 -11  14    3.15    0.25
   7 -11  14    3.46    0.25
   8 -11  14    7.53    0.40
   8 -11  14    7.39    0.40
   8 -11  14    7.29    0.39
   9 -11  14    7.59    0.42
   9 -11  14    7.70    0.39
   9 -11  14    6.85    0.38
  10 -11  14    1.23    0.21
  10 -11  14    1.72    0.22
  10 -11  14    1.32    0.19
  11 -11  14    6.39    0.37
  11 -11  14    7.76    0.44
  11 -11  14    7.68    0.42
  12 -11  14    0.00    0.11
  12 -11  14    0.00    0.13
  12 -11  14    0.04    0.13
  13 -11  14   -0.03    0.12
  13 -11  14    0.26    0.14
  13 -11  14   -0.02    0.13
  14 -11  14    2.95    0.32
  14 -11  14    3.50    0.34
  -7 -10  14    0.05    0.06
  -6 -10  14    3.11    0.16
  -3 -10  14    0.51    0.13
  -2 -10  14    0.03    0.09
  -2 -10  14    0.05    0.10
  -1 -10  14   29.38    1.02
  -1 -10  14   29.96    1.02
   0 -10  14    0.94    0.15
   0 -10  14    1.09    0.16
   0 -10  14    0.81    0.15
   1 -10  14    2.34    0.22
   1 -10  14    2.52    0.21
   1 -10  14    2.32    0.15
   1 -10  14    2.54    0.22
   2 -10  14   15.87    0.58
   2 -10  14   16.74    0.61
   2 -10  14   15.36    0.62
   2 -10  14   17.16    0.63
   3 -10  14    1.43    0.17
   3 -10  14    1.60    0.19
   3 -10  14    1.39    0.18
   3 -10  14    1.37    0.13
   4 -10  14    8.59    0.40
   4 -10  14    8.85    0.38
   4 -10  14    8.83    0.38
   4 -10  14    8.37    0.41
   5 -10  14    0.23    0.10
   5 -10  14    0.35    0.12
   5 -10  14    0.15    0.09
   5 -10  14    0.34    0.09
   6 -10  14    4.18    0.26
   6 -10  14    3.39    0.23
   6 -10  14    3.76    0.26
   7 -10  14    5.74    0.34
   7 -10  14    4.99    0.31
   7 -10  14    5.96    0.31
   8 -10  14    0.05    0.09
   8 -10  14   -0.01    0.09
   8 -10  14   -0.16    0.09
   9 -10  14    0.19    0.11
   9 -10  14    0.22    0.12
   9 -10  14    0.26    0.11
  10 -10  14    0.87    0.17
  10 -10  14    0.98    0.17
  10 -10  14    0.92    0.16
  11 -10  14    5.89    0.38
  11 -10  14    6.23    0.37
  11 -10  14    5.56    0.34
  12 -10  14    6.76    0.42
  12 -10  14    7.44    0.42
  12 -10  14    6.38    0.37
  13 -10  14   15.94    0.71
  13 -10  14   15.79    0.66
  13 -10  14   16.68    0.70
  14 -10  14    1.71    0.25
  14 -10  14    1.34    0.24
  -8  -9  14    2.81    0.19
  -7  -9  14    3.01    0.19
  -6  -9  14   10.31    0.39
  -5  -9  14    1.13    0.10
  -4  -9  14    2.82    0.14
  -4  -9  14    3.15    0.22
  -3  -9  14   11.13    0.46
  -2  -9  14    0.26    0.10
  -2  -9  14    0.23    0.10
  -1  -9  14   20.28    0.73
  -1  -9  14   19.95    0.72
   0  -9  14   10.00    0.43
   0  -9  14    9.61    0.37
   0  -9  14    9.59    0.41
   0  -9  14    9.62    0.42
   1  -9  14    2.03    0.14
   1  -9  14    2.15    0.20
   1  -9  14    1.92    0.18
   1  -9  14    1.78    0.18
   2  -9  14    0.15    0.09
   2  -9  14    0.16    0.07
   2  -9  14    0.18    0.08
   2  -9  14    0.22    0.09
   3  -9  14    9.16    0.38
   3  -9  14    9.51    0.41
   3  -9  14    9.05    0.41
   3  -9  14    8.89    0.38
  -4   9 -14    1.07    0.10
   4  -9  14    0.97    0.13
   4  -9  14    0.90    0.14
   4  -9  14    0.95    0.14
   4  -9  14    0.94    0.12
  -5   9 -14    3.93    0.22
   5  -9  14    3.91    0.25
   5  -9  14    3.69    0.23
   5  -9  14    3.86    0.24
   5  -9  14    3.47    0.25
   6  -9  14    0.42    0.11
   6  -9  14    0.29    0.11
   6  -9  14    0.35    0.11
   7  -9  14   -0.02    0.10
   7  -9  14    0.13    0.10
   7  -9  14    0.10    0.09
   8  -9  14    0.98    0.16
   8  -9  14    1.00    0.15
   8  -9  14    0.92    0.16
   9  -9  14    3.21    0.25
   9  -9  14    3.42    0.25
   9  -9  14    3.13    0.24
  10  -9  14    4.73    0.31
  10  -9  14    5.18    0.31
  10  -9  14    4.94    0.32
  11  -9  14    0.38    0.14
  11  -9  14    0.27    0.14
  11  -9  14    0.52    0.14
  12  -9  14   14.40    0.59
  12  -9  14   13.10    0.61
  12  -9  14   14.34    0.62
  13  -9  14    2.21    0.27
  13  -9  14    2.56    0.25
  13  -9  14    2.30    0.28
  14  -9  14    6.66    0.44
  14  -9  14    6.81    0.44
  -9  -8  14    0.48    0.11
  -8  -8  14    0.62    0.10
  -7  -8  14    0.95    0.12
  -6  -8  14    8.82    0.35
  -5  -8  14    5.48    0.28
  -5  -8  14    5.66    0.25
  -4  -8  14    7.53    0.34
  -4  -8  14    7.66    0.30
  -3  -8  14    5.16    0.22
  -3  -8  14    5.51    0.28
  -3  -8  14    5.10    0.28
  -2  -8  14   49.56    1.55
  -2  -8  14   49.50    1.55
  -1  -8  14    6.14    0.31
  -1  -8  14    6.19    0.31
   0  -8  14   20.08    0.69
   0  -8  14   20.19    0.68
   0  -8  14   19.17    0.69
   0  -8  14   19.40    0.70
   1  -8  14   47.90    1.46
   1  -8  14   45.32    1.52
   1  -8  14   46.42    1.47
   1  -8  14   47.30    1.43
  -2   8 -14    3.31    0.19
   2  -8  14    3.45    0.22
   2  -8  14    3.15    0.20
   2  -8  14    3.15    0.19
   2  -8  14    3.02    0.21
  -3   8 -14    3.29    0.16
   3  -8  14    3.32    0.22
   3  -8  14    2.88    0.18
   3  -8  14    3.43    0.22
   3  -8  14    3.01    0.20
  -4   8 -14    7.17    0.28
   4  -8  14    6.46    0.29
   4  -8  14    6.54    0.32
   4  -8  14    6.28    0.32
   4  -8  14    6.95    0.33
  -5   8 -14    3.31    0.19
   5  -8  14    3.55    0.23
   5  -8  14    3.49    0.24
   5  -8  14    3.54    0.21
   5  -8  14    3.52    0.23
  -6   8 -14   79.99    2.59
   6  -8  14   85.96    2.47
   6  -8  14   79.81    2.42
   6  -8  14   81.95    2.48
   6  -8  14   79.49    2.63
   7  -8  14   23.26    0.80
   7  -8  14   23.52    0.83
   7  -8  14   24.08    0.84
   8  -8  14    1.00    0.17
   8  -8  14    0.95    0.14
   8  -8  14    1.06    0.16
   9  -8  14    0.92    0.16
   9  -8  14    0.81    0.14
   9  -8  14    0.82    0.15
  10  -8  14    0.90    0.17
  10  -8  14    1.10    0.16
  10  -8  14    1.31    0.18
  11  -8  14    5.15    0.32
  11  -8  14    6.50    0.37
  11  -8  14    6.20    0.37
  12  -8  14   -0.06    0.12
  12  -8  14    0.16    0.14
  12  -8  14    0.14    0.11
  13  -8  14   -0.04    0.13
  13  -8  14   -0.18    0.13
  14  -8  14    1.02    0.21
  14  -8  14    0.85    0.19
 -10  -7  14    1.26    0.16
  -9  -7  14    4.76    0.28
  -8  -7  14    1.19    0.14
  -7  -7  14   -0.05    0.07
  -6  -7  14    3.01    0.19
  -6  -7  14    3.02    0.19
  -5  -7  14    0.79    0.11
  -5  -7  14    0.87    0.10
  -4  -7  14   10.97    0.41
  -4  -7  14   11.01    0.43
  -3  -7  14    1.95    0.16
  -3  -7  14    1.79    0.17
  -3  -7  14    1.72    0.14
  -2  -7  14    9.64    0.39
  -2  -7  14    9.04    0.38
  -2  -7  14    9.14    0.36
   1   7 -14   22.99    0.74
  -1  -7  14   23.63    0.79
  -1  -7  14   23.01    0.77
   0   7 -14    3.35    0.16
   0  -7  14    3.42    0.18
   0  -7  14    3.25    0.20
   0  -7  14    3.09    0.19
   0  -7  14    3.39    0.21
  -1   7 -14   19.73    0.61
   1  -7  14   19.71    0.67
   1  -7  14   19.39    0.68
   1  -7  14   19.34    0.63
   1  -7  14   18.51    0.69
  -2   7 -14   41.46    1.27
  -2   7 -14   40.19    1.19
   2  -7  14   37.58    1.26
   2  -7  14   40.20    1.25
   2  -7  14   39.23    1.33
   2  -7  14   40.21    1.21
  -3   7 -14    6.48    0.26
  -3   7 -14    6.84    0.27
   3  -7  14    6.63    0.30
   3  -7  14    6.75    0.32
   3  -7  14    6.29    0.31
   3  -7  14    6.54    0.27
  -4   7 -14   11.41    0.44
   4  -7  14   11.91    0.49
   4  -7  14   11.92    0.47
   4  -7  14   12.15    0.47
   4  -7  14   11.69    0.43
  -5   7 -14    0.08    0.06
   5  -7  14    0.08    0.08
   5  -7  14    0.05    0.08
   5  -7  14    0.18    0.07
   5  -7  14    0.08    0.08
  -6   7 -14    0.07    0.07
   6  -7  14    0.10    0.09
   6  -7  14   -0.09    0.07
   6  -7  14   -0.06    0.09
   6  -7  14    0.09    0.09
  -7   7 -14    0.12    0.08
   7  -7  14    0.00    0.08
   7  -7  14    0.04    0.10
   7  -7  14    0.18    0.10
   8  -7  14    4.84    0.29
   8  -7  14    4.90    0.27
   8  -7  14    4.82    0.28
   9  -7  14    2.88    0.24
   9  -7  14    3.33    0.25
   9  -7  14    3.11    0.23
  10  -7  14    0.11    0.11
  10  -7  14    0.00    0.09
  10  -7  14    0.08    0.12
  11  -7  14    2.30    0.24
  11  -7  14    2.82    0.23
  11  -7  14    2.19    0.24
  12  -7  14    0.56    0.13
  12  -7  14    0.37    0.14
  12  -7  14    0.73    0.18
  13  -7  14   10.96    0.54
  13  -7  14   10.15    0.52
  14  -7  14    0.09    0.13
  14  -7  14    0.14    0.15
 -10  -6  14    6.08    0.34
  -9  -6  14    5.23    0.30
  -8  -6  14   -0.09    0.07
  -7  -6  14    5.00    0.27
  -6  -6  14    0.20    0.07
  -6  -6  14    0.18    0.07
  -5  -6  14    0.00    0.06
  -5  -6  14    0.20    0.07
   4   6 -14   14.64    0.49
  -4  -6  14   15.07    0.54
  -4  -6  14   14.28    0.53
   3   6 -14   -0.04    0.06
   3   6 -14    0.08    0.05
  -3  -6  14    0.08    0.07
  -3  -6  14    0.01    0.06
  -3  -6  14    0.09    0.07
   2   6 -14    0.08    0.06
  -2  -6  14    0.08    0.07
  -2  -6  14    0.10    0.06
  -2  -6  14    0.15    0.07
   1   6 -14   35.48    1.05
  -1  -6  14   35.19    1.09
  -1  -6  14   34.18    1.11
   0   6 -14    1.91    0.11
   0  -6  14    1.94    0.12
   0  -6  14    1.75    0.14
   0  -6  14    1.79    0.15
  -1   6 -14   26.57    0.79
  -1   6 -14   26.49    0.85
   1  -6  14   26.22    0.80
   1  -6  14   25.48    0.84
   1  -6  14   25.54    0.86
   1  -6  14   25.92    0.91
  -2   6 -14    5.67    0.22
  -2   6 -14    5.74    0.24
   2  -6  14    5.69    0.28
   2  -6  14    5.78    0.23
   2  -6  14    5.64    0.29
   2  -6  14    6.45    0.28
  -3   6 -14    1.31    0.11
   3  -6  14    1.28    0.14
   3  -6  14    1.36    0.15
   3  -6  14    1.40    0.11
   3  -6  14    1.28    0.14
  -4   6 -14    4.37    0.22
   4  -6  14    4.29    0.20
   4  -6  14    4.12    0.23
   4  -6  14    4.20    0.24
   4  -6  14    4.14    0.25
  -5   6 -14   21.76    0.76
   5  -6  14   21.59    0.70
   5  -6  14   20.93    0.74
   5  -6  14   21.41    0.74
   5  -6  14   21.00    0.80
  -6   6 -14    2.71    0.19
   6  -6  14    2.50    0.22
   6  -6  14    2.76    0.19
   6  -6  14    2.72    0.20
   6  -6  14    2.71    0.21
  -7   6 -14    9.93    0.43
   7  -6  14    9.67    0.41
   7  -6  14    9.03    0.42
   7  -6  14    9.56    0.40
  -8   6 -14   -0.13    0.07
   8  -6  14    0.06    0.09
   8  -6  14    0.05    0.10
   8  -6  14    0.04    0.08
   9  -6  14   22.99    0.84
   9  -6  14   22.94    0.82
   9  -6  14   23.60    0.82
  10  -6  14    0.63    0.13
  10  -6  14    0.83    0.17
  10  -6  14    0.55    0.14
  11  -6  14    1.67    0.23
  11  -6  14    1.77    0.19
  11  -6  14    2.07    0.23
  12  -6  14    4.28    0.32
  12  -6  14    4.28    0.27
  12  -6  14    4.31    0.33
  13  -6  14    0.16    0.15
  13  -6  14   -0.09    0.13
 -11  -5  14    1.96    0.21
 -10  -5  14    2.61    0.23
  -9  -5  14    3.24    0.24
  -8  -5  14    5.20    0.28
  -7  -5  14    0.92    0.10
  -7  -5  14    0.83    0.12
  -6  -5  14    3.81    0.20
  -6  -5  14    4.04    0.23
  -5  -5  14   42.53    1.33
  -5  -5  14   43.89    1.42
   4   5 -14    7.60    0.31
   4   5 -14    7.63    0.27
  -4  -5  14    7.35    0.33
  -4  -5  14    7.49    0.31
   3   5 -14    0.06    0.05
   3   5 -14   -0.09    0.05
  -3  -5  14    0.08    0.06
  -3  -5  14    0.08    0.06
  -3  -5  14    0.05    0.05
   2   5 -14    8.65    0.30
   2   5 -14    8.82    0.31
  -2  -5  14    8.24    0.32
  -2  -5  14    8.87    0.36
  -2  -5  14    8.30    0.34
   1   5 -14    2.87    0.12
   1   5 -14    2.76    0.14
   1   5 -14    2.93    0.15
  -1  -5  14    2.98    0.16
   0   5 -14    1.05    0.09
   0   5 -14    1.14    0.07
   0  -5  14    0.97    0.10
   0  -5  14    1.10    0.07
  -1   5 -14    5.88    0.26
   1  -5  14    6.16    0.22
   1  -5  14    6.01    0.26
   1  -5  14    6.50    0.31
  -2   5 -14    0.41    0.08
   2  -5  14    0.39    0.06
   2  -5  14    0.32    0.08
   2  -5  14    0.30    0.09
  -3   5 -14   23.19    0.85
   3  -5  14   25.60    0.82
   3  -5  14   26.12    0.77
   3  -5  14   25.18    0.90
  -4   5 -14    0.70    0.10
   4  -5  14    0.63    0.12
   4  -5  14    0.71    0.08
   4  -5  14    0.66    0.11
  -5   5 -14    0.20    0.08
   5  -5  14    0.20    0.09
   5  -5  14    0.26    0.07
   5  -5  14    0.20    0.10
  -6   5 -14   13.42    0.52
   6  -5  14   12.86    0.56
   6  -5  14   12.36    0.46
   6  -5  14   12.00    0.50
  -7   5 -14    7.37    0.36
   7  -5  14    6.58    0.32
   7  -5  14    7.48    0.36
  -8   5 -14    4.70    0.29
   8  -5  14    4.00    0.27
   8  -5  14    4.96    0.27
  -9   5 -14   29.87    1.18
   9  -5  14   32.12    1.07
   9  -5  14   32.64    1.10
   9  -5  14   32.15    1.06
  10  -5  14    2.89    0.22
  10  -5  14    3.03    0.25
  10  -5  14    3.15    0.28
  11  -5  14    8.15    0.42
  11  -5  14    7.18    0.35
  11  -5  14    7.07    0.42
  12  -5  14    2.52    0.28
  12  -5  14    2.55    0.27
  13  -5  14    3.83    0.33
  13  -5  14    2.97    0.32
 -12  -4  14    0.96    0.18
 -11  -4  14    4.98    0.32
 -10  -4  14    3.05    0.25
  -9  -4  14   -0.07    0.08
  -8  -4  14    1.31    0.15
  -7  -4  14    4.45    0.25
  -7  -4  14    4.07    0.20
  -6  -4  14    0.31    0.07
  -6  -4  14    0.22    0.09
   5   4 -14   18.47    0.56
  -5  -4  14   18.82    0.68
  -5  -4  14   18.25    0.62
   4   4 -14    6.90    0.29
   4   4 -14    7.45    0.25
  -4  -4  14    7.27    0.27
  -4  -4  14    7.51    0.30
  -4  -4  14    7.49    0.33
   3   4 -14   16.46    0.55
   3   4 -14   15.80    0.51
   3   4 -14   15.62    0.50
  -3  -4  14   14.93    0.58
  -3  -4  14   16.18    0.51
   2   4 -14    3.90    0.15
   2   4 -14    4.01    0.17
   2   4 -14    4.07    0.19
  -2  -4  14    3.71    0.22
  -2  -4  14    4.03    0.18
   1   4 -14   21.54    0.72
   1   4 -14   20.76    0.67
  -1  -4  14   21.29    0.76
  -1  -4  14   21.40    0.68
   0   4 -14    0.45    0.08
   0  -4  14    0.49    0.07
  -1   4 -14   27.69    0.93
   1  -4  14   28.65    0.88
   1  -4  14   26.43    0.81
   1  -4  14   28.25    0.98
  -2   4 -14    0.88    0.11
   2  -4  14    0.82    0.07
   2  -4  14    0.79    0.10
   2  -4  14    0.89    0.13
  -3   4 -14    0.03    0.06
   3  -4  14    0.11    0.07
   3  -4  14    0.05    0.07
   3  -4  14   -0.03    0.04
  -4   4 -14    0.02    0.06
   4  -4  14   -0.01    0.08
   4  -4  14    0.04    0.07
   4  -4  14    0.04    0.05
  -5   4 -14    0.69    0.12
   5  -4  14    0.75    0.10
   5  -4  14    0.87    0.15
   5  -4  14    0.61    0.11
  -6   4 -14    5.39    0.30
   6  -4  14    5.12    0.29
   6  -4  14    5.83    0.34
   6  -4  14    5.17    0.26
  -7   4 -14    0.32    0.11
   7  -4  14    0.36    0.10
   7  -4  14    0.51    0.12
  -8   4 -14   12.94    0.57
   8  -4  14   14.01    0.54
   8  -4  14   13.91    0.56
  -9   4 -14    3.19    0.26
   9  -4  14    3.04    0.24
   9  -4  14    3.06    0.25
  10  -4  14    1.49    0.19
  10  -4  14    1.35    0.20
  11  -4  14    2.22    0.25
  11  -4  14    2.06    0.24
  11  -4  14    1.81    0.18
  12  -4  14    3.17    0.31
  12  -4  14    4.24    0.33
  13  -4  14    3.53    0.34
  13  -4  14    3.74    0.32
 -12  -3  14    4.14    0.31
 -11  -3  14    1.77    0.21
 -10  -3  14    6.02    0.34
  -9  -3  14   22.38    0.84
  -8  -3  14    7.81    0.38
  -7  -3  14   27.81    0.98
  -7  -3  14   27.90    0.87
  -6  -3  14    1.08    0.11
  -6  -3  14    1.32    0.14
   5   3 -14    0.92    0.10
  -5  -3  14    0.80    0.12
   4   3 -14    8.94    0.29
   4   3 -14    9.36    0.32
   4   3 -14    8.51    0.36
  -4  -3  14    9.36    0.39
  -4  -3  14    9.27    0.30
   3   3 -14    3.49    0.19
   3   3 -14    3.57    0.14
   3   3 -14    3.39    0.13
   3   3 -14    3.66    0.15
  -3  -3  14    3.36    0.21
  -3  -3  14    3.52    0.15
   2   3 -14    2.58    0.13
   2   3 -14    2.87    0.17
  -2  -3  14    2.50    0.18
  -2  -3  14    2.79    0.13
   1   3 -14    6.39    0.24
   1   3 -14    6.19    0.28
  -1  -3  14    5.78    0.30
  -1  -3  14    6.03    0.24
   0   3 -14   19.62    0.69
   0   3 -14   19.14    0.63
   0  -3  14   19.39    0.63
  -1   3 -14    3.31    0.20
   1  -3  14    3.10    0.17
  -2   3 -14   16.52    0.61
   2  -3  14   15.81    0.50
   2  -3  14   16.31    0.64
   2  -3  14   16.24    0.56
  -3   3 -14   17.80    0.64
   3  -3  14   16.92    0.68
   3  -3  14   16.54    0.59
   3  -3  14   16.62    0.54
  -4   3 -14   19.25    0.72
   4  -3  14   20.24    0.68
   4  -3  14   18.80    0.76
   4  -3  14   19.51    0.63
  -5   3 -14    0.23    0.09
   5  -3  14    0.12    0.06
   5  -3  14    0.14    0.10
   5  -3  14    0.13    0.08
  -6   3 -14   26.32    0.96
   6  -3  14   26.49    0.90
  -7   3 -14    1.71    0.20
   7  -3  14    1.86    0.19
  -8   3 -14    8.14    0.42
   8  -3  14    8.10    0.41
  -9   3 -14    0.81    0.16
   9  -3  14    0.70    0.15
 -10   3 -14    1.51    0.21
  10  -3  14    1.37    0.21
  11  -3  14    0.44    0.16
  11  -3  14    0.56    0.16
  12  -3  14    2.16    0.27
  12  -3  14    2.10    0.27
  13   2 -14    4.29    0.33
 -13  -2  14    3.63    0.31
  12   2 -14    0.65    0.16
 -12  -2  14    0.47    0.14
  11   2 -14   12.76    0.55
 -11  -2  14   14.06    0.60
  10   2 -14    4.76    0.29
 -10  -2  14    5.33    0.32
   9   2 -14    0.99    0.14
  -9  -2  14    1.21    0.16
  -8  -2  14    6.04    0.33
  -8  -2  14    5.89    0.24
   7   2 -14    9.67    0.38
  -7  -2  14    9.98    0.44
   6   2 -14   15.86    0.52
  -6  -2  14   15.23    0.61
   5   2 -14    3.07    0.15
  -5  -2  14    2.87    0.21
   4   2 -14   36.14    1.05
   4   2 -14   35.22    1.04
  -4  -2  14   35.88    1.03
  -4  -2  14   34.28    1.20
   3   2 -14    2.64    0.18
  -3  -2  14    2.22    0.18
  -3  -2  14    2.54    0.11
   2   2 -14   56.29    1.82
  -2  -2  14   53.57    1.83
  -2  -2  14   57.35    1.63
   1   2 -14    0.91    0.12
  -1  -2  14    0.75    0.08
  -1  -2  14    0.70    0.12
   0   2 -14    9.13    0.40
   0  -2  14    9.34    0.34
  -1   2 -14    0.78    0.11
   1  -2  14    0.65    0.05
   1  -2  14    0.71    0.09
   1  -2  14    0.68    0.06
  -2   2 -14    9.26    0.41
   2  -2  14    9.04    0.31
   2  -2  14    9.26    0.43
   2  -2  14    9.38    0.32
   2  -2  14    8.99    0.36
  -3   2 -14    1.40    0.16
   3  -2  14    1.61    0.19
   3  -2  14    1.12    0.13
  -4   2 -14   17.82    0.68
   4  -2  14   17.20    0.71
   4  -2  14   17.49    0.63
  -5   2 -14    0.61    0.13
   5  -2  14    0.50    0.12
  -6   2 -14    4.31    0.29
   6  -2  14    4.41    0.27
  -7   2 -14   17.76    0.70
   7  -2  14   15.62    0.64
  -8   2 -14    0.07    0.12
   8  -2  14    0.00    0.10
  -9   2 -14    0.33    0.12
   9  -2  14    0.54    0.14
 -10   2 -14    0.42    0.15
  10  -2  14    0.15    0.14
  11  -2  14    2.18    0.26
  12  -2  14    1.41    0.24
  13   1 -14    5.73    0.37
 -13  -1  14    7.74    0.44
  12   1 -14    1.66    0.21
 -12  -1  14    1.69    0.22
  11   1 -14    1.00    0.16
 -11  -1  14    0.89    0.17
  10   1 -14    1.23    0.15
 -10  -1  14    0.93    0.16
   9   1 -14   -0.08    0.07
  -9  -1  14    0.01    0.09
   8   1 -14    0.34    0.09
  -8  -1  14    0.19    0.10
   7   1 -14   23.62    0.76
  -7  -1  14   23.28    0.86
   6   1 -14    2.16    0.13
  -6  -1  14    1.90    0.19
   5   1 -14   17.88    0.57
  -5  -1  14   18.40    0.69
   4   1 -14    3.51    0.14
  -4  -1  14    3.56    0.23
  -4  -1  14    3.65    0.13
  -3  -1  14   30.66    1.08
  -3  -1  14   31.40    0.92
   2   1 -14    0.23    0.08
  -2  -1  14    0.37    0.10
  -2  -1  14    0.19    0.05
   1   1 -14   36.42    1.24
  -1  -1  14   36.25    1.09
  -1  -1  14   35.69    1.24
   0   1 -14    3.08    0.21
   0  -1  14    2.95    0.16
  -1   1 -14    0.18    0.08
   1  -1  14    0.10    0.04
   1  -1  14    0.14    0.06
  -2   1 -14    6.62    0.34
   2  -1  14    6.55    0.26
   2  -1  14    7.07    0.30
  -3   1 -14    8.79    0.42
   3  -1  14    9.32    0.45
   3  -1  14    8.93    0.35
   3  -1  14    8.99    0.37
  -4   1 -14   -0.01    0.08
   4  -1  14    0.03    0.08
  -5   1 -14   18.71    0.74
   5  -1  14   19.44    0.70
  -6   1 -14    4.07    0.28
   6  -1  14    3.78    0.26
  -7   1 -14    2.96    0.26
   7  -1  14    2.80    0.24
  -8   1 -14    7.69    0.42
   8  -1  14    8.36    0.42
  -9   1 -14    0.10    0.11
   9  -1  14    0.15    0.13
 -10   1 -14    1.97    0.24
  10  -1  14    2.12    0.25
  11  -1  14   -0.07    0.13
  12  -1  14    0.71    0.20
  13   0 -14    3.09    0.29
 -13   0  14    2.63    0.28
  12   0 -14    0.08    0.10
 -12   0  14    0.04    0.11
  11   0 -14   12.56    0.54
 -11   0  14   14.22    0.61
  10   0 -14    1.63    0.17
 -10   0  14    1.05    0.17
   9   0 -14   11.73    0.45
  -9   0  14   10.89    0.51
   8   0 -14   17.67    0.62
  -8   0  14   18.46    0.72
   7   0 -14    0.08    0.06
  -7   0  14    0.00    0.08
   6   0 -14    4.56    0.20
  -6   0  14    4.58    0.28
   5   0 -14   37.57    1.12
  -5   0  14   37.96    1.30
   4   0 -14   17.32    0.55
  -4   0  14   19.24    0.71
  -4   0  14   18.53    0.55
   3   0 -14    0.58    0.05
  -3   0  14    0.40    0.10
  -3   0  14    0.65    0.06
   2   0 -14    5.86    0.32
  -2   0  14    6.31    0.32
  -2   0  14    5.74    0.23
   1   0 -14    0.05    0.07
  -1   0  14    0.04    0.02
  -1   0  14    0.13    0.05
   0   0 -14    1.18    0.15
   0   0  14    1.48    0.13
   0   0  14    1.55    0.09
  -1   0 -14    1.14    0.15
   1   0  14    1.23    0.10
   1   0  14    1.16    0.13
  -2   0 -14   28.31    1.04
   2   0  14   29.01    0.94
   2   0  14   29.01    0.91
  -3   0 -14    3.10    0.24
   3   0  14    3.03    0.20
  -4   0 -14    0.28    0.12
   4   0  14    0.20    0.10
  -5   0 -14    0.39    0.12
   5   0  14    0.10    0.10
  -6   0 -14    0.06    0.10
   6   0  14    0.02    0.10
  -7   0 -14   13.38    0.61
   7   0  14   13.21    0.56
  -8   0 -14    0.17    0.13
   8   0  14   -0.02    0.10
  -9   0 -14    6.96    0.42
   9   0  14    6.17    0.39
 -10   0 -14    0.65    0.17
  10   0  14    0.65    0.16
 -11   0 -14    3.10    0.34
  11   0  14    3.42    0.34
  14  -1 -14    3.89    0.31
 -14   1  14    3.94    0.35
  13  -1 -14   27.55    0.97
 -13   1  14   26.52    1.06
  12  -1 -14    2.85    0.24
 -12   1  14    2.49    0.27
  11  -1 -14   24.49    0.84
 -11   1  14   22.97    0.93
  10  -1 -14    1.91    0.19
 -10   1  14    2.05    0.22
   9  -1 -14    1.42    0.15
  -9   1  14    1.85    0.22
   8  -1 -14   12.68    0.46
  -8   1  14   12.35    0.55
   7  -1 -14    0.20    0.07
  -7   1  14    0.06    0.09
   6  -1 -14    1.06    0.10
  -6   1  14    0.98    0.14
   5  -1 -14    4.86    0.20
  -5   1  14    4.66    0.16
  -5   1  14    4.77    0.16
  -5   1  14    4.87    0.29
   4  -1 -14    2.91    0.14
  -4   1  14    2.86    0.13
  -4   1  14    3.25    0.23
   3  -1 -14    5.49    0.21
  -3   1  14    5.92    0.32
  -3   1  14    5.69    0.20
  -3   1  14    5.50    0.22
   2  -1 -14    0.15    0.04
  -2   1  14    0.13    0.05
  -2   1  14    0.19    0.09
  -2   1  14    0.16    0.04
   1  -1 -14   17.72    0.71
  -1   1  14   18.12    0.56
  -1   1  14   17.83    0.60
   0  -1 -14    4.99    0.31
   0   1  14    5.12    0.25
   0   1  14    5.20    0.21
  -1  -1 -14   32.19    1.21
   1   1  14   35.55    1.10
   1   1  14   35.58    1.07
  -2  -1 -14    1.74    0.20
   2   1  14    1.79    0.17
  -3  -1 -14    1.64    0.19
   3   1  14    1.68    0.18
  -4  -1 -14    0.85    0.17
   4   1  14    1.02    0.16
  -5  -1 -14    0.45    0.14
   5   1  14    0.31    0.13
  -6  -1 -14    2.77    0.27
   6   1  14    2.75    0.26
  -7  -1 -14    1.01    0.19
   7   1  14    0.71    0.15
  -8  -1 -14   11.18    0.57
   8   1  14   12.06    0.55
  -9  -1 -14   10.72    0.56
   9   1  14   10.92    0.53
 -10  -1 -14    1.17    0.21
  10   1  14    1.27    0.21
  14  -2 -14    3.51    0.30
 -14   2  14    2.95    0.32
  13  -2 -14    0.40    0.14
 -13   2  14    0.64    0.17
  12  -2 -14   10.58    0.47
 -12   2  14   10.31    0.54
  11  -2 -14   -0.04    0.09
 -11   2  14    0.05    0.11
  10  -2 -14   44.95    1.42
 -10   2  14   45.14    1.58
   9  -2 -14   -0.05    0.07
  -9   2  14   -0.03    0.10
   8  -2 -14   18.27    0.62
  -8   2  14   17.90    0.73
   7  -2 -14    1.69    0.14
  -7   2  14    1.94    0.22
   6  -2 -14    0.87    0.10
  -6   2  14    0.86    0.15
   5  -2 -14   12.48    0.43
  -5   2  14   12.51    0.40
  -5   2  14   12.12    0.54
  -5   2  14   12.56    0.40
   4  -2 -14    8.21    0.30
  -4   2  14    7.69    0.40
  -4   2  14    8.06    0.28
   3  -2 -14   12.34    0.42
  -3   2  14   11.90    0.40
  -3   2  14   12.58    0.54
   2  -2 -14    0.22    0.06
  -2   2  14    0.14    0.05
  -2   2  14    0.26    0.10
   1  -2 -14    0.44    0.11
   0  -2 -14   35.27    1.24
   0   2  14   34.02    1.07
  -1  -2 -14    0.85    0.16
  -2  -2 -14   10.04    0.49
  -3  -2 -14   16.58    0.70
  -4  -2 -14   16.36    0.70
  -5  -2 -14   12.91    0.60
   5   2  14   13.66    0.57
  -6  -2 -14    0.19    0.13
   6   2  14    0.79    0.17
  -7  -2 -14   -0.07    0.10
   7   2  14   -0.10    0.11
  -8  -2 -14    0.38    0.15
   8   2  14    0.43    0.16
  -9  -2 -14    1.82    0.26
   9   2  14    1.61    0.23
 -10  -2 -14    1.03    0.21
  10   2  14    0.94    0.20
  14  -3 -14    0.80    0.17
 -14   3  14    0.68    0.19
  13  -3 -14    0.01    0.11
 -13   3  14   -0.14    0.11
  12  -3 -14    1.12    0.18
 -12   3  14    1.53    0.22
  11  -3 -14    1.18    0.17
 -11   3  14    0.77    0.17
  10  -3 -14   25.65    0.88
 -10   3  14   25.95    1.00
   9  -3 -14    1.57    0.16
  -9   3  14    1.59    0.22
   8  -3 -14    1.74    0.15
  -8   3  14    1.66    0.21
   7  -3 -14    0.28    0.08
  -7   3  14    0.21    0.11
   6  -3 -14    1.63    0.14
  -6   3  14    1.61    0.10
  -6   3  14    1.46    0.19
   5  -3 -14    2.51    0.16
  -5   3  14    2.55    0.24
  -5   3  14    3.14    0.16
   4  -3 -14    3.03    0.17
  -4   3  14    3.29    0.18
  -4   3  14    2.97    0.24
  -4   3  14    3.20    0.16
   3  -3 -14    2.51    0.16
  -3   3  14    2.26    0.21
  -3   3  14    2.59    0.14
   2  -3 -14    1.15    0.12
  -2   3  14    1.10    0.17
  -2   3  14    1.17    0.11
   1  -3 -14    3.32    0.26
   1  -3 -14    3.07    0.19
  -1   3  14    3.30    0.18
   0  -3 -14    0.02    0.10
  -1  -3 -14    6.88    0.40
  -2  -3 -14    5.19    0.34
  -3  -3 -14   10.31    0.52
  -4  -3 -14    7.57    0.44
  -5  -3 -14    0.93    0.18
  -6  -3 -14    8.42    0.48
   6   3  14    9.50    0.47
  -7  -3 -14    0.29    0.15
   7   3  14    0.38    0.14
  -8  -3 -14    5.70    0.40
   8   3  14    5.80    0.39
  -9  -3 -14    0.36    0.16
   9   3  14    0.34    0.15
  14  -4 -14    0.96    0.19
 -14   4  14    1.11    0.22
  13  -4 -14    0.14    0.12
 -13   4  14   -0.11    0.12
  12  -4 -14    1.04    0.17
 -12   4  14    0.95    0.20
  11  -4 -14    0.03    0.10
 -11   4  14    0.06    0.12
  10  -4 -14    1.67    0.18
 -10   4  14    1.63    0.22
   9  -4 -14    5.59    0.29
  -9   4  14    5.98    0.37
   8  -4 -14    4.50    0.24
  -8   4  14    4.00    0.31
   7  -4 -14    0.12    0.08
  -7   4  14    0.17    0.11
   6  -4 -14    9.49    0.35
  -6   4  14    6.73    0.29
  -6   4  14    8.65    0.44
   5  -4 -14    0.00    0.07
  -5   4  14    0.05    0.06
  -5   4  14    0.19    0.12
   4  -4 -14   20.40    0.69
  -4   4  14   20.44    0.82
   3  -4 -14    5.63    0.27
  -3   4  14    4.80    0.32
   2  -4 -14   15.34    0.55
   1  -4 -14    1.41    0.15
   1  -4 -14    1.15    0.18
   0  -4 -14    1.70    0.22
  -1  -4 -14    3.30    0.29
  -2  -4 -14    1.63    0.22
  -3  -4 -14    2.17    0.24
  -4  -4 -14    5.23    0.37
  -5  -4 -14    5.32    0.38
  -6  -4 -14    0.06    0.12
  -7  -4 -14    0.68    0.19
   7   4  14    0.73    0.19
  -8  -4 -14    1.02    0.20
   8   4  14    1.15    0.21
  14  -5 -14    0.11    0.13
 -14   5  14    0.12    0.15
  13  -5 -14   -0.10    0.11
 -13   5  14   -0.09    0.12
  12  -5 -14    1.11    0.18
 -12   5  14    1.34    0.22
  11  -5 -14    0.40    0.13
 -11   5  14    0.18    0.12
  10  -5 -14    0.96    0.15
 -10   5  14    1.05    0.19
   9  -5 -14    1.58    0.17
  -9   5  14    1.59    0.23
   8  -5 -14    0.01    0.08
  -8   5  14    0.17    0.11
   7  -5 -14   12.83    0.50
  -7   5  14   12.96    0.60
   6  -5 -14   61.68    1.90
  -6   5  14   63.81    2.13
   5  -5 -14    8.37    0.37
  -5   5  14    8.81    0.46
   4  -5 -14    0.17    0.10
  -4   5  14    0.20    0.12
   3  -5 -14   15.87    0.57
  -3   5  14   13.90    0.64
   2  -5 -14   19.99    0.71
   1  -5 -14    0.44    0.13
   1  -5 -14    0.41    0.12
   0  -5 -14    3.28    0.30
  -1  -5 -14    5.46    0.38
  -2  -5 -14    1.03    0.20
  -3  -5 -14    5.74    0.39
  -4  -5 -14   12.21    0.61
  -5  -5 -14    4.06    0.34
  -6  -5 -14    7.81    0.48
  -7  -5 -14   -0.07    0.13
  14  -6 -14    1.05    0.20
 -14   6  14    0.90    0.22
  13  -6 -14   -0.19    0.11
 -13   6  14    0.15    0.14
  12  -6 -14    0.23    0.13
 -12   6  14    0.32    0.15
  11  -6 -14    8.63    0.42
 -11   6  14    8.86    0.51
  10  -6 -14    0.09    0.10
 -10   6  14   -0.12    0.10
   9  -6 -14   12.85    0.51
  -9   6  14   11.56    0.59
   8  -6 -14    3.86    0.26
  -8   6  14    4.52    0.33
   7  -6 -14   15.26    0.60
  -7   6  14   16.53    0.71
   6  -6 -14   25.70    0.87
  -6   6  14   25.20    1.00
   5  -6 -14    0.10    0.10
  -5   6  14    0.00    0.11
   4  -6 -14   23.24    0.81
  -4   6  14   23.01    0.92
   3  -6 -14    0.23    0.11
  -3   6  14    0.07    0.12
   2  -6 -14   17.96    0.68
   1  -6 -14   -0.01    0.12
   1  -6 -14    0.15    0.10
   0  -6 -14    0.06    0.11
  -1  -6 -14    2.21    0.27
  -2  -6 -14    9.75    0.53
  -3  -6 -14    0.64    0.17
  -4  -6 -14    3.67    0.36
  -5  -6 -14    0.46    0.17
  -6  -6 -14    1.93    0.27
  14  -7 -14    0.14    0.15
  13  -7 -14   32.12    1.13
  12  -7 -14    4.17    0.30
 -12   7  14    3.98    0.36
  11  -7 -14    0.72    0.16
 -11   7  14    0.77    0.19
  10  -7 -14    2.10    0.22
 -10   7  14    1.53    0.24
   9  -7 -14    0.04    0.09
  -9   7  14    0.16    0.13
   8  -7 -14    0.12    0.10
  -8   7  14    0.12    0.13
   7  -7 -14   -0.01    0.09
  -7   7  14    0.16    0.11
   6  -7 -14    1.29    0.18
  -6   7  14    1.01    0.19
   5  -7 -14   45.13    1.48
  -5   7  14   47.26    1.65
   4  -7 -14    0.39    0.13
  -4   7  14    0.48    0.14
   3  -7 -14    5.34    0.32
   2  -7 -14    0.00    0.10
   1  -7 -14   17.93    0.82
   1  -7 -14   19.79    0.74
   0  -7 -14    1.29    0.22
  -1  -7 -14   12.96    0.65
  -2  -7 -14    5.17    0.39
  -3  -7 -14    5.84    0.42
  -4  -7 -14    0.24    0.15
  -5  -7 -14   -0.02    0.14
  14  -8 -14    2.85    0.30
  13  -8 -14    0.04    0.13
  12  -8 -14    6.37    0.38
  11  -8 -14    3.03    0.28
  10  -8 -14    7.73    0.41
   9  -8 -14    0.59    0.15
   8  -8 -14   -0.15    0.10
   7  -8 -14   29.21    1.02
   6  -8 -14   -0.05    0.10
   5  -8 -14    1.36    0.19
   4  -8 -14    2.14    0.23
   3  -8 -14   -0.06    0.10
   2  -8 -14   -0.13    0.10
   1  -8 -14    1.13    0.22
   1  -8 -14    1.41    0.21
   0  -8 -14    0.12    0.14
  -1  -8 -14    1.67    0.25
  -2  -8 -14    6.06    0.44
  -3  -8 -14   11.55    0.63
  -4  -8 -14    4.61    0.39
  13  -9 -14    1.82    0.25
  12  -9 -14   -0.11    0.12
  11  -9 -14    5.37    0.36
  10  -9 -14    0.67    0.17
   9  -9 -14    1.75    0.23
   8  -9 -14   -0.05    0.11
   7  -9 -14    3.94    0.31
   6  -9 -14   57.04    1.83
   5  -9 -14    3.00    0.29
   4  -9 -14    5.74    0.36
   3  -9 -14    0.21    0.13
   2  -9 -14    0.45    0.17
   2  -9 -14    0.86    0.18
   1  -9 -14    0.07    0.14
   1  -9 -14    0.32    0.14
   0  -9 -14    0.59    0.19
  -1  -9 -14   -0.06    0.13
  -2  -9 -14    0.40    0.19
  -3  -9 -14    2.48    0.31
  13 -10 -14    3.39    0.34
  12 -10 -14    0.39    0.15
  11 -10 -14    4.95    0.37
  10 -10 -14    7.10    0.42
   9 -10 -14    4.53    0.34
   8 -10 -14    2.73    0.29
   7 -10 -14    1.53    0.23
   6 -10 -14    0.18    0.14
   5 -10 -14    0.60    0.17
   4 -10 -14    1.16    0.21
   3 -10 -14    7.49    0.45
   2 -10 -14    1.08    0.22
   2 -10 -14    0.98    0.24
   1 -10 -14    0.06    0.16
   0 -10 -14    0.35    0.18
  -1 -10 -14    0.23    0.17
  12 -11 -14    0.41    0.17
  11 -11 -14    1.69    0.26
  10 -11 -14    1.12    0.22
   9 -11 -14    0.54    0.18
   8 -11 -14    2.81    0.31
   7 -11 -14   30.02    1.12
   6 -11 -14    2.64    0.30
   5 -11 -14    9.42    0.52
   4 -11 -14    0.39    0.17
   3 -11 -14    0.17    0.16
   2 -11 -14    0.07    0.17
   2 -11 -14    0.01    0.15
   1 -11 -14    0.70    0.22
   0 -11 -14    1.37    0.27
  11 -12 -14    0.08    0.16
  10 -12 -14    2.41    0.30
   9 -12 -14   -0.18    0.14
   8 -12 -14    3.91    0.37
   7 -12 -14    0.32    0.18
   6 -12 -14    2.17    0.29
   5 -12 -14    1.39    0.24
   4 -12 -14    7.57    0.49
   3 -12 -14    0.05    0.15
   3 -12 -14   -0.16    0.15
   2 -12 -14    0.31    0.19
   7 -13 -14    0.25    0.18
   6 -17  15    7.07    0.50
   2 -16  15    0.24    0.18
   2 -16  15    0.08    0.15
   3 -16  15    5.49    0.41
   3 -16  15    5.95    0.45
   4 -16  15   -0.02    0.14
   4 -16  15    0.05    0.15
   5 -16  15    1.31    0.24
   5 -16  15    1.61    0.28
   6 -16  15    0.16    0.16
   6 -16  15   -0.29    0.12
   7 -16  15    8.36    0.50
   7 -16  15    8.48    0.52
   7 -16  15    6.78    0.46
   8 -16  15    0.61    0.19
   8 -16  15    0.91    0.22
   8 -16  15    0.84    0.23
   9 -16  15    3.98    0.39
   9 -16  15    3.76    0.37
   9 -16  15    3.84    0.37
  10 -16  15   -0.08    0.14
  10 -16  15    0.11    0.16
   1 -15  15    2.89    0.33
   1 -15  15    2.78    0.31
   2 -15  15    1.71    0.27
   2 -15  15    1.90    0.26
   3 -15  15   13.32    0.66
   3 -15  15   13.00    0.63
   4 -15  15    7.33    0.46
   4 -15  15    8.13    0.48
   4 -15  15    7.05    0.45
   5 -15  15    9.93    0.52
   5 -15  15    9.34    0.52
   5 -15  15    9.60    0.52
   6 -15  15    0.12    0.16
   6 -15  15   -0.05    0.13
   6 -15  15    0.19    0.17
   7 -15  15    0.53    0.17
   7 -15  15    0.43    0.19
   7 -15  15    0.71    0.18
   8 -15  15   -0.01    0.14
   8 -15  15   -0.17    0.11
   8 -15  15    0.23    0.15
   9 -15  15    2.65    0.31
   9 -15  15    2.25    0.28
   9 -15  15    3.06    0.33
  10 -15  15    4.70    0.36
  10 -15  15    3.96    0.39
  10 -15  15    4.12    0.36
  11 -15  15    0.35    0.17
  11 -15  15    0.20    0.19
  11 -15  15    0.84    0.21
   0 -14  15    0.84    0.19
   0 -14  15    0.51    0.18
   1 -14  15    6.39    0.40
   1 -14  15    5.45    0.38
   2 -14  15    8.94    0.50
   2 -14  15    8.98    0.51
   2 -14  15    9.06    0.48
   3 -14  15    1.17    0.22
   3 -14  15    0.93    0.20
   3 -14  15    1.11    0.20
   4 -14  15    4.51    0.37
   4 -14  15    5.27    0.37
   4 -14  15    4.42    0.35
   5 -14  15    1.83    0.25
   5 -14  15    2.41    0.28
   5 -14  15    2.43    0.27
   6 -14  15    0.06    0.14
   6 -14  15   -0.06    0.12
   6 -14  15   -0.02    0.11
   7 -14  15   10.46    0.52
   7 -14  15   10.79    0.55
   7 -14  15   10.22    0.53
   8 -14  15    0.10    0.15
   8 -14  15    0.15    0.14
   8 -14  15    0.63    0.18
   9 -14  15    0.89    0.19
   9 -14  15    0.78    0.20
   9 -14  15    0.59    0.19
  10 -14  15    0.05    0.13
  10 -14  15    0.17    0.14
  10 -14  15    0.09    0.13
  11 -14  15    0.02    0.14
  11 -14  15    0.12    0.15
  11 -14  15    0.02    0.14
  12 -14  15    1.11    0.22
  12 -14  15    1.03    0.22
  12 -14  15    0.90    0.20
   0 -13  15    2.31    0.26
   0 -13  15    2.63    0.27
   0 -13  15    1.85    0.25
   1 -13  15    5.49    0.38
   1 -13  15    6.28    0.39
   1 -13  15    5.82    0.24
   1 -13  15    6.24    0.37
   2 -13  15    2.79    0.29
   2 -13  15    2.36    0.16
   2 -13  15    2.73    0.29
   2 -13  15    2.95    0.28
   3 -13  15   11.07    0.54
   3 -13  15   11.86    0.54
   3 -13  15   12.13    0.57
   4 -13  15    0.01    0.12
   4 -13  15    0.04    0.12
   4 -13  15   -0.10    0.13
   5 -13  15    0.46    0.16
   5 -13  15    0.36    0.14
   5 -13  15    0.16    0.13
   6 -13  15    0.50    0.15
   6 -13  15    0.62    0.17
   6 -13  15    0.68    0.18
   7 -13  15    4.95    0.34
   7 -13  15    4.88    0.35
   7 -13  15    4.86    0.35
   8 -13  15    6.88    0.42
   8 -13  15    7.63    0.42
   8 -13  15    7.68    0.43
   9 -13  15   10.46    0.52
   9 -13  15   10.19    0.51
   9 -13  15    9.68    0.49
  10 -13  15    1.02    0.19
  10 -13  15    0.94    0.22
  10 -13  15    1.09    0.20
  11 -13  15   12.15    0.59
  11 -13  15   12.42    0.60
  11 -13  15   13.64    0.62
  12 -13  15    7.56    0.45
  12 -13  15    7.71    0.48
  12 -13  15    7.17    0.44
  13 -13  15    0.01    0.14
  13 -13  15    0.07    0.14
  -1 -12  15    1.44    0.21
  -1 -12  15    2.27    0.25
   0 -12  15    0.99    0.17
   0 -12  15    0.78    0.17
   0 -12  15    0.93    0.18
   1 -12  15    2.63    0.27
   1 -12  15    2.79    0.16
   1 -12  15    3.11    0.25
   1 -12  15    2.38    0.25
   2 -12  15    0.07    0.11
   2 -12  15    0.20    0.07
   2 -12  15   -0.09    0.09
   2 -12  15    0.14    0.13
   3 -12  15    8.31    0.41
   3 -12  15    7.81    0.43
   3 -12  15    7.59    0.34
   3 -12  15    8.24    0.43
   4 -12  15   32.47    1.14
   4 -12  15   31.26    1.11
   4 -12  15   34.50    1.15
   5 -12  15    1.00    0.19
   5 -12  15    1.24    0.20
   5 -12  15    1.18    0.18
   6 -12  15    6.00    0.38
   6 -12  15    6.46    0.37
   6 -12  15    6.42    0.36
   7 -12  15    1.50    0.20
   7 -12  15    1.40    0.20
   7 -12  15    1.41    0.21
   8 -12  15    5.63    0.35
   8 -12  15    6.27    0.36
   8 -12  15    6.12    0.37
   9 -12  15    0.33    0.15
   9 -12  15    0.22    0.15
   9 -12  15    0.09    0.12
  10 -12  15   16.66    0.69
  10 -12  15   15.80    0.70
  10 -12  15   15.85    0.67
  11 -12  15    0.19    0.15
  11 -12  15    0.32    0.15
  11 -12  15    0.30    0.14
  12 -12  15   12.60    0.60
  12 -12  15   13.43    0.61
  12 -12  15   13.62    0.64
  13 -12  15    3.93    0.32
  13 -12  15    4.22    0.35
  13 -12  15    3.45    0.34
  -2 -11  15   10.54    0.48
  -1 -11  15    0.98    0.17
  -1 -11  15    0.90    0.17
   0 -11  15    0.25    0.12
   0 -11  15    0.31    0.11
   0 -11  15    0.18    0.10
   1 -11  15    0.18    0.12
   1 -11  15    0.27    0.07
   1 -11  15    0.29    0.11
   1 -11  15    0.27    0.12
   2 -11  15    0.04    0.06
   2 -11  15    0.04    0.09
   2 -11  15   -0.02    0.09
   2 -11  15    0.10    0.11
   3 -11  15    0.52    0.12
   3 -11  15    0.62    0.14
   3 -11  15    0.47    0.13
   3 -11  15    0.48    0.09
   4 -11  15    2.27    0.23
   4 -11  15    2.21    0.21
   4 -11  15    2.54    0.22
   4 -11  15    2.23    0.18
   5 -11  15    1.61    0.19
   5 -11  15    1.76    0.21
   5 -11  15    1.42    0.19
   6 -11  15    1.88    0.20
   6 -11  15    1.90    0.21
   6 -11  15    1.70    0.20
   7 -11  15   22.20    0.84
   7 -11  15   21.47    0.80
   7 -11  15   23.59    0.85
   8 -11  15    1.30    0.19
   8 -11  15    1.05    0.18
   8 -11  15    1.10    0.17
   9 -11  15    0.60    0.17
   9 -11  15    0.50    0.15
   9 -11  15    0.44    0.14
  10 -11  15    6.25    0.37
  10 -11  15    6.04    0.38
  10 -11  15    6.16    0.37
  11 -11  15    1.69    0.23
  11 -11  15    1.64    0.22
  11 -11  15    1.88    0.24
  12 -11  15    0.79    0.19
  12 -11  15    0.74    0.19
  12 -11  15    1.23    0.20
  13 -11  15    0.42    0.18
  13 -11  15    0.31    0.17
  13 -11  15    0.26    0.14
  -7 -10  15    6.00    0.27
  -6 -10  15    4.60    0.21
  -4 -10  15    2.31    0.21
  -3 -10  15    2.09    0.21
  -2 -10  15    0.28    0.11
  -2 -10  15    0.29    0.12
  -1 -10  15   15.70    0.61
  -1 -10  15   15.08    0.61
   0 -10  15   11.23    0.47
   0 -10  15   10.74    0.47
   0 -10  15   10.84    0.49
   1 -10  15    5.79    0.27
   1 -10  15    6.07    0.33
   1 -10  15    6.11    0.31
   1 -10  15    6.36    0.34
   2 -10  15    3.28    0.25
   2 -10  15    3.59    0.20
   2 -10  15    3.48    0.25
   2 -10  15    3.55    0.23
   3 -10  15    0.45    0.13
   3 -10  15    0.41    0.09
   3 -10  15    0.47    0.13
   3 -10  15    0.33    0.10
   4 -10  15    1.18    0.16
   4 -10  15    1.24    0.17
   4 -10  15    1.45    0.16
   4 -10  15    1.39    0.15
   5 -10  15    1.54    0.19
   5 -10  15    1.59    0.17
   5 -10  15    1.37    0.18
   6 -10  15    1.15    0.17
   6 -10  15    1.33    0.18
   6 -10  15    1.28    0.16
   7 -10  15   11.84    0.50
   7 -10  15   11.95    0.52
   7 -10  15   12.62    0.54
   8 -10  15    0.03    0.11
   8 -10  15   -0.01    0.09
   8 -10  15   -0.05    0.09
   9 -10  15    6.58    0.37
   9 -10  15    6.49    0.35
   9 -10  15    6.45    0.38
  10 -10  15    4.17    0.30
  10 -10  15    4.25    0.30
  10 -10  15    4.13    0.32
  11 -10  15    0.99    0.19
  11 -10  15    1.49    0.21
  11 -10  15    1.29    0.20
  12 -10  15    4.29    0.34
  12 -10  15    5.24    0.34
  12 -10  15    4.89    0.37
  13 -10  15    6.08    0.42
  13 -10  15    5.94    0.40
  13 -10  15    6.22    0.37
  -8  -9  15    1.11    0.13
  -7  -9  15    7.86    0.34
  -6  -9  15    2.29    0.16
  -5  -9  15    3.77    0.19
  -5  -9  15    3.76    0.24
  -4  -9  15    0.03    0.05
  -4  -9  15    0.13    0.08
  -3  -9  15    1.19    0.16
  -2  -9  15    3.94    0.26
  -2  -9  15    4.87    0.27
  -1  -9  15    6.91    0.35
  -1  -9  15    7.36    0.35
   0  -9  15    0.84    0.13
   0  -9  15    0.87    0.14
   1  -9  15    0.52    0.09
   1  -9  15    0.66    0.13
   1  -9  15    0.87    0.14
   1  -9  15    0.53    0.11
   2  -9  15   10.27    0.43
   2  -9  15    9.86    0.40
   2  -9  15    9.52    0.40
   2  -9  15    8.81    0.41
   3  -9  15    2.31    0.21
   3  -9  15    2.00    0.19
   3  -9  15    2.10    0.17
   3  -9  15    2.34    0.17
  -4   9 -15    3.51    0.18
   4  -9  15    3.47    0.24
   4  -9  15    3.34    0.21
   4  -9  15    3.60    0.23
   4  -9  15    3.24    0.24
   5  -9  15    2.48    0.20
   5  -9  15    2.43    0.20
   5  -9  15    2.30    0.20
   5  -9  15    2.69    0.19
   6  -9  15    1.57    0.16
   6  -9  15    1.32    0.17
   6  -9  15    1.79    0.19
   7  -9  15    6.91    0.33
   7  -9  15    6.84    0.35
   7  -9  15    6.71    0.36
   8  -9  15    0.52    0.12
   8  -9  15    0.59    0.14
   8  -9  15    0.43    0.12
   9  -9  15   24.17    0.87
   9  -9  15   24.45    0.89
   9  -9  15   24.20    0.86
  10  -9  15    0.32    0.13
  10  -9  15    0.29    0.14
  10  -9  15    0.19    0.12
  11  -9  15    1.59    0.21
  11  -9  15    1.74    0.21
  11  -9  15    1.46    0.21
  12  -9  15    0.25    0.12
  12  -9  15    0.26    0.14
  12  -9  15    0.23    0.15
  13  -9  15    2.12    0.26
  13  -9  15    2.05    0.24
  13  -9  15    2.12    0.28
  -9  -8  15   -0.05    0.08
  -8  -8  15    0.25    0.09
  -7  -8  15    3.16    0.20
  -6  -8  15    0.20    0.07
  -5  -8  15   10.30    0.40
  -5  -8  15   10.23    0.42
  -4  -8  15    4.36    0.22
  -4  -8  15    4.92    0.26
  -3  -8  15    6.66    0.32
  -3  -8  15    7.00    0.33
  -3  -8  15    6.62    0.28
  -2  -8  15   13.76    0.53
  -2  -8  15   13.39    0.52
  -1  -8  15    0.01    0.08
  -1  -8  15    0.05    0.09
   0  -8  15    0.01    0.08
   0  -8  15    0.09    0.09
   0  -8  15   -0.06    0.07
  -1   8 -15    5.61    0.24
   1  -8  15    5.82    0.27
   1  -8  15    5.73    0.28
   1  -8  15    5.68    0.29
   1  -8  15    6.01    0.30
  -2   8 -15    0.21    0.06
   2  -8  15    0.05    0.07
   2  -8  15    0.22    0.10
   2  -8  15    0.13    0.07
   2  -8  15    0.04    0.08
  -3   8 -15    2.24    0.13
   3  -8  15    2.32    0.16
   3  -8  15    2.56    0.20
   3  -8  15    2.28    0.18
   3  -8  15    2.09    0.18
  -4   8 -15   15.19    0.54
   4  -8  15   14.81    0.53
   4  -8  15   14.70    0.59
   4  -8  15   15.67    0.58
   4  -8  15   15.00    0.57
   5  -8  15    9.48    0.42
   5  -8  15    9.85    0.39
   5  -8  15    9.55    0.42
   5  -8  15    9.78    0.44
   6  -8  15   35.44    1.17
   6  -8  15   35.96    1.13
   6  -8  15   34.84    1.17
   7  -8  15   22.01    0.80
   7  -8  15   22.95    0.80
   7  -8  15   21.41    0.76
   8  -8  15    1.50    0.19
   8  -8  15    1.63    0.19
   8  -8  15    2.10    0.20
   9  -8  15    1.69    0.19
   9  -8  15    1.49    0.19
   9  -8  15    1.85    0.20
  10  -8  15   38.78    1.27
  10  -8  15   36.73    1.28
  10  -8  15   38.44    1.26
  11  -8  15    6.80    0.36
  11  -8  15    6.26    0.38
  11  -8  15    7.15    0.39
  12  -8  15    7.00    0.42
  12  -8  15    6.86    0.40
  12  -8  15    6.23    0.36
  13  -8  15    1.90    0.25
  13  -8  15    1.37    0.23
  -9  -7  15    5.00    0.29
  -8  -7  15    3.35    0.23
  -7  -7  15    8.35    0.37
  -6  -7  15    4.17    0.23
  -6  -7  15    4.15    0.23
  -5  -7  15    1.76    0.16
  -5  -7  15    1.88    0.15
  -4  -7  15    7.48    0.33
  -4  -7  15    7.26    0.31
  -3  -7  15   22.01    0.79
  -3  -7  15   23.25    0.78
  -3  -7  15   23.93    0.79
   2   7 -15   79.30    2.39
  -2  -7  15   81.46    2.43
  -2  -7  15   83.89    2.46
   1   7 -15    2.76    0.16
  -1  -7  15    2.89    0.19
  -1  -7  15    2.85    0.20
   0   7 -15    9.29    0.33
   0  -7  15    9.25    0.35
   0  -7  15    9.65    0.38
   0  -7  15    9.14    0.39
  -1   7 -15    2.57    0.13
   1  -7  15    2.37    0.18
   1  -7  15    2.19    0.17
   1  -7  15    2.60    0.15
   1  -7  15    2.58    0.18
  -2   7 -15    1.33    0.10
  -2   7 -15    1.67    0.11
   2  -7  15    1.82    0.16
   2  -7  15    1.44    0.15
   2  -7  15    1.65    0.16
   2  -7  15    1.38    0.12
  -3   7 -15    0.36    0.07
  -3   7 -15    0.48    0.07
   3  -7  15    0.49    0.08
   3  -7  15    0.38    0.10
   3  -7  15    0.25    0.09
   3  -7  15    0.39    0.10
  -4   7 -15    7.80    0.32
   4  -7  15    7.97    0.31
   4  -7  15    7.34    0.35
   4  -7  15    7.39    0.37
   4  -7  15    7.44    0.35
  -5   7 -15   -0.04    0.06
   5  -7  15    0.09    0.07
   5  -7  15    0.07    0.08
   5  -7  15   -0.01    0.08
   5  -7  15   -0.09    0.08
  -6   7 -15    5.77    0.30
   6  -7  15    5.96    0.32
   6  -7  15    5.73    0.32
   6  -7  15    6.11    0.28
   7  -7  15   39.35    1.24
   7  -7  15   37.25    1.27
   7  -7  15   40.93    1.28
   8  -7  15    6.73    0.33
   8  -7  15    6.56    0.35
   8  -7  15    6.89    0.34
   9  -7  15    2.22    0.23
   9  -7  15    2.40    0.21
   9  -7  15    2.34    0.23
  10  -7  15    0.34    0.12
  10  -7  15    0.22    0.12
  10  -7  15    0.23    0.12
  11  -7  15    1.16    0.18
  11  -7  15    1.26    0.18
  11  -7  15    1.68    0.23
  12  -7  15    0.64    0.17
  12  -7  15    0.78    0.19
  12  -7  15    0.74    0.15
  13  -7  15   11.78    0.57
  13  -7  15   10.78    0.55
 -10  -6  15    0.26    0.11
  -9  -6  15   12.37    0.52
  -8  -6  15    4.60    0.27
  -7  -6  15    1.90    0.18
  -6  -6  15    0.79    0.12
  -6  -6  15    0.90    0.11
  -5  -6  15    0.12    0.07
  -5  -6  15    0.06    0.07
  -4  -6  15    2.37    0.17
  -4  -6  15    2.35    0.18
   3   6 -15   15.82    0.53
   3   6 -15   16.43    0.55
  -3  -6  15   15.94    0.59
  -3  -6  15   15.78    0.57
  -3  -6  15   16.37    0.56
   2   6 -15   34.20    1.03
  -2  -6  15   33.90    1.06
  -2  -6  15   33.42    1.09
  -2  -6  15   34.63    1.14
   1   6 -15   33.82    1.01
  -1  -6  15   33.62    1.06
  -1  -6  15   34.22    1.09
   0   6 -15    7.71    0.27
   0  -6  15    7.49    0.32
   0  -6  15    7.94    0.28
   0  -6  15    7.84    0.34
  -1   6 -15    0.05    0.04
  -1   6 -15    0.11    0.04
   1  -6  15    0.05    0.06
   1  -6  15    0.04    0.04
   1  -6  15    0.02    0.07
   1  -6  15    0.01    0.07
  -2   6 -15    0.37    0.07
   2  -6  15    0.45    0.10
   2  -6  15    0.33    0.06
   2  -6  15    0.42    0.10
  -3   6 -15    0.00    0.05
   3  -6  15    0.07    0.07
   3  -6  15    0.11    0.05
   3  -6  15    0.03    0.07
  -4   6 -15    2.49    0.17
   4  -6  15    2.74    0.21
   4  -6  15    2.56    0.18
   4  -6  15    2.72    0.15
  -5   6 -15    0.39    0.09
   5  -6  15    0.50    0.09
   5  -6  15    0.47    0.12
   5  -6  15    0.46    0.11
  -6   6 -15    6.66    0.33
   6  -6  15    6.75    0.30
   6  -6  15    6.67    0.41
   6  -6  15    6.87    0.34
  -7   6 -15    8.70    0.41
   7  -6  15    8.99    0.40
   7  -6  15    8.67    0.39
   7  -6  15    7.89    0.36
   8  -6  15    4.07    0.25
   8  -6  15    3.32    0.23
   8  -6  15    3.51    0.26
  10  -6  15   13.29    0.54
  10  -6  15   13.29    0.56
  10  -6  15   12.87    0.57
  11  -6  15    4.83    0.33
  11  -6  15    5.13    0.33
  11  -6  15    4.38    0.28
  12  -6  15    0.38    0.15
  12  -6  15    0.43    0.13
  12  -6  15    0.33    0.14
  13  -6  15    1.69    0.25
  13  -6  15    2.14    0.27
 -11  -5  15    1.94    0.21
 -10  -5  15    0.00    0.09
  -9  -5  15    2.43    0.22
  -8  -5  15    1.56    0.17
  -7  -5  15    2.54    0.16
  -7  -5  15    2.11    0.19
  -6  -5  15    0.21    0.09
  -6  -5  15    0.15    0.07
  -5  -5  15    4.49    0.25
  -5  -5  15    4.46    0.23
   4   5 -15    6.40    0.24
   4   5 -15    6.15    0.28
  -4  -5  15    6.79    0.31
  -4  -5  15    6.72    0.27
  -4  -5  15    6.32    0.29
   3   5 -15    6.70    0.26
   3   5 -15    6.70    0.25
  -3  -5  15    6.52    0.31
  -3  -5  15    6.95    0.27
  -3  -5  15    6.57    0.29
   2   5 -15    3.97    0.16
   2   5 -15    3.97    0.18
  -2  -5  15    3.99    0.22
  -2  -5  15    4.24    0.23
  -2  -5  15    4.45    0.20
   1   5 -15   -0.05    0.02
   1   5 -15   -0.07    0.04
  -1  -5  15   -0.06    0.04
   0   5 -15    9.09    0.35
   0  -5  15    9.21    0.35
  -1   5 -15   23.62    0.79
   1  -5  15   22.34    0.84
   1  -5  15   24.22    0.76
   1  -5  15   22.01    0.69
  -2   5 -15   39.73    1.30
   2  -5  15   39.94    1.23
   2  -5  15   39.16    1.16
   2  -5  15   38.80    1.35
  -3   5 -15    8.60    0.36
   3  -5  15    8.59    0.36
   3  -5  15    8.44    0.41
   3  -5  15    8.82    0.31
  -4   5 -15    0.00    0.06
   4  -5  15    0.24    0.09
   4  -5  15    0.17    0.06
   4  -5  15   -0.02    0.08
  -5   5 -15    0.07    0.07
   5  -5  15    0.08    0.06
   5  -5  15   -0.02    0.08
   5  -5  15    0.02    0.08
  -6   5 -15   43.80    1.58
   6  -5  15   48.48    1.45
   6  -5  15   50.09    1.51
  -7   5 -15    0.70    0.14
   7  -5  15    0.92    0.13
   7  -5  15    0.65    0.14
   8  -5  15   19.03    0.67
   8  -5  15   17.49    0.69
   9  -5  15    6.84    0.37
   9  -5  15    6.77    0.35
  10  -5  15    6.31    0.35
  10  -5  15    5.99    0.37
  10  -5  15    6.02    0.32
  11  -5  15    0.83    0.15
  11  -5  15    1.13    0.19
  11  -5  15    0.85    0.19
  12  -5  15    1.82    0.24
  12  -5  15    1.53    0.23
  13  -5  15   -0.12    0.13
  13  -5  15    0.11    0.14
 -11  -4  15    3.19    0.26
 -10  -4  15    0.66    0.14
  -9  -4  15   -0.07    0.08
  -8  -4  15    0.19    0.09
  -7  -4  15    0.17    0.06
  -7  -4  15    0.37    0.10
  -6  -4  15    1.21    0.14
  -6  -4  15    1.40    0.12
   5   4 -15   69.10    2.14
  -5  -4  15   74.75    2.17
  -5  -4  15   72.88    2.32
   4   4 -15   12.77    0.45
   4   4 -15   13.44    0.42
  -4  -4  15   13.10    0.43
  -4  -4  15   13.38    0.52
   3   4 -15   37.41    1.12
   3   4 -15   39.23    1.23
   3   4 -15   37.61    1.11
  -3  -4  15   37.67    1.14
  -3  -4  15   37.20    1.27
   2   4 -15   93.88    2.94
   2   4 -15   95.23    2.72
  -2  -4  15   92.08    2.98
  -2  -4  15   94.32    2.73
   1   4 -15    9.33    0.34
   1   4 -15    9.19    0.37
  -1  -4  15    9.26    0.34
   0   4 -15    0.98    0.11
   0  -4  15    0.89    0.10
  -1   4 -15   67.75    2.19
   1  -4  15   70.07    2.25
   1  -4  15   68.57    2.04
  -2   4 -15    3.29    0.20
   2  -4  15    3.59    0.19
   2  -4  15    3.53    0.14
   2  -4  15    3.50    0.24
  -3   4 -15    0.12    0.07
   3  -4  15    0.07    0.04
   3  -4  15    0.04    0.08
   3  -4  15    0.15    0.08
  -4   4 -15   19.38    0.72
   4  -4  15   18.71    0.68
   4  -4  15   19.52    0.63
   4  -4  15   20.33    0.77
  -5   4 -15    1.26    0.16
   5  -4  15    1.35    0.13
   5  -4  15    1.59    0.16
  -6   4 -15   23.00    0.86
   6  -4  15   23.23    0.78
   6  -4  15   24.65    0.93
   6  -4  15   23.04    0.82
  -7   4 -15    4.19    0.28
   7  -4  15    3.80    0.27
   7  -4  15    4.37    0.25
  -8   4 -15    3.35    0.26
   8  -4  15    3.65    0.26
   8  -4  15    3.63    0.24
   9  -4  15    4.10    0.27
   9  -4  15    4.55    0.31
  10  -4  15   14.17    0.59
  10  -4  15   13.73    0.61
  11  -4  15    6.13    0.33
  11  -4  15    6.16    0.38
  11  -4  15    5.91    0.37
  12  -4  15   18.83    0.76
  12  -4  15   17.36    0.74
 -12  -3  15    0.81    0.17
 -11  -3  15    7.59    0.42
 -10  -3  15    3.42    0.27
  -9  -3  15   11.66    0.52
  -8  -3  15    0.05    0.09
  -7  -3  15    5.69    0.25
  -7  -3  15    5.84    0.32
  -6  -3  15    0.68    0.11
   5   3 -15    8.80    0.37
   5   3 -15    8.56    0.33
  -5  -3  15    9.06    0.40
   4   3 -15    6.06    0.22
   4   3 -15    5.92    0.23
   4   3 -15    6.07    0.29
  -4  -3  15    6.32    0.22
  -4  -3  15    6.05    0.31
   3   3 -15    9.33    0.38
   3   3 -15    8.89    0.28
  -3  -3  15    9.06    0.31
  -3  -3  15    9.19    0.40
   2   3 -15    8.94    0.37
  -2  -3  15    8.78    0.31
  -2  -3  15    8.55    0.39
   1   3 -15   85.41    2.71
  -1  -3  15   85.51    2.49
   0   3 -15   48.02    1.61
   0  -3  15   50.12    1.47
  -1   3 -15   15.47    0.59
   1  -3  15   15.55    0.53
  -2   3 -15    2.50    0.19
   2  -3  15    2.78    0.17
   2  -3  15    2.39    0.11
   2  -3  15    2.51    0.21
  -3   3 -15    0.31    0.09
   3  -3  15    0.43    0.11
   3  -3  15    0.36    0.06
   3  -3  15    0.41    0.09
  -4   3 -15    3.19    0.23
   4  -3  15    3.45    0.21
   4  -3  15    3.72    0.18
  -5   3 -15   16.64    0.67
   5  -3  15   17.43    0.63
   5  -3  15   16.67    0.58
   5  -3  15   17.62    0.72
  -6   3 -15    2.56    0.23
   6  -3  15    2.64    0.23
  -7   3 -15   30.28    1.10
   7  -3  15   29.94    1.03
  -8   3 -15    0.86    0.16
   8  -3  15    0.85    0.15
  -9   3 -15    3.94    0.29
   9  -3  15    3.05    0.29
  10  -3  15    0.78    0.17
  11  -3  15   -0.06    0.11
  11  -3  15   -0.02    0.11
  12  -3  15    0.04    0.13
  12  -3  15    0.47    0.17
  12   2 -15   -0.15    0.10
 -12  -2  15   -0.12    0.10
  11   2 -15    6.50    0.35
 -11  -2  15    5.94    0.37
  10   2 -15    2.15    0.20
 -10  -2  15    2.35    0.24
   9   2 -15    0.13    0.09
  -9  -2  15    0.07    0.09
   8   2 -15    2.78    0.18
  -8  -2  15    2.56    0.15
  -8  -2  15    2.67    0.23
   7   2 -15    7.46    0.31
  -7  -2  15    7.59    0.37
   6   2 -15    1.11    0.10
  -6  -2  15    1.08    0.15
   5   2 -15    7.70    0.28
   5   2 -15    8.23    0.30
  -5  -2  15    8.22    0.38
   4   2 -15   64.81    2.13
   4   2 -15   65.47    1.89
   4   2 -15   66.18    1.90
  -4  -2  15   64.92    2.15
  -4  -2  15   68.17    1.90
   3   2 -15    1.16    0.14
  -3  -2  15    1.11    0.14
  -3  -2  15    1.04    0.08
   2   2 -15    1.23    0.14
  -2  -2  15    1.24    0.15
  -2  -2  15    1.17    0.09
   1   2 -15   18.70    0.69
  -1  -2  15   18.58    0.60
   0   2 -15    1.73    0.16
   0  -2  15    1.94    0.13
  -1   2 -15    6.05    0.31
   1  -2  15    6.13    0.21
   1  -2  15    6.19    0.27
   1  -2  15    6.27    0.20
  -2   2 -15    0.06    0.07
   2  -2  15    0.10    0.04
   2  -2  15    0.07    0.07
   2  -2  15    0.01    0.03
  -3   2 -15   11.59    0.50
   3  -2  15   11.69    0.45
  -4   2 -15    2.36    0.21
   4  -2  15    2.64    0.20
   4  -2  15    2.86    0.27
  -5   2 -15    8.65    0.42
   5  -2  15    8.73    0.40
  -6   2 -15    1.28    0.18
   6  -2  15    1.15    0.16
  -7   2 -15    0.40    0.13
   7  -2  15    0.37    0.13
  -8   2 -15    3.49    0.28
   8  -2  15    3.39    0.26
  -9   2 -15    0.13    0.11
   9  -2  15   -0.06    0.10
  10  -2  15    3.41    0.31
  11  -2  15    0.82    0.18
  12  -2  15    0.20    0.15
 -13  -1  15    0.02    0.12
  12   1 -15   -0.15    0.10
 -12  -1  15   -0.08    0.11
  11   1 -15    0.27    0.11
 -11  -1  15    0.02    0.11
  10   1 -15    0.00    0.08
 -10  -1  15   -0.03    0.10
   9   1 -15    1.43    0.15
  -9  -1  15    1.38    0.18
   8   1 -15    5.39    0.26
  -8  -1  15    5.07    0.31
   7   1 -15    2.86    0.17
  -7  -1  15    3.00    0.23
   6   1 -15    4.18    0.19
  -6  -1  15    3.92    0.26
   5   1 -15    8.22    0.29
  -5  -1  15    8.77    0.40
   4   1 -15    0.36    0.04
  -4  -1  15    0.33    0.04
  -4  -1  15    0.28    0.10
   3   1 -15    0.32    0.10
  -3  -1  15    0.28    0.05
  -3  -1  15    0.25    0.09
   2   1 -15    0.06    0.07
  -2  -1  15    0.14    0.08
  -2  -1  15    0.02    0.04
   1   1 -15   10.48    0.46
  -1  -1  15   10.99    0.38
   0   1 -15    7.67    0.37
   0  -1  15    7.40    0.30
  -1   1 -15    3.67    0.24
   1  -1  15    3.73    0.16
   1  -1  15    3.42    0.19
  -2   1 -15   76.25    2.45
   2  -1  15   74.19    2.25
  -3   1 -15   26.14    0.96
   3  -1  15   25.61    0.87
   3  -1  15   26.39    0.84
  -4   1 -15   12.66    0.54
   4  -1  15   11.82    0.48
  -5   1 -15    4.31    0.29
   5  -1  15    4.00    0.26
  -6   1 -15    0.02    0.10
   6  -1  15   -0.07    0.08
  -7   1 -15    1.69    0.21
   7  -1  15    1.76    0.21
  -8   1 -15   16.42    0.70
   8  -1  15   16.32    0.67
  -9   1 -15    0.63    0.16
   9  -1  15    0.62    0.16
  10  -1  15   -0.03    0.12
  11  -1  15    0.55    0.18
  13   0 -15    0.88    0.19
 -13   0  15    0.59    0.17
  12   0 -15    2.39    0.23
 -12   0  15    1.97    0.24
  11   0 -15    2.06    0.21
 -11   0  15    1.85    0.23
  10   0 -15    2.12    0.20
 -10   0  15    1.69    0.21
   9   0 -15    6.11    0.29
  -9   0  15    5.75    0.36
   8   0 -15    0.13    0.07
  -8   0  15    0.10    0.10
   7   0 -15    4.13    0.20
  -7   0  15    4.13    0.28
   6   0 -15    0.33    0.07
  -6   0  15    0.47    0.12
   5   0 -15   21.01    0.64
  -5   0  15   20.51    0.79
   4   0 -15    6.42    0.22
  -4   0  15    6.28    0.21
  -4   0  15    5.68    0.33
  -3   0  15    0.44    0.11
  -3   0  15    0.39    0.06
   2   0 -15   50.23    1.66
  -2   0  15   47.82    1.65
  -2   0  15   48.66    1.45
   1   0 -15    2.37    0.20
  -1   0  15    2.52    0.15
  -1   0  15    2.49    0.10
   0   0 -15    3.65    0.26
   0   0  15    3.83    0.16
   0   0  15    4.29    0.21
  -1   0 -15    2.27    0.22
   1   0  15    2.05    0.13
   1   0  15    2.18    0.16
  -2   0 -15   14.97    0.63
   2   0  15   15.42    0.53
   2   0  15   15.53    0.57
  -3   0 -15   15.96    0.66
   3   0  15   16.29    0.60
  -4   0 -15   10.15    0.48
   4   0  15    9.80    0.44
  -5   0 -15   10.99    0.51
   5   0  15   10.01    0.46
  -6   0 -15    9.23    0.47
   6   0  15    8.95    0.43
  -7   0 -15    6.66    0.41
   7   0  15    7.38    0.39
  -8   0 -15    0.24    0.13
   8   0  15    0.60    0.17
  -9   0 -15    2.63    0.28
   9   0  15    2.86    0.29
 -10   0 -15    0.48    0.16
  10   0  15    0.68    0.17
  11   0  15    1.39    0.23
  13  -1 -15    0.44    0.14
 -13   1  15    0.17    0.15
  12  -1 -15    0.53    0.14
 -12   1  15    0.66    0.17
  11  -1 -15    1.89    0.20
 -11   1  15    1.68    0.23
  10  -1 -15    3.23    0.22
 -10   1  15    3.14    0.28
   9  -1 -15    4.03    0.24
  -9   1  15    4.58    0.31
   8  -1 -15    0.56    0.10
  -8   1  15    0.27    0.12
   7  -1 -15    2.40    0.15
  -7   1  15    2.02    0.21
   6  -1 -15   50.05    1.48
  -6   1  15   49.52    1.70
   5  -1 -15    0.15    0.05
  -5   1  15    0.13    0.03
  -5   1  15    0.11    0.10
  -5   1  15    0.13    0.04
   4  -1 -15   33.88    1.00
  -4   1  15   33.38    1.19
  -4   1  15   32.87    0.99
   3  -1 -15    8.55    0.29
  -3   1  15    8.12    0.42
  -3   1  15    8.46    0.28
  -3   1  15    8.73    0.31
   2  -1 -15   12.28    0.53
  -2   1  15   12.15    0.42
  -2   1  15   11.59    0.37
  -2   1  15   10.83    0.51
   1  -1 -15   23.38    0.89
  -1   1  15   23.40    0.71
  -1   1  15   23.43    0.76
   0  -1 -15    0.06    0.09
   0   1  15    0.04    0.04
   0   1  15    0.04    0.07
  -1  -1 -15   42.22    1.45
   1   1  15   41.93    1.26
   1   1  15   40.18    1.30
  -2  -1 -15    0.35    0.12
   2   1  15    0.47    0.12
  -3  -1 -15    0.26    0.12
   3   1  15    0.05    0.08
  -4  -1 -15    0.31    0.12
   4   1  15    0.44    0.12
  -5  -1 -15    1.81    0.23
   5   1  15    1.65    0.20
  -6  -1 -15    2.80    0.27
   6   1  15    3.64    0.28
  -7  -1 -15    9.15    0.48
   7   1  15    8.50    0.45
  -8  -1 -15    3.62    0.31
   8   1  15    3.46    0.29
  -9  -1 -15   -0.01    0.13
   9   1  15    0.05    0.12
 -10  -1 -15    5.75    0.42
  10   1  15    6.58    0.42
 -14   2  15    1.49    0.25
  13  -2 -15    0.23    0.13
 -13   2  15    0.47    0.17
  12  -2 -15    0.99    0.17
 -12   2  15    1.03    0.19
  11  -2 -15    0.43    0.13
 -11   2  15    0.34    0.15
  10  -2 -15    1.58    0.17
 -10   2  15    1.12    0.19
   9  -2 -15    0.27    0.09
  -9   2  15    0.29    0.13
   8  -2 -15    3.32    0.20
  -8   2  15    3.27    0.27
   7  -2 -15    0.02    0.06
  -7   2  15    0.10    0.10
   6  -2 -15    1.18    0.11
  -6   2  15    1.00    0.06
  -6   2  15    1.11    0.17
  -6   2  15    1.07    0.05
   5  -2 -15    3.21    0.16
  -5   2  15    2.93    0.13
  -5   2  15    3.11    0.25
  -5   2  15    2.83    0.14
   4  -2 -15    2.04    0.13
  -4   2  15    2.14    0.12
  -4   2  15    1.78    0.20
   3  -2 -15    6.31    0.25
  -3   2  15    5.95    0.23
  -3   2  15    6.66    0.36
   2  -2 -15    2.44    0.14
   2  -2 -15    2.78    0.23
  -2   2  15    2.49    0.13
  -2   2  15    2.77    0.23
   1  -2 -15    0.02    0.09
  -1   2  15   -0.04    0.03
   0  -2 -15    2.63    0.25
   0   2  15    2.84    0.16
  -1  -2 -15    0.17    0.12
  -2  -2 -15   21.58    0.86
  -3  -2 -15    0.66    0.16
  -4  -2 -15    4.11    0.31
   4   2  15    3.79    0.27
  -5  -2 -15    4.87    0.35
   5   2  15    5.10    0.33
  -6  -2 -15    7.61    0.44
   6   2  15    7.39    0.41
  -7  -2 -15    2.58    0.28
   7   2  15    3.24    0.30
  -8  -2 -15    0.08    0.12
   8   2  15    0.10    0.13
  -9  -2 -15   -0.22    0.11
   9   2  15    0.05    0.14
 -14   3  15    2.00    0.28
  13  -3 -15    3.12    0.26
 -13   3  15    2.77    0.31
  12  -3 -15    8.18    0.39
 -12   3  15    7.82    0.48
  11  -3 -15   19.41    0.71
 -11   3  15   19.45    0.83
  10  -3 -15    6.56    0.32
 -10   3  15    5.89    0.39
   9  -3 -15    1.18    0.14
  -9   3  15    1.53    0.21
   8  -3 -15    2.42    0.17
  -8   3  15    2.54    0.27
   7  -3 -15    0.20    0.08
  -7   3  15    0.25    0.11
   6  -3 -15    7.91    0.33
  -6   3  15    8.14    0.43
  -6   3  15    8.61    0.29
   5  -3 -15    0.88    0.11
  -5   3  15    1.02    0.10
  -5   3  15    0.75    0.15
  -5   3  15    0.76    0.09
   4  -3 -15    0.52    0.09
  -4   3  15    0.74    0.10
  -4   3  15    0.21    0.12
  -4   3  15    0.70    0.08
   3  -3 -15    5.66    0.24
  -3   3  15    4.12    0.20
  -3   3  15    5.21    0.32
   2  -3 -15    5.93    0.27
  -2   3  15    6.50    0.26
  -2   3  15    6.29    0.37
   1  -3 -15   42.32    1.50
   0  -3 -15   13.62    0.62
  -1  -3 -15    2.66    0.27
  -2  -3 -15    3.39    0.29
  -3  -3 -15    1.18    0.20
  -4  -3 -15    4.37    0.32
  -5  -3 -15    0.15    0.12
  -6  -3 -15    0.01    0.12
   6   3  15   -0.02    0.11
  -7  -3 -15    0.31    0.16
   7   3  15    0.39    0.17
  -8  -3 -15    1.82    0.26
   8   3  15    2.26    0.29
  -9  -3 -15    8.05    0.50
  14  -4 -15    5.26    0.36
 -14   4  15    6.14    0.45
  13  -4 -15    1.29    0.20
 -13   4  15    1.35    0.24
  12  -4 -15    0.14    0.11
 -12   4  15    0.22    0.13
  11  -4 -15    2.71    0.23
 -11   4  15    2.97    0.31
  10  -4 -15    0.18    0.10
 -10   4  15    0.17    0.13
   9  -4 -15    3.89    0.23
  -9   4  15    3.59    0.30
   8  -4 -15    1.89    0.18
  -8   4  15    1.86    0.23
   7  -4 -15    5.95    0.28
  -7   4  15    6.28    0.38
   6  -4 -15    0.53    0.10
  -6   4  15    0.69    0.16
   5  -4 -15   29.70    0.95
  -5   4  15   29.74    1.11
   4  -4 -15    7.42    0.32
  -4   4  15    7.67    0.42
   3  -4 -15    3.05    0.19
  -3   4  15    2.50    0.26
   2  -4 -15    0.21    0.09
   1  -4 -15   46.13    1.64
   0  -4 -15    0.52    0.15
  -1  -4 -15    0.28    0.14
  -2  -4 -15    0.87    0.18
  -3  -4 -15    0.12    0.13
  -4  -4 -15   10.76    0.56
  -5  -4 -15    1.45    0.22
  -6  -4 -15    0.34    0.15
  -7  -4 -15    0.56    0.18
   7   4  15    0.74    0.19
  -8  -4 -15    0.19    0.15
   8   4  15    0.23    0.17
  14  -5 -15    0.03    0.13
 -14   5  15    0.38    0.18
  13  -5 -15    7.07    0.39
 -13   5  15    7.36    0.48
  12  -5 -15    0.86    0.16
 -12   5  15    0.82    0.19
  11  -5 -15    9.80    0.45
 -11   5  15    9.80    0.54
  10  -5 -15    2.83    0.23
 -10   5  15    3.36    0.32
   9  -5 -15    2.55    0.20
  -9   5  15    2.27    0.25
   8  -5 -15    5.00    0.27
  -8   5  15    4.48    0.34
   7  -5 -15    0.16    0.10
  -7   5  15    0.11    0.12
   6  -5 -15    5.54    0.28
  -6   5  15    5.35    0.37
   5  -5 -15    6.78    0.33
  -5   5  15    6.83    0.41
   4  -5 -15    5.07    0.28
  -4   5  15    5.30    0.36
   3  -5 -15    0.02    0.08
  -3   5  15    0.09    0.12
   2  -5 -15    0.81    0.14
   1  -5 -15   -0.06    0.09
   1  -5 -15    0.20    0.13
   0  -5 -15   33.33    1.26
  -1  -5 -15    1.72    0.24
  -2  -5 -15   14.40    0.68
  -3  -5 -15    0.37    0.15
  -4  -5 -15    0.07    0.13
  -5  -5 -15    0.03    0.13
  -6  -5 -15    2.45    0.30
  -7  -5 -15    1.89    0.28
   7   5  15    2.43    0.29
  14  -6 -15    1.93    0.24
 -14   6  15    1.82    0.29
  13  -6 -15    3.99    0.30
 -13   6  15    3.99    0.37
  12  -6 -15    1.28    0.19
 -12   6  15    1.58    0.25
  11  -6 -15    3.50    0.27
 -11   6  15    4.10    0.35
  10  -6 -15    0.19    0.11
 -10   6  15    0.41    0.14
   9  -6 -15    0.91    0.15
  -9   6  15    0.81    0.19
   8  -6 -15    0.02    0.09
  -8   6  15    0.00    0.11
   7  -6 -15   11.29    0.47
  -7   6  15   10.87    0.56
   6  -6 -15    3.69    0.24
  -6   6  15    4.10    0.32
   5  -6 -15    8.14    0.39
  -5   6  15    9.45    0.49
   4  -6 -15    7.63    0.38
  -4   6  15    8.18    0.45
   3  -6 -15    2.89    0.23
   2  -6 -15   28.84    0.99
   1  -6 -15    0.36    0.15
   1  -6 -15    0.24    0.12
   0  -6 -15    0.96    0.20
  -1  -6 -15    1.85    0.26
  -2  -6 -15    5.95    0.41
  -3  -6 -15    9.52    0.54
  -4  -6 -15    4.61    0.38
  -5  -6 -15   10.56    0.58
  -6  -6 -15    0.02    0.14
  14  -7 -15    0.38    0.16
  13  -7 -15    0.79    0.17
  12  -7 -15    0.18    0.12
 -12   7  15   -0.20    0.13
  11  -7 -15    2.10    0.23
 -11   7  15    2.08    0.28
  10  -7 -15    1.60    0.20
 -10   7  15    1.50    0.24
   9  -7 -15    0.55    0.13
  -9   7  15    0.26    0.15
   8  -7 -15    0.00    0.09
  -8   7  15   -0.03    0.10
   7  -7 -15    0.08    0.10
  -7   7  15    0.09    0.13
   6  -7 -15   15.92    0.61
  -6   7  15   15.03    0.70
   5  -7 -15    2.46    0.23
  -5   7  15    2.14    0.25
   4  -7 -15    4.22    0.28
   3  -7 -15   19.24    0.73
   2  -7 -15    0.48    0.14
   1  -7 -15    1.62    0.20
   1  -7 -15    1.18    0.21
   0  -7 -15    2.20    0.28
  -1  -7 -15    1.58    0.26
  -2  -7 -15    0.58    0.18
  -3  -7 -15    1.69    0.26
  -4  -7 -15    0.72    0.20
  -5  -7 -15    7.87    0.51
  13  -8 -15    0.54    0.17
  12  -8 -15    1.83    0.23
  11  -8 -15    0.23    0.13
  10  -8 -15    1.18    0.19
   9  -8 -15    3.32    0.27
   8  -8 -15    1.19    0.18
   7  -8 -15    0.03    0.11
   6  -8 -15    1.27    0.19
   5  -8 -15    0.59    0.15
   4  -8 -15    0.38    0.13
   3  -8 -15   -0.14    0.09
   2  -8 -15    5.50    0.36
   2  -8 -15    6.11    0.44
   1  -8 -15    1.62    0.26
   0  -8 -15    1.17    0.23
  -1  -8 -15    3.31    0.35
  -2  -8 -15    3.68    0.37
  -3  -8 -15    2.31    0.31
  -4  -8 -15    6.84    0.48
  13  -9 -15    3.70    0.32
  12  -9 -15    1.63    0.23
  11  -9 -15    0.08    0.14
  10  -9 -15    1.16    0.20
   9  -9 -15    0.97    0.18
   8  -9 -15   -0.15    0.11
   7  -9 -15    1.64    0.23
   6  -9 -15   43.50    1.46
   5  -9 -15    0.32    0.16
   4  -9 -15    7.35    0.42
   3  -9 -15    0.27    0.14
   2  -9 -15   11.28    0.57
   2  -9 -15   12.70    0.66
   1  -9 -15   10.76    0.62
   0  -9 -15    2.18    0.31
  -1  -9 -15    0.83    0.23
  -2  -9 -15    5.85    0.46
  12 -10 -15   -0.06    0.13
  11 -10 -15    8.00    0.46
  10 -10 -15    5.84    0.39
   9 -10 -15    2.74    0.29
   8 -10 -15    0.82    0.19
   7 -10 -15   -0.09    0.12
   6 -10 -15    4.49    0.35
   5 -10 -15    0.64    0.18
   4 -10 -15    4.46    0.35
   3 -10 -15   21.41    0.87
   2 -10 -15   -0.12    0.12
   2 -10 -15    0.40    0.19
   1 -10 -15    7.81    0.53
   0 -10 -15    0.36    0.19
  -1 -10 -15    8.29    0.55
  11 -11 -15   -0.03    0.14
  10 -11 -15    0.10    0.14
   9 -11 -15    0.12    0.15
   8 -11 -15    7.21    0.44
   7 -11 -15    0.17    0.15
   6 -11 -15   15.30    0.70
   5 -11 -15    1.16    0.22
   4 -11 -15    0.25    0.16
   3 -11 -15    0.10    0.18
   3 -11 -15    0.01    0.14
   2 -11 -15   15.31    0.80
   2 -11 -15   15.16    0.72
   1 -11 -15    0.12    0.16
  10 -12 -15    0.62    0.20
   9 -12 -15    0.57    0.20
   8 -12 -15    0.09    0.15
   7 -12 -15    0.14    0.17
   6 -12 -15    0.27    0.17
   5 -12 -15    0.88    0.22
   4 -12 -15    0.30    0.18
   2 -16  16    1.56    0.24
   3 -16  16    2.05    0.30
   3 -16  16    2.15    0.29
   4 -16  16   -0.01    0.15
   4 -16  16    0.04    0.16
   5 -16  16    9.86    0.56
   5 -16  16    9.52    0.55
   5 -16  16    9.55    0.53
   6 -16  16    0.77    0.20
   6 -16  16    0.98    0.22
   6 -16  16    0.84    0.21
   7 -16  16    6.36    0.43
   7 -16  16    6.59    0.47
   7 -16  16    5.92    0.42
   8 -16  16    0.17    0.17
   8 -16  16    0.22    0.16
   8 -16  16   -0.07    0.12
   9 -16  16    0.26    0.18
   9 -16  16    0.08    0.15
   9 -16  16   -0.09    0.13
   1 -15  16    0.19    0.15
   1 -15  16   -0.14    0.12
   2 -15  16    4.17    0.37
   2 -15  16    3.70    0.37
   3 -15  16    0.08    0.13
   3 -15  16   -0.12    0.14
   3 -15  16   -0.05    0.14
   4 -15  16    0.95    0.20
   4 -15  16    1.05    0.21
   4 -15  16    0.99    0.23
   5 -15  16    0.69    0.19
   5 -15  16    0.39    0.16
   5 -15  16    0.27    0.18
   6 -15  16    4.00    0.34
   6 -15  16    4.58    0.35
   6 -15  16    4.58    0.36
   7 -15  16   -0.30    0.12
   7 -15  16   -0.03    0.15
   7 -15  16    0.05    0.15
   8 -15  16   -0.22    0.10
   8 -15  16   -0.08    0.15
   8 -15  16    0.10    0.13
   9 -15  16   -0.01    0.14
   9 -15  16    0.17    0.17
   9 -15  16    0.02    0.14
  10 -15  16    0.85    0.22
  10 -15  16    0.71    0.19
  10 -15  16    0.72    0.20
  11 -15  16   10.22    0.56
  11 -15  16    9.15    0.53
   0 -14  16    8.03    0.46
   0 -14  16    9.81    0.52
   1 -14  16    0.20    0.14
   1 -14  16    0.10    0.14
   1 -14  16    0.09    0.15
   2 -14  16   12.66    0.62
   2 -14  16   13.09    0.60
   2 -14  16   13.36    0.61
   3 -14  16    1.38    0.22
   3 -14  16    1.50    0.23
   3 -14  16    2.51    0.29
   4 -14  16    0.38    0.18
   4 -14  16    0.82    0.20
   4 -14  16    0.81    0.18
   5 -14  16    2.83    0.28
   5 -14  16    2.63    0.30
   5 -14  16    2.15    0.26
   6 -14  16    0.29    0.14
   6 -14  16    0.25    0.14
   6 -14  16    0.07    0.13
   7 -14  16    5.51    0.36
   7 -14  16    5.02    0.36
   7 -14  16    5.42    0.40
   8 -14  16    0.57    0.17
   8 -14  16    0.98    0.21
   8 -14  16    0.65    0.19
   9 -14  16    0.03    0.14
   9 -14  16    0.70    0.18
   9 -14  16    0.48    0.18
  10 -14  16    7.80    0.45
  10 -14  16    8.16    0.47
  10 -14  16    7.42    0.45
  11 -14  16    0.19    0.16
  11 -14  16    0.51    0.17
  11 -14  16    0.34    0.16
  12 -14  16    2.37    0.29
  12 -14  16    2.35    0.29
  -1 -13  16    1.86    0.25
   0 -13  16    0.30    0.15
   0 -13  16    0.42    0.16
   0 -13  16    0.33    0.14
   1 -13  16    0.08    0.11
   1 -13  16    0.03    0.13
   1 -13  16    0.03    0.13
   2 -13  16    7.68    0.41
   2 -13  16    7.18    0.43
   2 -13  16    7.58    0.42
   3 -13  16   19.91    0.79
   3 -13  16   18.67    0.77
   3 -13  16   19.34    0.76
   4 -13  16    0.67    0.17
   4 -13  16    0.83    0.17
   4 -13  16    0.71    0.16
   5 -13  16   16.99    0.73
   5 -13  16   18.39    0.71
   5 -13  16   18.21    0.74
   6 -13  16    0.47    0.15
   6 -13  16    0.59    0.18
   6 -13  16    0.61    0.16
   7 -13  16    1.35    0.20
   7 -13  16    1.41    0.21
   7 -13  16    1.51    0.22
   8 -13  16    1.60    0.22
   8 -13  16    1.73    0.24
   8 -13  16    1.84    0.24
   9 -13  16    0.27    0.14
   9 -13  16    0.32    0.14
   9 -13  16    0.38    0.15
  10 -13  16    1.09    0.20
  10 -13  16    1.26    0.21
  10 -13  16    1.07    0.21
  11 -13  16   -0.07    0.13
  11 -13  16    0.05    0.16
  11 -13  16   -0.02    0.13
  12 -13  16    0.18    0.17
  12 -13  16    0.12    0.15
  12 -13  16   -0.08    0.13
  -2 -12  16    0.78    0.17
  -1 -12  16    6.78    0.39
  -1 -12  16    6.55    0.39
   0 -12  16   17.26    0.69
   0 -12  16   17.88    0.69
   0 -12  16   16.31    0.70
   1 -12  16    6.97    0.30
   1 -12  16    7.37    0.39
   1 -12  16    6.65    0.40
   1 -12  16    7.67    0.41
   2 -12  16    0.09    0.12
   2 -12  16    0.15    0.11
   2 -12  16    0.15    0.07
   2 -12  16    0.19    0.13
   3 -12  16   -0.02    0.12
   3 -12  16    0.27    0.14
   3 -12  16    0.00    0.10
   4 -12  16    3.69    0.30
   4 -12  16    3.57    0.27
   4 -12  16    3.40    0.28
   5 -12  16    1.91    0.23
   5 -12  16    2.28    0.24
   5 -12  16    2.15    0.22
   6 -12  16   20.28    0.77
   6 -12  16   18.11    0.75
   6 -12  16   19.19    0.73
   7 -12  16    5.18    0.34
   7 -12  16    5.00    0.32
   7 -12  16    5.10    0.35
   8 -12  16    3.39    0.27
   8 -12  16    3.41    0.31
   8 -12  16    3.35    0.29
   9 -12  16    0.12    0.15
   9 -12  16    0.10    0.12
   9 -12  16    0.17    0.13
  10 -12  16    0.27    0.15
  10 -12  16    0.34    0.14
  10 -12  16    0.31    0.16
  11 -12  16    0.69    0.20
  11 -12  16    0.75    0.18
  11 -12  16    0.65    0.17
  12 -12  16   -0.09    0.14
  12 -12  16    0.04    0.14
  12 -12  16   -0.06    0.12
  13 -12  16    2.49    0.28
  13 -12  16    2.26    0.29
  -3 -11  16    7.71    0.41
  -2 -11  16    4.56    0.30
  -2 -11  16    4.30    0.30
  -1 -11  16   -0.02    0.10
  -1 -11  16    0.17    0.12
   0 -11  16   18.28    0.72
   0 -11  16   18.51    0.72
   0 -11  16   18.32    0.69
   1 -11  16    0.00    0.08
   1 -11  16    0.14    0.11
   1 -11  16    0.09    0.11
   1 -11  16    0.13    0.06
   2 -11  16   27.60    0.98
   2 -11  16   26.59    0.94
   2 -11  16   29.04    0.98
   2 -11  16   26.87    0.94
   3 -11  16    0.61    0.11
   3 -11  16    0.44    0.14
   3 -11  16    0.51    0.13
   3 -11  16    0.57    0.14
   4 -11  16    2.50    0.21
   4 -11  16    2.77    0.26
   4 -11  16    2.93    0.27
   5 -11  16    0.22    0.11
   5 -11  16    0.10    0.11
   5 -11  16    0.22    0.10
   6 -11  16    1.07    0.15
   6 -11  16    0.93    0.17
   6 -11  16    0.93    0.18
   7 -11  16    4.51    0.28
   7 -11  16    5.33    0.34
   7 -11  16    4.17    0.30
   8 -11  16    2.27    0.25
   8 -11  16    2.99    0.28
   8 -11  16    2.74    0.25
   9 -11  16    1.77    0.21
   9 -11  16    1.63    0.22
   9 -11  16    1.51    0.21
  10 -11  16    2.14    0.24
  10 -11  16    2.02    0.23
  10 -11  16    2.55    0.28
  11 -11  16    1.09    0.21
  11 -11  16    1.05    0.20
  11 -11  16    0.77    0.17
  12 -11  16    0.60    0.17
  12 -11  16    0.45    0.17
  12 -11  16    0.55    0.16
  13 -11  16    2.82    0.28
  13 -11  16    2.75    0.32
  13 -11  16    3.52    0.32
  -7 -10  16    0.96    0.11
  -6 -10  16   19.93    0.67
  -4 -10  16    0.59    0.13
  -3 -10  16    0.15    0.11
  -2 -10  16   -0.01    0.09
  -2 -10  16    0.14    0.10
  -1 -10  16    0.31    0.12
  -1 -10  16    0.15    0.11
   0 -10  16   18.45    0.68
   0 -10  16   16.64    0.67
   0 -10  16   17.46    0.64
   1 -10  16    0.65    0.14
   1 -10  16    0.63    0.10
   1 -10  16    0.86    0.15
   1 -10  16    0.41    0.11
   2 -10  16    2.22    0.21
   2 -10  16    1.82    0.20
   2 -10  16    1.83    0.16
   2 -10  16    1.93    0.18
   3 -10  16    0.43    0.12
   3 -10  16    0.57    0.12
   3 -10  16    0.50    0.13
   3 -10  16    0.67    0.11
   4 -10  16   -0.06    0.08
   4 -10  16    0.16    0.09
   4 -10  16    0.02    0.09
   5 -10  16    2.06    0.21
   5 -10  16    2.04    0.22
   5 -10  16    2.31    0.19
   6 -10  16    0.31    0.10
   6 -10  16    0.34    0.12
   6 -10  16    0.36    0.13
   7 -10  16    1.62    0.21
   7 -10  16    1.47    0.19
   7 -10  16    1.82    0.19
   8 -10  16    0.19    0.11
   8 -10  16   -0.01    0.10
   8 -10  16    0.07    0.11
   9 -10  16   -0.04    0.11
   9 -10  16    0.10    0.11
   9 -10  16   -0.12    0.10
  10 -10  16    8.07    0.44
  10 -10  16    8.55    0.43
  10 -10  16    8.16    0.42
  11 -10  16   11.35    0.54
  11 -10  16   12.40    0.55
  11 -10  16   12.97    0.58
  12 -10  16   -0.03    0.15
  12 -10  16    0.02    0.12
  12 -10  16    0.00    0.12
  13 -10  16    0.31    0.17
  13 -10  16    0.27    0.14
  13 -10  16    0.28    0.16
  -8  -9  16    4.00    0.24
  -7  -9  16    6.53    0.30
  -6  -9  16    3.68    0.21
  -5  -9  16    2.13    0.15
  -5  -9  16    1.67    0.18
  -4  -9  16    7.68    0.38
  -4  -9  16    7.87    0.31
  -3  -9  16   61.69    1.90
  -3  -9  16   60.10    1.89
  -2  -9  16    5.51    0.30
  -2  -9  16    6.27    0.32
  -1  -9  16    1.51    0.18
  -1  -9  16    1.56    0.18
   0  -9  16    4.80    0.26
   0  -9  16    5.22    0.29
   0  -9  16    4.95    0.29
   1  -9  16    2.78    0.22
   1  -9  16    3.10    0.23
   1  -9  16    2.90    0.19
   1  -9  16    2.85    0.20
   2  -9  16   12.60    0.50
   2  -9  16   11.84    0.51
   2  -9  16   12.96    0.51
   2  -9  16   12.44    0.47
   3  -9  16    1.81    0.16
   3  -9  16    1.82    0.19
   3  -9  16    1.86    0.19
   3  -9  16    1.77    0.17
   4  -9  16    4.19    0.23
   4  -9  16    3.90    0.25
   4  -9  16    4.13    0.26
   4  -9  16    4.44    0.26
   5  -9  16    1.92    0.20
   5  -9  16    1.84    0.19
   5  -9  16    2.39    0.18
   6  -9  16    0.77    0.14
   6  -9  16    0.90    0.13
   6  -9  16    0.81    0.15
   7  -9  16    0.03    0.11
   7  -9  16    0.08    0.09
   7  -9  16    0.01    0.08
   8  -9  16    0.35    0.11
   8  -9  16    0.34    0.12
   8  -9  16    0.37    0.14
   9  -9  16    1.43    0.19
   9  -9  16    1.94    0.21
   9  -9  16    1.65    0.21
  10  -9  16    1.21    0.19
  10  -9  16    1.08    0.20
  10  -9  16    1.19    0.18
  11  -9  16   22.46    0.83
  11  -9  16   21.61    0.85
  11  -9  16   21.53    0.82
  12  -9  16    0.51    0.16
  12  -9  16    0.13    0.13
  12  -9  16    0.68    0.16
  13  -9  16   -0.03    0.13
  13  -9  16    0.18    0.13
  13  -9  16    0.19    0.16
  -9  -8  16    3.61    0.25
  -8  -8  16    0.52    0.11
  -7  -8  16   12.55    0.50
  -6  -8  16    0.12    0.07
  -5  -8  16    3.02    0.20
  -5  -8  16    2.39    0.17
  -4  -8  16    5.08    0.24
  -4  -8  16    5.11    0.27
  -3  -8  16    7.86    0.36
  -3  -8  16    7.42    0.32
  -3  -8  16    7.97    0.36
  -2  -8  16    0.51    0.11
  -2  -8  16    0.44    0.11
  -1  -8  16    2.26    0.20
  -1  -8  16    3.13    0.21
   0  -8  16  104.72    3.13
   0  -8  16  104.82    3.05
   0  -8  16  103.31    3.09
  -1   8 -16   -0.08    0.05
   1  -8  16    0.04    0.08
   1  -8  16    0.11    0.07
   1  -8  16   -0.09    0.06
   1  -8  16    0.07    0.09
  -2   8 -16    8.91    0.33
   2  -8  16    9.21    0.39
   2  -8  16    9.24    0.40
   2  -8  16    8.80    0.40
   2  -8  16    8.82    0.35
  -3   8 -16    2.62    0.15
  -3   8 -16    2.67    0.15
   3  -8  16    2.46    0.20
   3  -8  16    2.60    0.20
   3  -8  16    2.49    0.20
   3  -8  16    2.48    0.17
   4  -8  16   34.73    1.14
   4  -8  16   34.26    1.12
   4  -8  16   34.80    1.08
   4  -8  16   33.39    1.20
   5  -8  16    6.88    0.35
   5  -8  16    6.87    0.35
   5  -8  16    6.97    0.31
   6  -8  16    0.07    0.09
   6  -8  16    0.00    0.07
   6  -8  16    0.11    0.09
   7  -8  16    0.91    0.15
   7  -8  16    0.69    0.15
   7  -8  16    0.76    0.13
   8  -8  16    0.05    0.10
   8  -8  16    0.17    0.11
   8  -8  16    0.09    0.09
   9  -8  16    6.24    0.34
   9  -8  16    6.12    0.33
   9  -8  16    6.12    0.35
  10  -8  16    0.20    0.14
  10  -8  16    0.01    0.10
  10  -8  16   -0.06    0.10
  11  -8  16    0.56    0.15
  11  -8  16    0.70    0.15
  11  -8  16    0.98    0.20
  12  -8  16    8.77    0.47
  12  -8  16    8.58    0.43
  12  -8  16    8.80    0.46
  13  -8  16    8.70    0.48
  13  -8  16    8.69    0.50
  -9  -7  16    1.53    0.18
  -8  -7  16    0.96    0.14
  -7  -7  16    1.96    0.18
  -6  -7  16    0.94    0.12
  -6  -7  16    0.80    0.12
  -5  -7  16    0.28    0.08
  -5  -7  16    0.28    0.09
  -4  -7  16    2.91    0.20
  -4  -7  16    2.62    0.18
  -3  -7  16    3.60    0.21
  -3  -7  16    3.36    0.21
  -3  -7  16    3.58    0.22
  -2  -7  16    0.58    0.12
  -2  -7  16    0.55    0.11
   1   7 -16    6.51    0.26
  -1  -7  16    7.29    0.33
  -1  -7  16    6.67    0.31
   0   7 -16    4.36    0.18
   0  -7  16    4.22    0.20
   0  -7  16    4.40    0.24
   0  -7  16    4.69    0.26
  -1   7 -16   34.61    1.04
   1  -7  16   34.42    1.06
   1  -7  16   35.24    1.11
   1  -7  16   34.18    1.13
   1  -7  16   35.00    1.19
  -2   7 -16    0.27    0.06
  -2   7 -16    0.26    0.06
   2  -7  16    0.35    0.10
   2  -7  16    0.22    0.09
   2  -7  16    0.40    0.10
   2  -7  16    0.32    0.07
  -3   7 -16   70.11    2.21
   3  -7  16   68.75    2.14
   3  -7  16   69.33    2.06
   3  -7  16   70.76    2.29
   3  -7  16   70.78    2.12
  -4   7 -16    0.05    0.06
   4  -7  16    0.08    0.08
   4  -7  16    0.16    0.09
   4  -7  16    0.13    0.07
   4  -7  16    0.13    0.10
   5  -7  16   41.46    1.28
   5  -7  16   42.12    1.35
   5  -7  16   41.45    1.34
   6  -7  16   14.73    0.59
   6  -7  16   15.64    0.55
   6  -7  16   15.97    0.60
   7  -7  16   36.47    1.15
   7  -7  16   37.59    1.21
   7  -7  16   34.09    1.18
   8  -7  16    3.13    0.24
   8  -7  16    3.32    0.26
   8  -7  16    3.69    0.24
   9  -7  16    6.72    0.35
   9  -7  16    6.52    0.35
   9  -7  16    7.12    0.39
  10  -7  16    0.02    0.09
  10  -7  16   -0.01    0.11
  10  -7  16    0.04    0.12
  11  -7  16    1.41    0.21
  11  -7  16    1.44    0.22
  11  -7  16    1.87    0.20
  12  -7  16    0.36    0.15
  12  -7  16    0.25    0.14
  12  -7  16    0.35    0.13
  13  -7  16    0.33    0.16
  13  -7  16    0.49    0.17
 -10  -6  16    0.75    0.14
  -9  -6  16   -0.08    0.08
  -8  -6  16    0.18    0.09
  -7  -6  16    0.88    0.13
  -6  -6  16    0.31    0.08
  -6  -6  16    0.27    0.09
  -5  -6  16    0.58    0.10
  -5  -6  16    0.83    0.11
  -4  -6  16    5.73    0.28
  -4  -6  16    5.69    0.27
  -3  -6  16   15.08    0.57
  -3  -6  16   15.08    0.55
  -3  -6  16   15.47    0.53
   2   6 -16    0.17    0.05
  -2  -6  16    0.10    0.07
  -2  -6  16    0.26    0.09
  -2  -6  16    0.23    0.08
   1   6 -16    9.24    0.31
  -1  -6  16    9.47    0.39
  -1  -6  16    9.04    0.36
   0   6 -16   16.69    0.56
   0   6 -16   16.36    0.50
   0  -6  16   16.00    0.60
   0  -6  16   17.13    0.58
  -1   6 -16    4.35    0.21
   1  -6  16    4.13    0.23
   1  -6  16    4.35    0.26
   1  -6  16    4.73    0.18
  -2   6 -16   15.82    0.56
   2  -6  16   15.53    0.56
   2  -6  16   15.10    0.50
   2  -6  16   15.78    0.62
  -3   6 -16    0.06    0.06
   3  -6  16    0.09    0.09
   3  -6  16    0.08    0.05
   3  -6  16    0.04    0.08
  -4   6 -16   25.43    0.91
   4  -6  16   26.12    0.97
   4  -6  16   26.17    0.88
   4  -6  16   27.22    0.83
  -5   6 -16    7.31    0.34
   5  -6  16    7.30    0.40
   5  -6  16    7.73    0.31
   5  -6  16    7.60    0.36
   6  -6  16   -0.03    0.07
   6  -6  16   -0.11    0.09
   7  -6  16    0.61    0.14
   7  -6  16    0.61    0.12
   8  -6  16    2.71    0.22
   8  -6  16    2.66    0.20
   8  -6  16    2.38    0.24
   9  -6  16    4.59    0.28
   9  -6  16    4.61    0.29
   9  -6  16    4.55    0.30
  10  -6  16    0.25    0.12
  10  -6  16    0.35    0.14
  10  -6  16    0.44    0.13
  11  -6  16    0.06    0.11
  11  -6  16    0.17    0.13
  11  -6  16    0.06    0.12
  12  -6  16    0.40    0.16
  12  -6  16    0.29    0.12
  12  -6  16    0.71    0.17
  13  -6  16    6.59    0.42
  13  -6  16    5.58    0.39
 -11  -5  16    3.30    0.31
 -10  -5  16    4.77    0.31
  -9  -5  16   11.30    0.50
  -8  -5  16    1.28    0.16
  -7  -5  16    7.43    0.36
  -6  -5  16   12.32    0.50
  -6  -5  16   11.72    0.44
  -5  -5  16   30.82    1.00
  -5  -5  16   31.25    1.07
  -4  -5  16    8.85    0.39
  -4  -5  16    8.87    0.33
  -4  -5  16    8.28    0.35
   3   5 -16    1.78    0.12
   3   5 -16    2.05    0.12
  -3  -5  16    1.98    0.18
  -3  -5  16    2.03    0.16
  -3  -5  16    2.31    0.14
   2   5 -16   39.69    1.20
   2   5 -16   39.40    1.16
  -2  -5  16   40.80    1.34
  -2  -5  16   39.59    1.21
   1   5 -16    2.83    0.16
  -1  -5  16    3.01    0.17
   0   5 -16    5.49    0.25
   0  -5  16    6.02    0.26
  -1   5 -16    3.19    0.18
   1  -5  16    2.56    0.21
   1  -5  16    3.28    0.19
  -2   5 -16   36.30    1.24
   2  -5  16   37.79    1.10
   2  -5  16   37.71    1.30
   2  -5  16   37.88    1.18
  -3   5 -16   19.15    0.69
   3  -5  16   17.95    0.73
   3  -5  16   19.77    0.66
   3  -5  16   18.26    0.59
  -4   5 -16   -0.09    0.05
   4  -5  16   -0.02    0.05
   4  -5  16   -0.07    0.07
   4  -5  16   -0.09    0.07
  -5   5 -16    0.92    0.13
   5  -5  16    1.15    0.18
   5  -5  16    1.09    0.14
   5  -5  16    0.97    0.11
  -6   5 -16    3.98    0.26
   6  -5  16    3.93    0.22
   6  -5  16    3.98    0.26
   7  -5  16    6.57    0.33
   7  -5  16    8.34    0.39
   8  -5  16   11.62    0.47
   8  -5  16   11.14    0.50
   9  -5  16    0.77    0.14
   9  -5  16    0.48    0.14
  10  -5  16    2.01    0.24
  10  -5  16    2.17    0.22
  10  -5  16    2.14    0.21
  11  -5  16   10.01    0.47
  11  -5  16   11.00    0.51
  11  -5  16   11.77    0.55
  12  -5  16    0.11    0.14
  12  -5  16    0.14    0.14
 -11  -4  16    1.76    0.22
 -10  -4  16    1.86    0.21
  -9  -4  16    1.18    0.17
  -8  -4  16    6.33    0.34
  -7  -4  16    0.25    0.10
  -7  -4  16    0.33    0.07
  -6  -4  16   18.06    0.61
  -6  -4  16   17.44    0.68
  -5  -4  16    0.29    0.09
  -5  -4  16    0.45    0.09
   4   4 -16   67.25    2.00
   4   4 -16   71.43    1.99
  -4  -4  16   67.39    2.22
  -4  -4  16   68.80    2.00
   3   4 -16   14.78    0.47
   3   4 -16   14.74    0.53
   3   4 -16   14.38    0.45
  -3  -4  16   15.22    0.58
  -3  -4  16   14.17    0.48
   2   4 -16    2.57    0.14
   2   4 -16    2.31    0.16
  -2  -4  16    2.25    0.19
  -2  -4  16    2.59    0.14
   1   4 -16   21.03    0.75
  -1  -4  16   22.08    0.69
   0   4 -16    5.02    0.25
   0  -4  16    5.03    0.23
  -1   4 -16    9.71    0.41
   1  -4  16    9.93    0.38
  -2   4 -16   31.09    1.09
   2  -4  16   31.85    1.02
   2  -4  16   32.01    1.15
   2  -4  16   33.22    0.94
  -3   4 -16    8.89    0.38
   3  -4  16    8.17    0.35
   3  -4  16    8.30    0.29
   3  -4  16    7.92    0.41
  -4   4 -16    1.97    0.18
   4  -4  16    2.02    0.13
   4  -4  16    1.97    0.17
   4  -4  16    1.49    0.19
  -5   4 -16    9.88    0.44
   5  -4  16    9.31    0.36
   5  -4  16    8.97    0.40
  -6   4 -16   81.37    2.63
   6  -4  16   82.19    2.40
   6  -4  16   79.06    2.46
  -7   4 -16    1.15    0.17
   7  -4  16    1.62    0.20
   7  -4  16    1.34    0.15
   8  -4  16    6.15    0.32
   8  -4  16    6.30    0.36
   9  -4  16   15.20    0.61
   9  -4  16   15.95    0.65
  10  -4  16    8.44    0.43
  10  -4  16    8.80    0.45
  11  -4  16    2.12    0.26
  11  -4  16    1.88    0.23
  12  -4  16    0.18    0.13
  12  -4  16   -0.19    0.13
 -12  -3  16   -0.01    0.12
 -11  -3  16    0.34    0.13
  10   3 -16    3.98    0.26
 -10  -3  16    4.00    0.29
   9   3 -16    1.03    0.14
  -9  -3  16    1.20    0.17
   8   3 -16    1.29    0.14
  -8  -3  16    1.39    0.18
   7   3 -16    1.77    0.14
  -7  -3  16    1.42    0.17
  -7  -3  16    1.78    0.14
   6   3 -16   15.97    0.54
  -6  -3  16   16.39    0.64
   5   3 -16   15.15    0.50
   5   3 -16   15.65    0.59
  -5  -3  16   16.18    0.62
   4   3 -16    7.32    0.25
   4   3 -16    7.91    0.26
   4   3 -16    7.68    0.34
  -4  -3  16    7.45    0.26
  -4  -3  16    7.49    0.37
   3   3 -16    5.41    0.27
  -3  -3  16    5.55    0.30
  -3  -3  16    5.49    0.21
   2   3 -16    6.68    0.31
  -2  -3  16    6.09    0.33
  -2  -3  16    6.34    0.25
   1   3 -16    6.32    0.30
  -1  -3  16    5.80    0.24
   0   3 -16    4.83    0.26
   0  -3  16    4.57    0.22
  -1   3 -16    5.43    0.29
   1  -3  16    5.46    0.25
  -2   3 -16    6.07    0.32
   2  -3  16    6.21    0.29
   2  -3  16    6.23    0.22
   2  -3  16    6.21    0.23
   2  -3  16    6.21    0.35
  -3   3 -16   20.66    0.80
   3  -3  16   22.23    0.85
   3  -3  16   21.93    0.74
   3  -3  16   21.93    0.68
  -4   3 -16   15.30    0.61
   4  -3  16   14.51    0.50
   4  -3  16   15.06    0.56
  -5   3 -16    5.61    0.33
   5  -3  16    5.55    0.37
   5  -3  16    5.94    0.27
   5  -3  16    6.51    0.33
  -6   3 -16    0.59    0.14
   6  -3  16    0.46    0.14
   6  -3  16    0.44    0.10
  -7   3 -16   25.17    0.93
   7  -3  16   23.04    0.86
  -8   3 -16    0.41    0.13
   8  -3  16    0.39    0.13
   9  -3  16    9.58    0.47
  10  -3  16    0.65    0.17
  10  -3  16    0.59    0.15
  11  -3  16    1.75    0.23
  11  -3  16    1.88    0.24
  12  -3  16    1.82    0.27
  12  -3  16    1.75    0.24
 -12  -2  16    0.35    0.14
 -11  -2  16    0.64    0.16
  10   2 -16    0.05    0.09
 -10  -2  16    0.16    0.11
   9   2 -16   12.17    0.47
  -9  -2  16   12.18    0.55
   8   2 -16    0.24    0.08
  -8  -2  16    0.04    0.09
   7   2 -16    0.14    0.06
  -7  -2  16    0.07    0.09
   6   2 -16    6.45    0.25
  -6  -2  16    6.54    0.35
   5   2 -16   11.37    0.37
   5   2 -16   11.22    0.38
  -5  -2  16   11.49    0.50
   4   2 -16   11.58    0.48
   4   2 -16   11.20    0.34
   4   2 -16   11.35    0.35
  -4  -2  16   11.01    0.49
  -4  -2  16   11.33    0.35
   3   2 -16    9.04    0.41
  -3  -2  16    9.70    0.32
  -3  -2  16    9.45    0.44
   2   2 -16    0.83    0.13
  -2  -2  16    0.73    0.13
  -2  -2  16    0.90    0.08
   1   2 -16    0.11    0.07
  -1  -2  16    0.16    0.05
   0   2 -16    4.94    0.28
   0  -2  16    5.05    0.23
  -1   2 -16   36.20    1.25
   1  -2  16   36.20    1.05
   1  -2  16   36.48    1.05
   1  -2  16   36.52    1.14
  -2   2 -16   48.86    1.65
   2  -2  16   50.24    1.51
   2  -2  16   48.23    1.45
   2  -2  16   48.86    1.43
  -3   2 -16    4.31    0.26
   3  -2  16    3.97    0.23
   3  -2  16    2.63    0.24
   3  -2  16    3.89    0.19
  -4   2 -16    2.82    0.23
   4  -2  16    2.92    0.22
   4  -2  16    2.38    0.25
  -5   2 -16   68.54    2.27
   5  -2  16   68.67    2.11
  -6   2 -16    4.04    0.30
   6  -2  16    4.06    0.27
  -7   2 -16    2.51    0.26
   7  -2  16    2.66    0.23
  -8   2 -16    0.02    0.11
   8  -2  16   -0.11    0.09
   9  -2  16    0.08    0.12
  10  -2  16    6.46    0.41
  11  -2  16    4.47    0.34
 -13  -1  16    0.29    0.15
 -12  -1  16    7.92    0.46
  11   1 -16    0.15    0.12
 -11  -1  16    0.31    0.13
  10   1 -16    4.26    0.26
 -10  -1  16    5.15    0.34
   9   1 -16    0.24    0.09
  -9  -1  16    0.24    0.12
   8   1 -16    4.95    0.24
  -8  -1  16    4.54    0.31
   7   1 -16   15.92    0.54
  -7  -1  16   16.71    0.67
   6   1 -16    0.13    0.05
  -6  -1  16   -0.06    0.08
   5   1 -16    0.48    0.06
  -5  -1  16    0.47    0.11
  -4  -1  16    0.05    0.09
  -4  -1  16   -0.01    0.03
   3   1 -16   40.53    1.40
  -3  -1  16   40.81    1.21
  -3  -1  16   41.06    1.41
   2   1 -16    0.02    0.07
  -2  -1  16   -0.02    0.08
  -2  -1  16   -0.03    0.04
   1   1 -16   16.11    0.63
  -1  -1  16   15.49    0.53
   0   1 -16   37.01    1.32
   0  -1  16   39.67    1.19
  -1   1 -16    3.77    0.26
   1  -1  16    4.12    0.17
   1  -1  16    4.31    0.23
  -2   1 -16    2.84    0.23
   2  -1  16    2.66    0.19
  -3   1 -16    0.26    0.11
   3  -1  16    0.25    0.10
   3  -1  16    0.34    0.07
  -4   1 -16    2.46    0.24
   4  -1  16    2.68    0.21
  -5   1 -16    2.90    0.25
   5  -1  16    3.16    0.25
  -6   1 -16   15.25    0.65
   6  -1  16   14.82    0.61
  -7   1 -16    0.76    0.16
   7  -1  16    0.65    0.15
  -8   1 -16    0.69    0.17
   8  -1  16    0.89    0.17
   9  -1  16    0.11    0.12
  10  -1  16    0.34    0.16
  11  -1  16   -0.08    0.14
 -13   0  16    2.25    0.27
 -12   0  16    2.60    0.29
  11   0 -16    6.02    0.33
 -11   0  16    6.85    0.41
  10   0 -16    0.16    0.09
 -10   0  16   -0.02    0.11
   9   0 -16    1.25    0.14
  -9   0  16    1.24    0.18
   8   0 -16    0.08    0.07
  -8   0  16    0.00    0.09
   7   0 -16    8.41    0.32
  -7   0  16    8.84    0.44
   6   0 -16    6.84    0.26
  -6   0  16    6.71    0.37
   5   0 -16    0.41    0.06
  -5   0  16    0.39    0.12
   4   0 -16    0.60    0.05
  -4   0  16    0.67    0.06
  -4   0  16    0.74    0.14
   3   0 -16    1.17    0.17
  -3   0  16    1.20    0.09
  -3   0  16    1.23    0.17
   2   0 -16   27.42    1.05
  -2   0  16   30.00    1.06
  -2   0  16   29.29    0.90
   1   0 -16    8.19    0.41
  -1   0  16    8.01    0.25
  -1   0  16    8.28    0.32
   0   0 -16   71.71    2.34
   0   0  16   71.13    2.12
   0   0  16   69.95    2.04
  -1   0 -16    5.27    0.32
   1   0  16    4.58    0.21
   1   0  16    5.45    0.26
  -2   0 -16   33.46    1.20
   2   0  16   32.72    1.04
   2   0  16   33.65    1.08
  -3   0 -16    0.47    0.13
   3   0  16    0.73    0.13
  -4   0 -16    0.39    0.13
   4   0  16    0.47    0.13
  -5   0 -16   -0.09    0.09
   5   0  16   -0.10    0.08
  -6   0 -16    5.21    0.34
   6   0  16    4.61    0.31
  -7   0 -16    0.25    0.13
   7   0  16    0.13    0.12
  -8   0 -16   -0.05    0.10
   8   0  16    0.21    0.12
  -9   0 -16    1.12    0.21
   9   0  16    0.93    0.19
  10   0  16   -0.23    0.12
 -13   1  16    0.03    0.14
 -12   1  16    7.40    0.46
  11  -1 -16   20.84    0.76
 -11   1  16   21.50    0.88
  10  -1 -16    9.31    0.40
 -10   1  16    9.25    0.49
   9  -1 -16    6.31    0.29
  -9   1  16    6.28    0.38
   8  -1 -16    1.69    0.15
  -8   1  16    1.89    0.22
   7  -1 -16   11.67    0.42
  -7   1  16   11.73    0.54
   6  -1 -16    3.82    0.18
  -6   1  16    4.10    0.29
   5  -1 -16    0.32    0.06
  -5   1  16    0.15    0.11
  -5   1  16    0.32    0.05
  -5   1  16    0.32    0.04
   4  -1 -16   25.47    0.77
  -4   1  16   25.05    0.78
  -4   1  16   25.87    0.96
   3  -1 -16   33.69    1.00
  -3   1  16   34.53    1.04
  -3   1  16   33.67    1.22
   2  -1 -16   10.14    0.49
  -2   1  16   10.67    0.50
  -2   1  16   10.40    0.33
  -2   1  16   10.11    0.38
   1  -1 -16    0.27    0.11
  -1   1  16    0.19    0.07
  -1   1  16    0.16    0.05
   0  -1 -16    0.05    0.09
   0   1  16   -0.01    0.03
   0   1  16    0.02    0.07
  -1  -1 -16    4.49    0.31
   1   1  16    4.20    0.21
   1   1  16    4.01    0.23
  -2  -1 -16    3.92    0.29
   2   1  16    3.61    0.24
  -3  -1 -16    9.37    0.48
   3   1  16    9.22    0.42
  -4  -1 -16   18.15    0.77
   4   1  16   18.50    0.70
  -5  -1 -16    0.19    0.13
   5   1  16    0.07    0.10
  -6  -1 -16    5.81    0.37
   6   1  16    6.73    0.38
  -7  -1 -16    0.02    0.11
   7   1  16    0.09    0.13
  -8  -1 -16    0.03    0.12
   8   1  16   -0.08    0.11
  -9  -1 -16    0.32    0.16
   9   1  16    0.61    0.17
 -13   2  16    5.22    0.42
  12  -2 -16    5.74    0.34
 -12   2  16    6.08    0.41
  11  -2 -16    1.29    0.17
 -11   2  16    1.12    0.20
  10  -2 -16    8.41    0.37
 -10   2  16    8.59    0.48
   9  -2 -16    1.30    0.14
  -9   2  16    1.07    0.18
   8  -2 -16   12.52    0.46
  -8   2  16   12.98    0.59
   7  -2 -16   10.38    0.39
  -7   2  16   10.92    0.52
   6  -2 -16    5.41    0.24
  -6   2  16    5.64    0.18
  -6   2  16    5.50    0.35
   5  -2 -16    6.49    0.27
  -5   2  16    6.71    0.26
  -5   2  16    7.37    0.40
  -5   2  16    7.02    0.25
   4  -2 -16   20.53    0.65
  -4   2  16   20.15    0.82
  -4   2  16   20.41    0.65
  -4   2  16   20.72    0.64
   3  -2 -16   12.45    0.42
  -3   2  16   12.01    0.40
  -3   2  16   11.86    0.55
   2  -2 -16    0.81    0.16
  -2   2  16    0.80    0.16
  -2   2  16    0.73    0.08
   1  -2 -16   -0.03    0.09
  -1   2  16   -0.02    0.04
   0  -2 -16   33.23    1.23
   0   2  16   33.81    1.04
  -1  -2 -16   19.76    0.81
  -2  -2 -16    7.07    0.41
  -3  -2 -16    0.25    0.13
   3   2  16    0.18    0.12
  -4  -2 -16    0.66    0.16
   4   2  16    0.37    0.13
  -5  -2 -16    0.28    0.15
   5   2  16    0.20    0.12
  -6  -2 -16    6.03    0.40
   6   2  16    6.15    0.37
  -7  -2 -16    0.09    0.12
   7   2  16    0.14    0.13
  -8  -2 -16    5.60    0.41
   8   2  16    5.95    0.40
  -9  -2 -16    2.01    0.29
   9   2  16    2.73    0.31
 -14   3  16   -0.07    0.14
 -13   3  16    3.66    0.35
  12  -3 -16    3.07    0.24
 -12   3  16    3.42    0.32
  11  -3 -16   19.08    0.69
 -11   3  16   18.75    0.82
  10  -3 -16    2.19    0.20
 -10   3  16    2.00    0.25
   9  -3 -16    1.17    0.14
  -9   3  16    1.40    0.21
   8  -3 -16    1.80    0.16
  -8   3  16    2.13    0.24
   7  -3 -16    1.27    0.13
  -7   3  16    1.36    0.21
   6  -3 -16   -0.01    0.06
  -6   3  16    0.09    0.11
   5  -3 -16    5.16    0.24
  -5   3  16    5.36    0.34
  -5   3  16    5.17    0.22
  -5   3  16    4.98    0.25
   4  -3 -16    2.85    0.17
  -4   3  16    2.10    0.23
  -4   3  16    2.84    0.15
   3  -3 -16   29.98    0.95
  -3   3  16   30.22    1.13
  -3   3  16   31.03    0.94
   2  -3 -16    0.06    0.07
   2  -3 -16    0.20    0.11
  -2   3  16    0.06    0.06
   1  -3 -16    7.92    0.45
   0  -3 -16    1.16    0.19
  -1  -3 -16    0.91    0.18
  -2  -3 -16    0.08    0.13
  -3  -3 -16   39.09    1.43
  -4  -3 -16   11.12    0.57
  -5  -3 -16   -0.08    0.11
   5   3  16   -0.07    0.10
  -6  -3 -16    0.91    0.19
   6   3  16    0.91    0.19
  -7  -3 -16   -0.29    0.10
   7   3  16    0.00    0.13
  -8  -3 -16    7.05    0.48
   8   3  16    8.32    0.48
 -14   4  16    3.03    0.35
 -13   4  16    0.14    0.14
  12  -4 -16    0.10    0.11
 -12   4  16    0.05    0.13
  11  -4 -16    0.30    0.12
 -11   4  16   -0.01    0.12
  10  -4 -16   10.97    0.45
 -10   4  16   10.68    0.56
   9  -4 -16    1.55    0.16
  -9   4  16    1.67    0.23
   8  -4 -16    9.23    0.39
  -8   4  16    9.84    0.51
   7  -4 -16   29.50    0.96
  -7   4  16   29.81    1.13
   6  -4 -16    8.08    0.34
  -6   4  16    8.18    0.46
   5  -4 -16   12.64    0.46
  -5   4  16   11.65    0.58
   4  -4 -16   20.23    0.69
  -4   4  16   20.34    0.84
   3  -4 -16   18.53    0.64
  -3   4  16   17.79    0.77
   2  -4 -16    6.22    0.30
   2  -4 -16    6.64    0.41
   1  -4 -16    1.80    0.24
   0  -4 -16    1.90    0.24
  -1  -4 -16    8.96    0.50
  -2  -4 -16    1.44    0.23
  -3  -4 -16    0.14    0.14
  -4  -4 -16    0.93    0.19
  -5  -4 -16    2.89    0.31
  -6  -4 -16    6.52    0.44
   6   4  16    6.58    0.41
  -7  -4 -16    2.15    0.28
   7   4  16    2.21    0.27
 -14   5  16    3.52    0.37
 -13   5  16    4.33    0.39
  12  -5 -16    0.00    0.11
 -12   5  16    0.08    0.13
  11  -5 -16    2.09    0.22
 -11   5  16    2.29    0.29
  10  -5 -16    3.53    0.25
 -10   5  16    3.57    0.33
   9  -5 -16   20.18    0.73
  -9   5  16   21.28    0.88
   8  -5 -16    3.01    0.22
  -8   5  16    3.51    0.31
   7  -5 -16    4.53    0.26
  -7   5  16    4.83    0.35
   6  -5 -16    8.02    0.36
  -6   5  16    8.21    0.47
   5  -5 -16    1.20    0.15
  -5   5  16    1.32    0.21
   4  -5 -16   21.99    0.77
  -4   5  16   22.90    0.91
   3  -5 -16   27.75    0.93
  -3   5  16   28.08    1.08
   2  -5 -16   20.55    0.86
   2  -5 -16   19.64    0.71
   1  -5 -16   61.25    2.13
   0  -5 -16    3.10    0.32
  -1  -5 -16    1.62    0.25
  -2  -5 -16    1.17    0.21
  -3  -5 -16    6.18    0.43
  -4  -5 -16    0.06    0.14
  -5  -5 -16    4.00    0.36
  -6  -5 -16    0.09    0.15
 -13   6  16    1.32    0.25
  12  -6 -16    0.47    0.14
 -12   6  16    0.45    0.18
  11  -6 -16    6.21    0.35
 -11   6  16    5.72    0.43
  10  -6 -16    0.19    0.11
 -10   6  16    0.20    0.13
   9  -6 -16    0.30    0.11
  -9   6  16    0.30    0.15
   8  -6 -16   13.59    0.55
  -8   6  16   13.89    0.66
   7  -6 -16    1.05    0.15
  -7   6  16    0.99    0.19
   6  -6 -16   14.05    0.55
  -6   6  16   13.26    0.65
   5  -6 -16    2.56    0.21
  -5   6  16    1.68    0.23
   4  -6 -16    2.34    0.22
  -4   6  16    2.65    0.29
   3  -6 -16    0.05    0.10
   2  -6 -16    1.35    0.23
   2  -6 -16    1.14    0.17
   1  -6 -16    0.95    0.20
   0  -6 -16    6.50    0.44
  -1  -6 -16    4.16    0.36
  -2  -6 -16    6.92    0.46
  -3  -6 -16    2.42    0.32
  -4  -6 -16    0.26    0.16
  -5  -6 -16    0.12    0.15
  12  -7 -16    0.12    0.13
  11  -7 -16    3.55    0.27
  10  -7 -16    4.17    0.29
 -10   7  16    4.22    0.37
   9  -7 -16    3.00    0.25
  -9   7  16    3.93    0.35
   8  -7 -16    0.12    0.11
  -8   7  16    0.12    0.13
   7  -7 -16    2.53    0.22
  -7   7  16    2.55    0.29
   6  -7 -16    2.54    0.24
  -6   7  16    2.11    0.30
   5  -7 -16    1.74    0.20
   4  -7 -16    0.11    0.11
   3  -7 -16    6.74    0.36
   2  -7 -16    1.18    0.23
   2  -7 -16    2.00    0.22
   1  -7 -16    0.12    0.15
   0  -7 -16    0.90    0.22
  -1  -7 -16    0.86    0.22
  -2  -7 -16    1.19    0.23
  -3  -7 -16   11.35    0.62
  -4  -7 -16    4.77    0.41
  12  -8 -16   -0.03    0.12
  11  -8 -16    3.12    0.29
  10  -8 -16    4.00    0.30
   9  -8 -16    0.22    0.12
   8  -8 -16   13.32    0.57
   7  -8 -16    0.18    0.12
   6  -8 -16    3.16    0.27
   5  -8 -16   -0.09    0.10
   4  -8 -16   15.95    0.66
   3  -8 -16    1.16    0.19
   2  -8 -16    0.39    0.14
   2  -8 -16    0.38    0.17
   1  -8 -16    1.72    0.28
   0  -8 -16    1.04    0.23
  -1  -8 -16    1.52    0.27
  -2  -8 -16    0.16    0.17
  -3  -8 -16    9.90    0.59
  12  -9 -16    0.73    0.18
  11  -9 -16    2.65    0.28
  10  -9 -16   -0.12    0.11
   9  -9 -16    0.11    0.12
   8  -9 -16    9.40    0.47
   7  -9 -16    3.29    0.30
   6  -9 -16    5.64    0.37
   5  -9 -16    0.72    0.18
   4  -9 -16    1.73    0.23
   3  -9 -16   11.29    0.55
   2  -9 -16    1.32    0.23
   2  -9 -16    1.30    0.24
   1  -9 -16    0.23    0.16
   0  -9 -16    0.05    0.17
  -1  -9 -16   -0.16    0.14
  -2  -9 -16   -0.01    0.16
  11 -10 -16   -0.09    0.12
  10 -10 -16    0.12    0.14
   9 -10 -16    0.10    0.15
   8 -10 -16    0.08    0.14
   7 -10 -16    6.15    0.40
   6 -10 -16    5.27    0.37
   5 -10 -16   10.83    0.55
   4 -10 -16    2.07    0.28
   3 -10 -16    1.26    0.25
   3 -10 -16    1.63    0.25
   2 -10 -16    0.45    0.18
   2 -10 -16    0.60    0.21
   1 -10 -16    0.63    0.22
   0 -10 -16    1.61    0.29
  10 -11 -16   -0.05    0.14
   9 -11 -16    2.11    0.27
   8 -11 -16    3.94    0.34
   7 -11 -16    0.73    0.20
   6 -11 -16    1.20    0.23
   5 -11 -16    8.99    0.51
   4 -11 -16    8.69    0.51
   3 -11 -16   12.64    0.64
   3 -11 -16   11.66    0.70
   2 -11 -16    2.09    0.33
   7 -12 -16    0.10    0.17
   3 -16  17    0.50    0.20
   4 -16  17    0.88    0.24
   4 -16  17    1.04    0.24
   5 -16  17   -0.11    0.08
   5 -16  17    0.20    0.17
   5 -16  17   -0.04    0.14
   6 -16  17    0.41    0.18
   6 -16  17    0.02    0.17
   6 -16  17    0.01    0.11
   7 -16  17   -0.17    0.12
   7 -16  17    0.21    0.16
   7 -16  17    0.36    0.18
   8 -16  17    0.41    0.18
   8 -16  17    0.31    0.20
   8 -16  17    0.22    0.17
   0 -15  17    6.59    0.45
   1 -15  17    0.33    0.17
   2 -15  17   -0.02    0.14
   2 -15  17    0.30    0.15
   3 -15  17    2.12    0.27
   3 -15  17    2.29    0.28
   4 -15  17    2.07    0.26
   4 -15  17    3.13    0.33
   4 -15  17    3.02    0.34
   5 -15  17    1.25    0.24
   5 -15  17    1.10    0.21
   5 -15  17    1.14    0.21
   6 -15  17   -0.14    0.13
   6 -15  17   -0.02    0.13
   6 -15  17    0.03    0.13
   7 -15  17    1.63    0.27
   7 -15  17    2.37    0.27
   7 -15  17    2.87    0.32
   8 -15  17    1.14    0.24
   8 -15  17    1.00    0.22
   8 -15  17    1.27    0.22
   9 -15  17   -0.17    0.13
   9 -15  17    0.05    0.16
   9 -15  17    0.11    0.16
  10 -15  17    0.39    0.17
  10 -15  17    0.35    0.18
  10 -15  17    0.13    0.16
   0 -14  17    2.40    0.29
   0 -14  17    2.45    0.28
   1 -14  17    0.17    0.15
   1 -14  17    0.01    0.07
   1 -14  17    0.08    0.14
   2 -14  17   -0.01    0.14
   2 -14  17    0.33    0.12
   2 -14  17    0.20    0.13
   3 -14  17    0.87    0.18
   3 -14  17    1.14    0.22
   3 -14  17    0.67    0.19
   4 -14  17    0.33    0.17
   4 -14  17    0.28    0.17
   4 -14  17    0.37    0.14
   5 -14  17   -0.14    0.10
   5 -14  17   -0.07    0.13
   5 -14  17   -0.04    0.12
   6 -14  17    0.18    0.13
   6 -14  17   -0.06    0.12
   6 -14  17    0.00    0.12
   7 -14  17    0.23    0.14
   7 -14  17    0.45    0.17
   7 -14  17    0.36    0.14
   8 -14  17    0.41    0.16
   8 -14  17    0.13    0.15
   8 -14  17    0.22    0.14
   9 -14  17    3.19    0.31
   9 -14  17    3.87    0.36
   9 -14  17    3.23    0.33
  10 -14  17    2.42    0.28
  10 -14  17    1.96    0.27
  10 -14  17    2.21    0.26
  11 -14  17    0.97    0.20
  11 -14  17    0.70    0.18
  11 -14  17    0.96    0.23
  -1 -13  17   10.06    0.52
  -1 -13  17    9.72    0.51
   0 -13  17    9.63    0.51
   0 -13  17   10.26    0.52
   1 -13  17    7.94    0.45
   1 -13  17    8.76    0.46
   1 -13  17    6.86    0.40
   2 -13  17    4.43    0.33
   2 -13  17    4.43    0.35
   2 -13  17    4.68    0.32
   3 -13  17    0.62    0.18
   3 -13  17    0.58    0.16
   3 -13  17    0.50    0.16
   4 -13  17    0.33    0.16
   4 -13  17   -0.01    0.11
   4 -13  17    0.40    0.15
   5 -13  17    0.23    0.13
   5 -13  17    0.23    0.15
   5 -13  17    0.33    0.15
   6 -13  17    0.99    0.18
   6 -13  17    1.06    0.21
   6 -13  17    1.02    0.19
   7 -13  17   -0.02    0.11
   7 -13  17   -0.06    0.11
   7 -13  17    0.13    0.11
   8 -13  17   -0.21    0.11
   8 -13  17    0.06    0.12
   8 -13  17    0.16    0.13
   9 -13  17    2.76    0.27
   9 -13  17    3.10    0.30
   9 -13  17    2.69    0.30
  10 -13  17    4.61    0.38
  10 -13  17    4.49    0.33
  10 -13  17    5.33    0.37
  11 -13  17    0.08    0.15
  11 -13  17    0.12    0.13
  11 -13  17    0.16    0.15
  12 -13  17    4.07    0.34
  12 -13  17    4.14    0.35
  12 -13  17    4.37    0.44
  -2 -12  17    3.68    0.29
  -1 -12  17    0.25    0.13
  -1 -12  17    0.16    0.13
   0 -12  17    0.01    0.12
   0 -12  17    0.19    0.12
   0 -12  17    0.07    0.11
   1 -12  17    3.37    0.29
   1 -12  17    3.71    0.27
   1 -12  17    3.49    0.28
   2 -12  17    0.15    0.10
   2 -12  17    0.11    0.13
   2 -12  17    0.03    0.12
   2 -12  17    0.05    0.06
   3 -12  17    4.33    0.28
   3 -12  17    3.34    0.30
   3 -12  17    3.56    0.28
   4 -12  17    0.11    0.10
   4 -12  17    0.07    0.12
   4 -12  17    0.14    0.13
   5 -12  17    6.24    0.38
   5 -12  17    6.40    0.35
   5 -12  17    5.92    0.38
   6 -12  17    2.48    0.24
   6 -12  17    2.50    0.26
   6 -12  17    2.34    0.25
   7 -12  17    0.49    0.16
   7 -12  17    0.69    0.16
   7 -12  17    0.62    0.15
   8 -12  17   -0.09    0.10
   8 -12  17    0.03    0.13
   8 -12  17   -0.02    0.13
   9 -12  17    3.84    0.31
   9 -12  17    3.78    0.31
   9 -12  17    3.52    0.28
  10 -12  17    3.61    0.30
  10 -12  17    3.07    0.31
  10 -12  17    3.45    0.30
  11 -12  17   -0.26    0.12
  11 -12  17    0.05    0.15
  11 -12  17    0.00    0.12
  12 -12  17    2.05    0.25
  12 -12  17    2.48    0.29
  12 -12  17    2.09    0.27
  -3 -11  17    0.07    0.12
  -2 -11  17    4.50    0.31
  -2 -11  17    4.50    0.31
  -1 -11  17    2.80    0.26
  -1 -11  17    2.85    0.25
   0 -11  17   14.11    0.59
   0 -11  17   13.76    0.56
   0 -11  17   14.40    0.60
   1 -11  17    0.12    0.07
   1 -11  17    0.15    0.12
   1 -11  17    0.18    0.12
   1 -11  17    0.02    0.09
   2 -11  17    0.09    0.07
   2 -11  17    0.22    0.10
   2 -11  17   -0.02    0.11
   2 -11  17    0.00    0.10
   3 -11  17    4.25    0.31
   3 -11  17    4.29    0.30
   3 -11  17    4.56    0.27
   4 -11  17    1.48    0.20
   4 -11  17    1.33    0.16
   4 -11  17    1.51    0.19
   5 -11  17   -0.06    0.09
   5 -11  17   -0.11    0.09
   5 -11  17    0.05    0.08
   6 -11  17    0.64    0.16
   6 -11  17    0.68    0.16
   6 -11  17    0.51    0.13
   7 -11  17    3.91    0.26
   7 -11  17    3.78    0.30
   7 -11  17    4.11    0.29
   8 -11  17    9.70    0.45
   8 -11  17    9.91    0.50
   8 -11  17   10.04    0.49
   9 -11  17    2.28    0.23
   9 -11  17    2.11    0.26
   9 -11  17    2.39    0.26
  10 -11  17    0.91    0.18
  10 -11  17    0.88    0.18
  10 -11  17    0.92    0.18
  11 -11  17    3.38    0.33
  11 -11  17    3.47    0.29
  11 -11  17    3.42    0.30
  12 -11  17    0.85    0.19
  12 -11  17    0.69    0.18
  12 -11  17    0.57    0.19
  -7 -10  17    6.05    0.27
  -6 -10  17    0.34    0.08
  -4 -10  17    3.35    0.25
  -3 -10  17    2.51    0.24
  -2 -10  17    0.22    0.11
  -2 -10  17    0.07    0.09
  -1 -10  17    1.30    0.18
  -1 -10  17    1.31    0.18
   0 -10  17    0.09    0.10
   0 -10  17    0.32    0.10
   0 -10  17    0.37    0.13
   1 -10  17    2.09    0.21
   1 -10  17    2.22    0.20
   1 -10  17    2.11    0.17
   1 -10  17    2.04    0.21
   2 -10  17    1.17    0.17
   2 -10  17    1.34    0.15
   2 -10  17    1.22    0.15
   2 -10  17    1.08    0.16
   3 -10  17    1.76    0.20
   3 -10  17    2.02    0.18
   3 -10  17    1.92    0.20
   4 -10  17   10.02    0.42
   4 -10  17   10.28    0.46
   4 -10  17   10.02    0.46
   5 -10  17    3.47    0.22
   5 -10  17    3.38    0.26
   5 -10  17    2.51    0.24
   6 -10  17    0.82    0.13
   6 -10  17    0.70    0.14
   6 -10  17    0.78    0.15
   7 -10  17   -0.01    0.11
   7 -10  17    0.15    0.11
   7 -10  17   -0.06    0.08
   8 -10  17    7.20    0.38
   8 -10  17    6.71    0.36
   8 -10  17    6.88    0.40
   9 -10  17    2.19    0.25
   9 -10  17    2.26    0.22
   9 -10  17    2.21    0.24
  10 -10  17    0.22    0.13
  10 -10  17    0.14    0.13
  10 -10  17    0.17    0.12
  11 -10  17    5.92    0.36
  11 -10  17    4.92    0.36
  11 -10  17    6.01    0.36
  12 -10  17    0.71    0.20
  12 -10  17    0.36    0.16
  12 -10  17    0.95    0.18
  13 -10  17   -0.16    0.11
  13 -10  17   -0.03    0.14
  -7  -9  17    4.12    0.24
  -6  -9  17    0.20    0.08
  -5  -9  17    9.21    0.37
  -4  -9  17   12.23    0.46
  -4  -9  17   12.49    0.51
  -3  -9  17    8.43    0.39
  -3  -9  17    7.92    0.38
  -2  -9  17    1.60    0.18
  -2  -9  17    1.34    0.17
  -1  -9  17    4.15    0.26
  -1  -9  17    4.35    0.27
   0  -9  17   20.70    0.70
   0  -9  17   20.66    0.74
   0  -9  17   20.10    0.74
   1  -9  17    9.84    0.44
   1  -9  17    9.78    0.40
   1  -9  17    9.99    0.43
   1  -9  17    9.96    0.43
   2  -9  17    4.11    0.23
   2  -9  17    3.95    0.25
   2  -9  17    4.38    0.28
   2  -9  17    4.46    0.27
   3  -9  17    2.36    0.20
   3  -9  17    2.32    0.17
   3  -9  17    1.75    0.19
   3  -9  17    2.37    0.22
   4  -9  17    0.55    0.13
   4  -9  17    0.77    0.14
   4  -9  17    0.41    0.10
   5  -9  17    2.47    0.22
   5  -9  17    2.99    0.20
   5  -9  17    2.83    0.22
   6  -9  17   12.28    0.52
   6  -9  17   13.02    0.53
   6  -9  17   11.88    0.48
   7  -9  17    8.54    0.42
   7  -9  17    8.89    0.38
   7  -9  17    8.01    0.42
   8  -9  17    0.32    0.13
   8  -9  17    0.31    0.13
   8  -9  17    0.29    0.11
   9  -9  17    0.02    0.10
   9  -9  17    0.09    0.11
   9  -9  17    0.10    0.11
  10  -9  17    0.00    0.13
  10  -9  17   -0.20    0.09
  10  -9  17   -0.13    0.09
  11  -9  17    5.98    0.36
  11  -9  17    6.22    0.39
  11  -9  17    5.49    0.35
  12  -9  17    4.48    0.37
  12  -9  17    4.42    0.31
  12  -9  17    4.39    0.33
  13  -9  17    3.72    0.34
  13  -9  17    3.67    0.29
  -8  -8  17   -0.03    0.08
  -7  -8  17    2.55    0.20
  -6  -8  17    0.05    0.07
  -5  -8  17    1.11    0.15
  -5  -8  17    0.90    0.12
  -4  -8  17    3.43    0.20
  -4  -8  17    3.28    0.22
  -3  -8  17    0.00    0.07
  -3  -8  17    0.15    0.09
  -2  -8  17    4.95    0.27
  -2  -8  17    4.26    0.25
  -1  -8  17   22.80    0.82
  -1  -8  17   24.17    0.81
   0  -8  17    5.31    0.29
   0  -8  17    5.59    0.30
   1  -8  17    2.74    0.21
   1  -8  17    2.88    0.17
   1  -8  17    2.85    0.21
   1  -8  17    2.94    0.21
   2  -8  17    0.15    0.07
   2  -8  17    0.29    0.10
   2  -8  17    0.29    0.10
   2  -8  17    0.22    0.09
   3  -8  17    3.42    0.19
   3  -8  17    2.95    0.23
   3  -8  17    3.25    0.22
   3  -8  17    3.05    0.22
   4  -8  17    0.39    0.10
   4  -8  17    0.56    0.10
   4  -8  17    0.60    0.13
   5  -8  17    4.24    0.26
   5  -8  17    3.79    0.22
   5  -8  17    3.78    0.25
   6  -8  17    1.92    0.20
   6  -8  17    1.46    0.18
   6  -8  17    1.82    0.17
   7  -8  17    0.12    0.11
   7  -8  17    0.13    0.09
   7  -8  17    0.06    0.11
   8  -8  17    1.04    0.15
   8  -8  17    0.83    0.15
   8  -8  17    0.75    0.15
   9  -8  17    1.30    0.17
   9  -8  17    1.20    0.19
   9  -8  17    1.47    0.19
  10  -8  17    3.21    0.26
  10  -8  17    3.14    0.28
  10  -8  17    3.85    0.28
  11  -8  17    0.42    0.14
  11  -8  17    0.38    0.15
  11  -8  17    0.40    0.15
  12  -8  17    0.85    0.18
  12  -8  17    0.30    0.17
  12  -8  17    0.51    0.15
  13  -8  17    5.74    0.39
  -9  -7  17    1.71    0.19
  -8  -7  17    5.22    0.30
  -7  -7  17    1.35    0.15
  -6  -7  17    1.10    0.14
  -6  -7  17    1.48    0.15
  -5  -7  17    7.00    0.32
  -5  -7  17    6.91    0.32
  -4  -7  17    1.81    0.16
  -4  -7  17    1.82    0.17
  -3  -7  17   19.17    0.69
  -3  -7  17   18.55    0.65
  -3  -7  17   18.70    0.67
  -2  -7  17    1.89    0.16
  -2  -7  17    2.04    0.19
  -1  -7  17    7.85    0.34
  -1  -7  17    7.20    0.34
   0  -7  17   28.13    0.93
   0  -7  17   26.57    0.89
  -1   7 -17   28.49    0.88
   1  -7  17   29.29    1.04
   1  -7  17   29.65    0.90
   1  -7  17   29.87    0.99
   1  -7  17   29.15    0.96
  -2   7 -17    3.09    0.17
   2  -7  17    2.93    0.16
   2  -7  17    3.27    0.23
   2  -7  17    3.42    0.22
   2  -7  17    3.31    0.21
   3  -7  17    1.09    0.16
   3  -7  17    1.09    0.11
   3  -7  17    1.23    0.14
   3  -7  17    0.97    0.15
   4  -7  17    0.05    0.06
   4  -7  17   -0.13    0.06
   4  -7  17    0.05    0.08
   5  -7  17   14.41    0.56
   5  -7  17   14.38    0.56
   5  -7  17   13.37    0.49
   6  -7  17    4.52    0.28
   6  -7  17    4.52    0.24
   6  -7  17    3.85    0.27
   7  -7  17    1.48    0.16
   7  -7  17    1.70    0.20
   7  -7  17    1.23    0.17
   8  -7  17    1.29    0.16
   8  -7  17    0.97    0.16
   8  -7  17    1.02    0.16
   9  -7  17   -0.03    0.10
   9  -7  17    0.00    0.10
   9  -7  17   -0.01    0.09
  10  -7  17    6.88    0.40
  10  -7  17    7.05    0.37
  10  -7  17    6.70    0.36
  11  -7  17    0.18    0.15
  11  -7  17    0.12    0.12
  11  -7  17    0.26    0.12
  12  -7  17    1.95    0.26
  12  -7  17    2.24    0.23
  12  -7  17    2.39    0.26
 -10  -6  17    3.68    0.28
  -9  -6  17    0.33    0.12
  -8  -6  17    0.29    0.11
  -7  -6  17    0.92    0.14
  -6  -6  17    0.75    0.12
  -6  -6  17    0.86    0.12
  -5  -6  17    5.53    0.27
  -5  -6  17    5.07    0.28
  -4  -6  17   12.00    0.48
  -4  -6  17   11.43    0.45
  -4  -6  17   11.68    0.43
  -3  -6  17    0.40    0.10
  -3  -6  17    0.29    0.09
  -3  -6  17    0.21    0.07
  -2  -6  17    3.05    0.21
  -2  -6  17    3.36    0.19
   1   6 -17   19.91    0.61
  -1  -6  17   20.39    0.68
  -1  -6  17   21.08    0.72
   0   6 -17   20.74    0.70
   0  -6  17   20.48    0.69
  -1   6 -17   50.71    1.64
   1  -6  17   52.51    1.57
   1  -6  17   50.45    1.48
  -2   6 -17    2.21    0.16
   2  -6  17    2.14    0.20
   2  -6  17    1.93    0.17
   2  -6  17    2.22    0.12
  -3   6 -17   21.58    0.75
   3  -6  17   20.03    0.80
   3  -6  17   21.49    0.73
   3  -6  17   20.53    0.66
  -4   6 -17    0.81    0.13
   4  -6  17    0.64    0.15
   4  -6  17    0.75    0.13
   4  -6  17    0.98    0.10
   5  -6  17    1.54    0.17
   5  -6  17    1.60    0.14
   6  -6  17    0.71    0.13
   6  -6  17    0.62    0.11
   7  -6  17   13.53    0.51
   7  -6  17   12.90    0.55
   8  -6  17    2.75    0.22
   8  -6  17    3.20    0.25
   9  -6  17    1.01    0.18
   9  -6  17    1.03    0.16
   9  -6  17    0.93    0.15
  10  -6  17    0.65    0.17
  10  -6  17    0.65    0.15
  10  -6  17    0.23    0.12
  11  -6  17    7.93    0.43
  11  -6  17    7.09    0.38
  11  -6  17    6.84    0.40
  12  -6  17    5.01    0.36
  12  -6  17    4.90    0.34
  12  -6  17    4.38    0.33
 -10  -5  17    0.16    0.11
  -9  -5  17    4.38    0.29
  -8  -5  17    0.05    0.09
  -7  -5  17   14.12    0.58
  -6  -5  17    0.40    0.09
  -6  -5  17    0.24    0.10
  -5  -5  17    2.75    0.18
  -5  -5  17    2.99    0.22
  -4  -5  17    4.24    0.26
  -4  -5  17    4.34    0.23
  -4  -5  17    4.34    0.20
  -3  -5  17    0.08    0.08
  -3  -5  17    0.21    0.06
  -3  -5  17    0.34    0.09
   2   5 -17    6.26    0.25
  -2  -5  17    5.81    0.25
  -2  -5  17    5.46    0.31
   1   5 -17    2.92    0.17
  -1  -5  17    2.66    0.17
   0   5 -17    6.17    0.28
   0  -5  17    6.54    0.28
  -1   5 -17   31.86    1.07
   1  -5  17   31.40    1.01
  -2   5 -17   31.23    1.05
   2  -5  17   29.87    1.11
   2  -5  17   30.17    0.91
   2  -5  17   32.04    1.00
  -3   5 -17   20.98    0.78
   3  -5  17   21.89    0.74
   3  -5  17   21.77    0.84
   3  -5  17   21.57    0.67
  -4   5 -17   19.44    0.73
   4  -5  17   18.82    0.80
   4  -5  17   19.33    0.63
   4  -5  17   20.07    0.70
  -5   5 -17   15.53    0.64
   5  -5  17   17.04    0.62
   5  -5  17   16.42    0.56
   6  -5  17   14.98    0.54
   6  -5  17   15.75    0.61
   7  -5  17    1.39    0.15
   7  -5  17    1.67    0.19
   8  -5  17    0.08    0.09
   8  -5  17    0.06    0.11
   9  -5  17    6.58    0.34
   9  -5  17    6.19    0.38
  10  -5  17    0.08    0.11
  10  -5  17    0.25    0.13
  11  -5  17    0.92    0.16
  11  -5  17    1.43    0.23
  11  -5  17    1.13    0.19
  12  -5  17    2.39    0.28
  12  -5  17    2.50    0.27
 -11  -4  17    0.42    0.14
 -10  -4  17   19.05    0.77
  -9  -4  17    1.05    0.17
  -8  -4  17    0.45    0.13
  -7  -4  17    1.27    0.13
  -7  -4  17    1.25    0.17
  -6  -4  17    0.65    0.10
  -6  -4  17    0.43    0.11
  -5  -4  17   -0.08    0.07
   4   4 -17    2.46    0.11
  -4  -4  17    2.54    0.13
  -4  -4  17    2.26    0.21
   3   4 -17   13.42    0.50
   3   4 -17   13.27    0.44
  -3  -4  17   13.40    0.45
  -3  -4  17   13.02    0.55
   2   4 -17    0.18    0.08
   2   4 -17    0.12    0.06
  -2  -4  17    0.10    0.09
  -2  -4  17    0.20    0.07
   1   4 -17   59.99    1.91
  -1  -4  17   58.65    1.77
   0   4 -17    2.54    0.18
   0  -4  17    2.49    0.16
  -1   4 -17    3.23    0.21
   1  -4  17    3.78    0.20
  -2   4 -17    0.05    0.07
   2  -4  17    0.16    0.10
   2  -4  17    0.03    0.07
   2  -4  17    0.10    0.04
  -3   4 -17    1.57    0.16
   3  -4  17    1.26    0.14
   3  -4  17    1.47    0.10
   3  -4  17    1.56    0.19
  -4   4 -17   22.31    0.87
   4  -4  17   25.05    0.95
   4  -4  17   23.95    0.82
   4  -4  17   24.54    0.76
  -5   4 -17    7.08    0.36
   5  -4  17    6.38    0.28
   5  -4  17    6.51    0.33
  -6   4 -17    2.96    0.26
   6  -4  17    2.97    0.23
   6  -4  17    3.21    0.20
   7  -4  17   13.94    0.58
   7  -4  17   14.21    0.53
   8  -4  17    3.27    0.23
   8  -4  17    3.20    0.26
   9  -4  17    3.94    0.27
   9  -4  17    3.76    0.31
  10  -4  17    0.03    0.11
  10  -4  17   -0.11    0.13
  11  -4  17    0.04    0.11
  11  -4  17   -0.03    0.11
  12  -4  17    0.23    0.15
  12  -4  17    0.18    0.14
 -11  -3  17    3.80    0.31
 -10  -3  17    0.66    0.15
  -9  -3  17    1.01    0.17
   8   3 -17   14.66    0.55
  -8  -3  17   14.65    0.62
   7   3 -17    3.61    0.19
  -7  -3  17    3.75    0.20
  -7  -3  17    3.37    0.26
   6   3 -17    8.90    0.33
  -6  -3  17    9.14    0.43
   5   3 -17    0.42    0.06
  -5  -3  17    0.30    0.11
   4   3 -17    0.59    0.11
  -4  -3  17    0.66    0.07
  -4  -3  17    0.80    0.14
   3   3 -17    2.26    0.18
  -3  -3  17    2.22    0.12
  -3  -3  17    2.37    0.21
   2   3 -17    1.71    0.16
  -2  -3  17    1.62    0.18
  -2  -3  17    1.78    0.12
   1   3 -17    3.32    0.21
  -1  -3  17    2.91    0.17
   0   3 -17   45.41    1.50
   0  -3  17   44.54    1.37
  -1   3 -17   -0.04    0.07
   1  -3  17   -0.03    0.06
  -2   3 -17    1.57    0.17
   2  -3  17    1.15    0.13
   2  -3  17    1.21    0.09
   2  -3  17    1.11    0.08
  -3   3 -17   13.16    0.55
   3  -3  17   13.43    0.51
   3  -3  17   13.06    0.44
   3  -3  17   13.30    0.60
  -4   3 -17   15.48    0.65
   4  -3  17   16.57    0.54
   4  -3  17   16.58    0.61
   4  -3  17   16.76    0.74
  -5   3 -17    0.04    0.09
   5  -3  17    0.08    0.07
   5  -3  17    0.04    0.09
  -6   3 -17    2.96    0.25
   6  -3  17    2.77    0.23
   6  -3  17    2.91    0.20
   7  -3  17    4.53    0.30
   7  -3  17    4.80    0.27
   8  -3  17    0.64    0.13
   8  -3  17    0.53    0.15
   9  -3  17    0.38    0.14
   9  -3  17    0.18    0.11
  10  -3  17    6.68    0.39
  10  -3  17    7.59    0.44
  11  -3  17    0.63    0.19
  11  -3  17    0.37    0.15
 -12  -2  17   -0.14    0.11
 -11  -2  17   15.21    0.68
 -10  -2  17    2.03    0.24
  -9  -2  17    2.48    0.24
   8   2 -17   11.91    0.44
  -8  -2  17   11.86    0.54
   7   2 -17    2.64    0.16
  -7  -2  17    3.11    0.25
   6   2 -17    0.00    0.05
  -6  -2  17    0.03    0.08
   5   2 -17    0.55    0.06
  -5  -2  17    0.37    0.12
   4   2 -17   55.63    1.83
  -4  -2  17   54.00    1.59
  -4  -2  17   55.73    1.85
   3   2 -17    0.09    0.08
  -3  -2  17    0.05    0.09
  -3  -2  17    0.09    0.04
   2   2 -17   20.41    0.75
  -2  -2  17   19.89    0.77
  -2  -2  17   19.11    0.63
   1   2 -17    0.08    0.08
  -1  -2  17    0.02    0.05
   0   2 -17    0.95    0.14
   0  -2  17    1.22    0.12
  -1   2 -17    0.96    0.15
   1  -2  17    0.86    0.12
  -2   2 -17    6.17    0.34
   2  -2  17    6.37    0.24
   2  -2  17    6.08    0.22
   2  -2  17    6.16    0.29
  -3   2 -17   10.99    0.49
   3  -2  17   11.02    0.40
   3  -2  17   10.57    0.44
  -4   2 -17    1.26    0.17
   4  -2  17    1.21    0.16
  -5   2 -17   14.22    0.62
   5  -2  17   14.39    0.57
  -6   2 -17    2.28    0.24
   6  -2  17    2.76    0.23
  -7   2 -17    2.19    0.24
   7  -2  17    2.30    0.23
   8  -2  17    0.52    0.15
   9  -2  17    6.88    0.40
  10  -2  17    0.03    0.13
  11  -2  17    0.72    0.18
 -12  -1  17    2.96    0.30
 -11  -1  17    0.51    0.15
 -10  -1  17    1.29    0.20
  -9  -1  17    0.26    0.12
   8   1 -17   11.75    0.44
  -8  -1  17   11.98    0.55
   7   1 -17    2.29    0.14
  -7  -1  17    2.41    0.23
   6   1 -17    8.38    0.30
  -6  -1  17    8.48    0.43
   5   1 -17    3.33    0.14
  -5  -1  17    3.41    0.26
   4   1 -17    4.15    0.27
  -4  -1  17    3.85    0.15
  -4  -1  17    3.97    0.28
   3   1 -17    1.79    0.19
  -3  -1  17    2.12    0.22
  -3  -1  17    1.92    0.11
   2   1 -17   13.79    0.60
  -2  -1  17   14.58    0.48
  -2  -1  17   14.74    0.62
   1   1 -17    1.12    0.16
  -1  -1  17    1.50    0.12
   0   1 -17    9.91    0.47
   0  -1  17   10.16    0.39
  -1   1 -17    0.61    0.14
   1  -1  17    0.62    0.07
   1  -1  17    0.67    0.11
  -2   1 -17    4.25    0.29
   2  -1  17    4.99    0.26
  -3   1 -17    2.43    0.23
   3  -1  17    2.49    0.18
   3  -1  17    2.32    0.19
  -4   1 -17    0.00    0.09
   4  -1  17   -0.07    0.09
  -5   1 -17    0.89    0.16
   5  -1  17    0.84    0.15
  -6   1 -17   10.94    0.53
   6  -1  17   10.58    0.49
  -7   1 -17    0.26    0.13
   7  -1  17    0.34    0.14
   8  -1  17    4.45    0.33
   9  -1  17    0.51    0.16
  10  -1  17    0.16    0.14
 -13   0  17    2.71    0.30
 -12   0  17    5.21    0.39
 -11   0  17    3.21    0.30
 -10   0  17    0.04    0.12
   9   0 -17   13.68    0.50
  -9   0  17   13.64    0.62
   8   0 -17    1.77    0.15
  -8   0  17    1.83    0.21
   7   0 -17    1.24    0.11
  -7   0  17    1.18    0.17
   6   0 -17    0.47    0.07
  -6   0  17    0.41    0.13
   5   0 -17    3.28    0.14
  -5   0  17    2.79    0.25
  -4   0  17    0.51    0.14
  -4   0  17    0.42    0.06
   3   0 -17   14.52    0.62
  -3   0  17   14.31    0.47
  -3   0  17   14.19    0.62
   2   0 -17   72.45    2.41
  -2   0  17   73.67    2.42
  -2   0  17   72.89    2.15
   1   0 -17    7.32    0.40
  -1   0  17    7.57    0.31
   0   0 -17   10.31    0.49
   0   0  17    9.62    0.40
   0   0  17   10.56    0.34
  -1   0 -17   21.22    0.84
   1   0  17   21.81    0.74
  -2   0 -17    0.70    0.16
   2   0  17    0.79    0.10
   2   0  17    0.81    0.13
  -3   0 -17   -0.11    0.09
   3   0  17    0.04    0.08
  -4   0 -17    5.50    0.35
   4   0  17    4.79    0.30
  -5   0 -17   14.63    0.64
   5   0  17   13.93    0.59
  -6   0 -17    5.35    0.36
   6   0  17    5.44    0.33
  -7   0 -17    3.37    0.31
   7   0  17    3.59    0.28
   8   0  17    0.60    0.15
   9   0  17   10.39    0.53
  10   0  17    0.35    0.16
 -13   1  17   20.95    0.91
 -12   1  17    1.53    0.24
 -11   1  17   10.93    0.56
 -10   1  17    0.48    0.16
   9  -1 -17    1.46    0.15
  -9   1  17    1.09    0.19
   8  -1 -17    0.16    0.07
  -8   1  17    0.31    0.13
   7  -1 -17    0.26    0.07
  -7   1  17    0.33    0.13
   6  -1 -17   16.10    0.53
  -6   1  17   16.97    0.70
   5  -1 -17   27.28    0.85
  -5   1  17   28.78    0.83
  -5   1  17   28.22    1.06
   4  -1 -17   39.67    1.19
  -4   1  17   40.82    1.44
  -4   1  17   40.92    1.21
   3  -1 -17   10.64    0.52
  -3   1  17   11.54    0.53
  -3   1  17   10.84    0.39
   2  -1 -17    0.32    0.12
  -2   1  17    0.34    0.05
  -2   1  17    0.54    0.14
  -2   1  17    0.22    0.08
   1  -1 -17    7.45    0.41
  -1   1  17    7.13    0.31
  -1   1  17    6.88    0.25
   0  -1 -17    4.98    0.34
   0   1  17    5.30    0.27
  -1  -1 -17   24.33    0.98
   1   1  17   26.82    0.83
   1   1  17   25.88    0.87
  -2  -1 -17    4.68    0.33
   2   1  17    4.77    0.28
  -3  -1 -17   20.84    0.84
   3   1  17   19.85    0.75
  -4  -1 -17    7.46    0.42
   4   1  17    6.64    0.36
  -5  -1 -17    3.74    0.31
   5   1  17    4.07    0.30
  -6  -1 -17    0.17    0.13
   6   1  17    0.40    0.14
  -7  -1 -17    0.29    0.14
   7   1  17    0.46    0.16
   8   1  17   -0.06    0.12
   9   1  17    0.31    0.15
 -13   2  17    5.54    0.42
 -12   2  17    7.86    0.49
 -11   2  17    5.95    0.41
 -10   2  17    6.87    0.43
   9  -2 -17    0.07    0.08
  -9   2  17   -0.07    0.11
   8  -2 -17    0.53    0.10
  -8   2  17    0.55    0.15
   7  -2 -17   25.55    0.84
  -7   2  17   27.61    1.03
   6  -2 -17    1.62    0.13
  -6   2  17    2.06    0.24
   5  -2 -17    0.39    0.07
  -5   2  17    0.50    0.14
  -5   2  17    0.39    0.06
   4  -2 -17   21.28    0.66
  -4   2  17   21.02    0.68
  -4   2  17   20.45    0.84
   3  -2 -17    0.04    0.05
  -3   2  17   -0.01    0.04
  -3   2  17    0.06    0.06
  -3   2  17   -0.03    0.10
   2  -2 -17    6.33    0.39
  -2   2  17    6.78    0.30
   1  -2 -17   15.59    0.68
  -1   2  17   14.45    0.55
  -1   2  17   15.40    0.51
   0  -2 -17   28.09    1.07
   0   2  17   27.44    0.93
  -1  -2 -17    2.97    0.28
   1   2  17    2.80    0.22
  -2  -2 -17   19.10    0.81
   2   2  17   19.66    0.73
  -3  -2 -17    0.43    0.16
   3   2  17    0.43    0.13
  -4  -2 -17   11.44    0.57
   4   2  17   10.87    0.51
  -5  -2 -17    3.85    0.33
   5   2  17    4.30    0.31
  -6  -2 -17    4.14    0.34
   6   2  17    4.34    0.33
  -7  -2 -17   -0.05    0.12
   7   2  17   -0.03    0.11
  -8  -2 -17   -0.05    0.14
   8   2  17    0.01    0.14
 -13   3  17    0.04    0.15
 -12   3  17    1.28    0.22
 -11   3  17    0.20    0.14
  10  -3 -17    5.81    0.30
 -10   3  17    5.25    0.39
   9  -3 -17    2.53    0.19
  -9   3  17    2.35    0.27
   8  -3 -17    3.56    0.21
  -8   3  17    4.06    0.31
   7  -3 -17    0.67    0.10
  -7   3  17    0.47    0.15
   6  -3 -17    0.27    0.08
  -6   3  17    0.45    0.06
  -6   3  17    0.20    0.12
   5  -3 -17   55.28    1.67
  -5   3  17   56.47    1.93
   4  -3 -17    0.58    0.09
  -4   3  17    0.59    0.16
   3  -3 -17    0.56    0.09
  -3   3  17    0.47    0.15
   2  -3 -17    3.07    0.29
   1  -3 -17    8.10    0.46
   0  -3 -17    0.47    0.15
  -1  -3 -17    0.03    0.11
  -2  -3 -17    0.04    0.11
  -3  -3 -17    0.61    0.17
  -4  -3 -17   15.44    0.71
   4   3  17   14.94    0.65
  -5  -3 -17    0.07    0.12
   5   3  17   -0.11    0.12
  -6  -3 -17    4.68    0.37
   6   3  17    4.56    0.34
  -7  -3 -17    3.06    0.33
   7   3  17    3.30    0.33
  -8  -3 -17    2.26    0.32
 -13   4  17    1.34    0.24
 -12   4  17    6.94    0.46
 -11   4  17    0.07    0.13
  10  -4 -17    0.16    0.10
 -10   4  17    0.36    0.16
   9  -4 -17    0.40    0.11
  -9   4  17    0.63    0.17
   8  -4 -17    0.73    0.12
  -8   4  17    0.94    0.19
   7  -4 -17    7.68    0.34
  -7   4  17    8.35    0.47
   6  -4 -17   13.78    0.51
  -6   4  17   13.87    0.65
   5  -4 -17   13.77    0.49
  -5   4  17   12.75    0.62
   4  -4 -17    0.62    0.11
  -4   4  17    0.52    0.16
   3  -4 -17    1.52    0.15
  -3   4  17    1.49    0.23
   2  -4 -17    2.73    0.29
   2  -4 -17    2.58    0.19
   1  -4 -17    5.75    0.40
   0  -4 -17   13.25    0.65
  -1  -4 -17   -0.07    0.11
  -2  -4 -17    8.47    0.48
  -3  -4 -17    2.17    0.27
  -4  -4 -17   -0.09    0.12
  -5  -4 -17    4.29    0.37
   5   4  17    4.45    0.35
  -6  -4 -17    0.75    0.19
   6   4  17    0.82    0.21
  -7  -4 -17    4.24    0.38
   7   4  17    4.48    0.38
 -13   5  17    5.02    0.42
 -12   5  17    1.45    0.25
 -11   5  17    0.32    0.17
  10  -5 -17    2.84    0.23
 -10   5  17    2.86    0.31
   9  -5 -17    0.51    0.13
  -9   5  17    1.12    0.21
   8  -5 -17    0.56    0.12
  -8   5  17    0.63    0.18
   7  -5 -17    9.57    0.41
  -7   5  17    9.78    0.53
   6  -5 -17    1.16    0.15
  -6   5  17    1.38    0.22
   5  -5 -17    0.34    0.11
  -5   5  17    0.22    0.14
   4  -5 -17   59.78    1.84
  -4   5  17   60.20    2.08
   3  -5 -17   13.11    0.52
   2  -5 -17    2.80    0.31
   2  -5 -17    2.34    0.21
   1  -5 -17    0.18    0.15
   0  -5 -17    3.56    0.36
  -1  -5 -17    1.11    0.23
  -2  -5 -17    0.14    0.15
  -3  -5 -17   12.41    0.64
  -4  -5 -17    9.25    0.54
  -5  -5 -17   13.33    0.68
  -6  -5 -17    3.48    0.37
   6   5  17    3.66    0.36
 -13   6  17    5.99    0.47
 -12   6  17    3.61    0.38
 -11   6  17   12.87    0.67
  10  -6 -17    5.10    0.31
 -10   6  17    5.37    0.41
   9  -6 -17    7.44    0.37
  -9   6  17    7.52    0.48
   8  -6 -17    0.86    0.15
  -8   6  17    0.87    0.20
   7  -6 -17   13.11    0.54
  -7   6  17   13.93    0.67
   6  -6 -17    0.08    0.10
  -6   6  17    0.17    0.13
   5  -6 -17    2.43    0.22
  -5   6  17    2.28    0.27
   4  -6 -17   17.40    0.65
  -4   6  17   17.01    0.76
   3  -6 -17    0.12    0.10
   2  -6 -17    0.13    0.14
   2  -6 -17    0.33    0.12
   1  -6 -17   19.83    0.88
   0  -6 -17    0.61    0.17
  -1  -6 -17    0.31    0.15
  -2  -6 -17    0.05    0.14
  -3  -6 -17    1.51    0.25
  -4  -6 -17    5.63    0.44
  -5  -6 -17    0.07    0.16
  10  -7 -17    4.21    0.30
   9  -7 -17    4.19    0.29
   8  -7 -17    4.57    0.30
   7  -7 -17    1.16    0.18
   6  -7 -17    1.69    0.20
   5  -7 -17    9.55    0.45
   4  -7 -17    3.99    0.27
   3  -7 -17    0.22    0.12
   2  -7 -17    0.40    0.17
   2  -7 -17    0.17    0.11
   1  -7 -17    2.38    0.30
   0  -7 -17    0.05    0.14
  -1  -7 -17    4.12    0.38
  -2  -7 -17    3.12    0.35
  -3  -7 -17    7.48    0.51
  -4  -7 -17    1.34    0.26
  10  -8 -17    0.05    0.14
   9  -8 -17    0.05    0.11
   8  -8 -17    1.20    0.19
   7  -8 -17    0.26    0.13
   6  -8 -17    4.23    0.30
   5  -8 -17    0.48    0.14
   4  -8 -17    0.53    0.16
   3  -8 -17    0.55    0.16
   2  -8 -17    4.73    0.34
   2  -8 -17    4.50    0.40
   1  -8 -17    6.80    0.49
   0  -8 -17    0.44    0.20
  -1  -8 -17    9.47    0.58
  -2  -8 -17    3.10    0.37
   9  -9 -17    4.07    0.32
   8  -9 -17    0.51    0.16
   7  -9 -17    5.15    0.34
   6  -9 -17    0.24    0.13
   5  -9 -17    0.89    0.19
   4  -9 -17   15.88    0.68
   3  -9 -17   11.79    0.57
   3  -9 -17   11.55    0.67
   2  -9 -17    2.48    0.33
   1  -9 -17    0.33    0.19
   0  -9 -17    1.96    0.31
  -1  -9 -17    0.11    0.17
   9 -10 -17    0.07    0.16
   8 -10 -17    2.16    0.27
   7 -10 -17   15.23    0.67
   6 -10 -17    1.98    0.26
   5 -10 -17    0.03    0.15
   4 -10 -17    3.47    0.34
   3 -10 -17    1.51    0.30
   3 -10 -17    1.52    0.24
   2 -10 -17    5.41    0.48
   1 -10 -17   -0.08    0.16
   8 -11 -17    2.47    0.33
   7 -11 -17    1.73    0.26
   6 -11 -17    5.15    0.39
   5 -11 -17    0.65    0.20
   4 -11 -17    1.04    0.23
   4 -16  18    7.17    0.49
   4 -16  18    7.21    0.49
   5 -16  18    1.45    0.25
   5 -16  18    1.32    0.24
   6 -16  18    2.16    0.29
   6 -16  18    2.06    0.30
   7 -16  18    4.77    0.42
   1 -15  18    9.06    0.51
   1 -15  18    8.56    0.51
   2 -15  18    0.23    0.16
   2 -15  18   -0.10    0.14
   3 -15  18    1.33    0.23
   3 -15  18    0.96    0.22
   4 -15  18    1.58    0.25
   4 -15  18    1.73    0.26
   5 -15  18    0.81    0.20
   5 -15  18    1.07    0.24
   6 -15  18    1.20    0.22
   6 -15  18    1.17    0.22
   7 -15  18    1.03    0.23
   7 -15  18    1.18    0.24
   8 -15  18   -0.04    0.15
   8 -15  18    0.12    0.14
   8 -15  18   -0.04    0.07
   9 -15  18    4.65    0.39
   9 -15  18    5.05    0.41
   0 -14  18    2.55    0.29
   0 -14  18    1.87    0.26
   1 -14  18   -0.02    0.15
   1 -14  18    0.23    0.15
   2 -14  18    0.40    0.16
   2 -14  18    0.53    0.17
   3 -14  18    0.57    0.17
   3 -14  18    0.37    0.16
   4 -14  18    2.22    0.27
   4 -14  18    2.16    0.28
   5 -14  18    4.81    0.38
   5 -14  18    5.79    0.39
   6 -14  18    2.40    0.27
   6 -14  18    2.71    0.29
   7 -14  18   -0.01    0.09
   7 -14  18    0.08    0.14
   7 -14  18    0.06    0.15
   8 -14  18    0.07    0.12
   8 -14  18    0.12    0.15
   8 -14  18    0.35    0.17
   9 -14  18   -0.13    0.11
   9 -14  18    0.25    0.16
   9 -14  18    0.17    0.14
  10 -14  18    6.54    0.43
  10 -14  18    7.21    0.47
  11 -14  18    2.78    0.30
  11 -14  18    4.67    0.38
  -2 -13  18    2.59    0.28
  -1 -13  18    6.53    0.41
  -1 -13  18    6.55    0.42
   0 -13  18   10.78    0.55
   0 -13  18   11.89    0.56
   1 -13  18   10.48    0.54
   1 -13  18   11.66    0.55
   2 -13  18   11.96    0.58
   2 -13  18   12.57    0.58
   3 -13  18    6.26    0.38
   3 -13  18    6.08    0.38
   4 -13  18    0.16    0.14
   4 -13  18    0.05    0.09
   4 -13  18   -0.06    0.13
   5 -13  18    0.36    0.13
   5 -13  18    0.59    0.18
   5 -13  18    0.44    0.15
   6 -13  18    1.02    0.20
   6 -13  18    0.82    0.16
   6 -13  18    0.87    0.20
   7 -13  18   12.10    0.57
   7 -13  18   11.71    0.53
   7 -13  18   11.80    0.56
   8 -13  18    2.69    0.30
   8 -13  18    2.41    0.28
   8 -13  18    1.81    0.23
   9 -13  18   10.96    0.52
   9 -13  18   10.97    0.54
   9 -13  18   11.27    0.57
  10 -13  18    5.28    0.37
  10 -13  18    5.66    0.39
  10 -13  18    5.33    0.36
  11 -13  18   -0.16    0.13
  11 -13  18   -0.04    0.16
  11 -13  18    0.24    0.14
  -3 -12  18    1.39    0.20
  -2 -12  18    1.46    0.21
  -1 -12  18   -0.07    0.12
  -1 -12  18    0.10    0.12
   0 -12  18    0.03    0.11
   0 -12  18    0.23    0.13
   1 -12  18    4.60    0.33
   1 -12  18    4.50    0.33
   2 -12  18    3.15    0.29
   2 -12  18    3.58    0.29
   2 -12  18    2.11    0.22
   3 -12  18    0.62    0.14
   3 -12  18    0.60    0.15
   3 -12  18    0.49    0.15
   4 -12  18    5.97    0.37
   4 -12  18    6.33    0.38
   4 -12  18    5.52    0.32
   5 -12  18    9.84    0.50
   5 -12  18    9.80    0.50
   5 -12  18   10.18    0.45
   6 -12  18    5.32    0.32
   6 -12  18    5.84    0.37
   6 -12  18    5.71    0.36
   7 -12  18   -0.02    0.10
   7 -12  18   -0.07    0.10
   7 -12  18    0.14    0.14
   8 -12  18    0.20    0.13
   8 -12  18   -0.01    0.12
   8 -12  18   -0.05    0.10
   9 -12  18    0.29    0.14
   9 -12  18    0.27    0.16
   9 -12  18   -0.08    0.10
  10 -12  18    8.44    0.45
  10 -12  18    7.45    0.45
  10 -12  18    7.75    0.43
  11 -12  18   -0.10    0.13
  11 -12  18   -0.10    0.12
  11 -12  18    0.04    0.12
  12 -12  18    0.38    0.17
  12 -12  18    0.30    0.16
  -3 -11  18    0.90    0.17
  -2 -11  18    0.25    0.12
  -2 -11  18    0.00    0.10
  -1 -11  18    2.36    0.24
  -1 -11  18    2.93    0.27
   0 -11  18    2.30    0.23
   0 -11  18    2.14    0.23
   1 -11  18    0.49    0.14
   1 -11  18    0.46    0.12
   1 -11  18    0.49    0.13
   2 -11  18    5.56    0.35
   2 -11  18    5.74    0.30
   2 -11  18    5.55    0.34
   3 -11  18    0.39    0.13
   3 -11  18    0.38    0.14
   3 -11  18    0.43    0.12
   4 -11  18    0.56    0.12
   4 -11  18    0.45    0.13
   4 -11  18    0.21    0.11
   5 -11  18    2.34    0.24
   5 -11  18    2.84    0.27
   5 -11  18    2.75    0.22
   6 -11  18   20.25    0.78
   6 -11  18   19.73    0.77
   6 -11  18   19.54    0.72
   7 -11  18    3.99    0.31
   7 -11  18    4.52    0.28
   7 -11  18    3.94    0.30
   8 -11  18    1.91    0.24
   8 -11  18    2.18    0.22
   8 -11  18    2.35    0.25
   9 -11  18    5.90    0.34
   9 -11  18    5.44    0.35
   9 -11  18    5.20    0.36
  10 -11  18    2.43    0.27
  10 -11  18    2.19    0.24
  10 -11  18    1.94    0.25
  11 -11  18    0.34    0.14
  11 -11  18    0.58    0.19
  11 -11  18    0.50    0.15
  12 -11  18    2.84    0.29
  12 -11  18    1.91    0.24
  12 -11  18    2.27    0.29
  -6 -10  18   -0.02    0.06
  -4 -10  18   -0.04    0.10
  -3 -10  18    7.35    0.38
  -2 -10  18    0.06    0.09
  -2 -10  18    0.09    0.10
  -1 -10  18    0.38    0.13
  -1 -10  18    0.19    0.11
   0 -10  18    5.24    0.31
   0 -10  18    5.16    0.31
   1 -10  18    1.13    0.14
   1 -10  18    0.75    0.15
   1 -10  18    1.02    0.17
   2 -10  18    4.23    0.28
   2 -10  18    3.80    0.23
   2 -10  18    3.97    0.27
   3 -10  18    4.68    0.26
   3 -10  18    4.99    0.30
   3 -10  18    4.60    0.29
   4 -10  18    3.38    0.26
   4 -10  18    3.12    0.21
   4 -10  18    3.11    0.25
   5 -10  18    2.68    0.23
   5 -10  18    2.65    0.20
   5 -10  18    2.64    0.23
   6 -10  18    0.26    0.10
   6 -10  18    0.14    0.12
   6 -10  18    0.22    0.12
   7 -10  18   -0.04    0.09
   7 -10  18   -0.01    0.11
   7 -10  18   -0.02    0.11
   8 -10  18    1.17    0.19
   8 -10  18    1.23    0.17
   8 -10  18    1.07    0.18
   9 -10  18    2.69    0.26
   9 -10  18    3.11    0.30
   9 -10  18    3.09    0.24
  10 -10  18    0.56    0.15
  10 -10  18    0.79    0.18
  10 -10  18    0.77    0.17
  11 -10  18    2.77    0.29
  11 -10  18    3.34    0.29
  11 -10  18    3.52    0.29
  12 -10  18    3.07    0.29
  12 -10  18    2.55    0.30
  12 -10  18    2.94    0.29
  -7  -9  18    5.15    0.27
  -6  -9  18    0.67    0.11
  -5  -9  18    5.62    0.27
  -4  -9  18    0.34    0.11
  -3  -9  18    1.00    0.15
  -3  -9  18    0.74    0.13
  -2  -9  18    3.57    0.25
  -2  -9  18    3.41    0.24
  -1  -9  18    2.03    0.20
  -1  -9  18    2.04    0.20
   0  -9  18    2.49    0.23
   0  -9  18    2.69    0.21
   1  -9  18   10.50    0.46
   1  -9  18   10.58    0.41
   1  -9  18   10.84    0.46
   1  -9  18   11.09    0.48
   2  -9  18    3.87    0.25
   2  -9  18    3.56    0.26
   2  -9  18    3.81    0.28
   2  -9  18    3.56    0.21
   3  -9  18   13.73    0.58
   3  -9  18   14.99    0.58
   3  -9  18   14.89    0.53
   4  -9  18    0.02    0.07
   4  -9  18   -0.02    0.08
   4  -9  18    0.21    0.10
   5  -9  18    3.24    0.26
   5  -9  18    3.52    0.21
   5  -9  18    3.63    0.27
   6  -9  18    2.01    0.17
   6  -9  18    1.88    0.21
   6  -9  18    2.34    0.23
   7  -9  18   14.02    0.59
   7  -9  18   13.94    0.58
   7  -9  18   14.14    0.54
   8  -9  18    5.28    0.33
   8  -9  18    5.04    0.33
   8  -9  18    5.35    0.29
   9  -9  18    2.52    0.24
   9  -9  18    1.99    0.24
   9  -9  18    2.73    0.24
  10  -9  18   -0.17    0.09
  10  -9  18    0.04    0.13
  10  -9  18    0.08    0.11
  11  -9  18    1.67    0.22
  11  -9  18    1.89    0.26
  11  -9  18    1.66    0.22
  12  -9  18    0.51    0.17
  12  -9  18    0.43    0.15
  12  -9  18    0.46    0.15
  -8  -8  18   14.01    0.57
  -7  -8  18    7.31    0.35
  -6  -8  18    9.12    0.40
  -5  -8  18    0.66    0.11
  -5  -8  18    0.80    0.13
  -4  -8  18    7.57    0.36
  -4  -8  18    7.64    0.34
  -3  -8  18    2.04    0.18
  -3  -8  18    1.81    0.19
  -2  -8  18    4.37    0.26
  -2  -8  18    3.75    0.23
  -1  -8  18    0.99    0.14
  -1  -8  18    1.06    0.15
   0  -8  18    6.70    0.34
   0  -8  18    5.91    0.31
   1  -8  18    3.58    0.24
   1  -8  18    3.27    0.23
   1  -8  18    3.18    0.17
   2  -8  18   13.90    0.48
   2  -8  18   13.62    0.58
   2  -8  18   13.85    0.54
   2  -8  18   13.91    0.55
   3  -8  18    5.12    0.29
   3  -8  18    4.79    0.23
   3  -8  18    4.79    0.27
   4  -8  18   20.69    0.74
   4  -8  18   19.17    0.72
   4  -8  18   19.61    0.66
   5  -8  18    0.09    0.10
   5  -8  18    0.03    0.07
   5  -8  18   -0.11    0.09
   6  -8  18   18.43    0.72
   6  -8  18   19.74    0.67
   6  -8  18   19.95    0.73
   7  -8  18   11.96    0.55
   7  -8  18   13.37    0.54
   7  -8  18   12.65    0.49
   8  -8  18    4.88    0.28
   8  -8  18    4.64    0.30
   8  -8  18    4.46    0.31
   9  -8  18    6.10    0.37
   9  -8  18    6.23    0.33
   9  -8  18    5.56    0.34
  10  -8  18    7.88    0.42
  10  -8  18    8.35    0.45
  10  -8  18    8.07    0.41
  11  -8  18    4.34    0.35
  11  -8  18    4.41    0.31
  11  -8  18    4.63    0.32
  12  -8  18    5.10    0.35
  12  -8  18    5.31    0.39
  12  -8  18    5.23    0.34
  -9  -7  18    1.27    0.17
  -8  -7  18    0.54    0.12
  -7  -7  18    0.20    0.09
  -6  -7  18    2.84    0.21
  -5  -7  18    0.04    0.07
  -5  -7  18    0.09    0.08
  -4  -7  18    5.82    0.30
  -4  -7  18    5.53    0.29
  -3  -7  18    0.37    0.09
  -3  -7  18    0.26    0.09
  -3  -7  18    0.25    0.09
  -2  -7  18    6.96    0.32
  -2  -7  18    7.56    0.35
  -1  -7  18    2.31    0.19
  -1  -7  18    2.49    0.18
   0  -7  18    3.69    0.25
   0  -7  18    3.73    0.22
   1  -7  18   10.43    0.43
   1  -7  18   10.71    0.36
   1  -7  18   10.96    0.46
   2  -7  18    0.02    0.08
   2  -7  18   -0.11    0.04
   2  -7  18    0.06    0.08
   2  -7  18   -0.06    0.08
   3  -7  18    7.78    0.29
   3  -7  18    7.60    0.36
   3  -7  18    7.54    0.37
   4  -7  18    3.81    0.25
   4  -7  18    3.86    0.19
   4  -7  18    3.68    0.25
   5  -7  18    0.72    0.14
   5  -7  18    0.90    0.11
   5  -7  18    0.81    0.15
   6  -7  18   10.30    0.47
   6  -7  18   10.52    0.47
   6  -7  18   10.93    0.42
   7  -7  18   14.05    0.52
   7  -7  18   13.45    0.57
   7  -7  18   13.75    0.57
   8  -7  18    0.36    0.15
   8  -7  18    0.28    0.11
   8  -7  18    0.24    0.12
   9  -7  18    3.10    0.24
   9  -7  18    2.82    0.25
   9  -7  18    3.20    0.27
  10  -7  18    1.05    0.17
  10  -7  18    0.80    0.16
  10  -7  18    0.85    0.18
  11  -7  18    0.27    0.16
  11  -7  18    0.09    0.12
  11  -7  18    0.19    0.12
  12  -7  18    6.39    0.39
  12  -7  18    6.23    0.41
  12  -7  18    6.33    0.37
  -9  -6  18    0.89    0.15
  -8  -6  18    0.16    0.10
  -7  -6  18    1.97    0.20
  -6  -6  18    1.95    0.16
  -6  -6  18    2.22    0.20
  -5  -6  18    0.03    0.08
  -5  -6  18   -0.10    0.06
  -4  -6  18    1.24    0.14
  -4  -6  18    1.17    0.15
  -3  -6  18    5.90    0.30
  -3  -6  18    6.37    0.32
  -3  -6  18    6.00    0.27
  -2  -6  18    1.08    0.14
  -2  -6  18    1.09    0.12
  -1  -6  18    5.47    0.29
  -1  -6  18    6.08    0.27
   0   6 -18   19.24    0.66
   0  -6  18   18.74    0.66
   1  -6  18    0.14    0.09
   2  -6  18   17.45    0.63
   2  -6  18   17.90    0.55
   2  -6  18   17.61    0.72
   3  -6  18    0.83    0.14
   3  -6  18    0.95    0.09
   4  -6  18   34.27    1.13
   4  -6  18   34.59    1.05
   5  -6  18   14.45    0.56
   5  -6  18   13.53    0.49
   6  -6  18    3.01    0.25
   6  -6  18    2.61    0.19
   7  -6  18    0.61    0.14
   7  -6  18    0.88    0.13
   8  -6  18    9.46    0.41
   8  -6  18    9.87    0.46
   9  -6  18    0.01    0.11
   9  -6  18    0.03    0.10
   9  -6  18    0.11    0.10
  10  -6  18    1.96    0.22
  10  -6  18    1.72    0.21
  10  -6  18    1.99    0.24
  11  -6  18    4.44    0.34
  11  -6  18    5.11    0.33
  11  -6  18    4.31    0.30
  12  -6  18    0.33    0.15
  12  -6  18    0.24    0.16
 -10  -5  18    0.83    0.16
  -9  -5  18    0.02    0.10
  -8  -5  18    2.26    0.23
  -7  -5  18    0.06    0.09
  -6  -5  18    4.00    0.22
  -6  -5  18    4.20    0.27
  -5  -5  18    1.74    0.18
  -5  -5  18    1.99    0.17
  -4  -5  18    3.54    0.18
  -4  -5  18    3.57    0.22
  -4  -5  18    3.73    0.25
  -3  -5  18    1.86    0.19
  -3  -5  18    1.86    0.13
  -2  -5  18    2.35    0.15
   1   5 -18   99.33    3.01
  -1  -5  18   92.25    2.81
   0   5 -18   19.51    0.69
   0  -5  18   19.10    0.65
  -1   5 -18   44.58    1.48
   1  -5  18   45.11    1.39
  -2   5 -18   10.60    0.44
   2  -5  18   10.35    0.49
   2  -5  18   10.21    0.32
   2  -5  18   10.33    0.42
   3  -5  18    0.08    0.09
   3  -5  18    0.07    0.05
   4  -5  18   17.34    0.57
   4  -5  18   17.69    0.64
   5  -5  18    0.05    0.06
   5  -5  18   -0.01    0.09
   6  -5  18    0.09    0.10
   6  -5  18    0.27    0.09
   7  -5  18    0.36    0.12
   7  -5  18    0.42    0.10
   8  -5  18    0.54    0.15
   8  -5  18    0.70    0.13
   9  -5  18    2.64    0.22
   9  -5  18    2.25    0.25
  10  -5  18    9.42    0.48
  10  -5  18    9.09    0.44
  11  -5  18    3.53    0.31
  11  -5  18    3.15    0.29
  11  -5  18    3.13    0.27
 -11  -4  18    1.23    0.20
 -10  -4  18   19.93    0.81
  -9  -4  18    0.02    0.10
  -8  -4  18    2.63    0.24
  -7  -4  18    0.02    0.09
  -7  -4  18    0.03    0.07
  -6  -4  18    2.45    0.17
  -6  -4  18    1.77    0.20
  -5  -4  18    3.42    0.25
  -4  -4  18    0.57    0.13
  -4  -4  18    0.32    0.06
  -3  -4  18    4.60    0.29
  -3  -4  18    4.74    0.20
   2   4 -18   27.32    0.94
  -2  -4  18   26.54    0.98
  -2  -4  18   27.36    0.85
   1   4 -18    0.35    0.09
  -1  -4  18    0.20    0.08
   0   4 -18   89.55    2.85
   0  -4  18   89.46    2.64
  -1   4 -18    0.06    0.08
   1  -4  18    0.13    0.08
  -2   4 -18   28.08    0.96
   2  -4  18   27.96    0.89
   2  -4  18   25.99    0.79
   2  -4  18   26.32    0.79
  -3   4 -18   14.78    0.59
   3  -4  18   15.05    0.47
   3  -4  18   13.80    0.54
  -4   4 -18    5.50    0.34
   4  -4  18    5.54    0.30
   4  -4  18    5.13    0.23
   5  -4  18    8.80    0.35
   5  -4  18    9.08    0.41
   6  -4  18    2.52    0.24
   6  -4  18    2.09    0.17
   7  -4  18   10.15    0.46
   7  -4  18    9.38    0.41
   8  -4  18    2.30    0.25
   8  -4  18    2.19    0.19
   9  -4  18    0.95    0.18
   9  -4  18    1.33    0.17
  10  -4  18   19.53    0.79
  10  -4  18   19.41    0.75
  11  -4  18    1.83    0.26
  11  -4  18    2.37    0.25
 -11  -3  18    0.79    0.17
 -10  -3  18    1.63    0.22
  -9  -3  18    5.04    0.33
  -8  -3  18    0.15    0.11
  -7  -3  18   20.46    0.80
  -6  -3  18    1.27    0.17
  -5  -3  18    2.71    0.23
  -4  -3  18    2.71    0.23
  -4  -3  18    2.75    0.13
  -3  -3  18    9.71    0.34
  -3  -3  18    9.70    0.46
   2   3 -18    1.04    0.14
  -2  -3  18    0.90    0.15
  -2  -3  18    1.06    0.10
   1   3 -18    5.73    0.31
  -1  -3  18    5.73    0.25
   0   3 -18    3.41    0.23
   0  -3  18    3.25    0.19
  -1   3 -18    6.62    0.34
   1  -3  18    6.93    0.30
  -2   3 -18   -0.11    0.07
   2  -3  18   -0.03    0.03
   2  -3  18   -0.04    0.03
   2  -3  18   -0.22    0.06
  -3   3 -18    0.21    0.10
   3  -3  18    0.29    0.06
   3  -3  18    0.20    0.08
  -4   3 -18    0.07    0.09
   4  -3  18    0.09    0.06
   4  -3  18    0.11    0.08
  -5   3 -18   31.11    1.18
   5  -3  18   30.85    1.05
   5  -3  18   31.69    0.99
   6  -3  18   13.72    0.56
   6  -3  18   12.64    0.49
   7  -3  18   18.16    0.72
   7  -3  18   19.24    0.68
   8  -3  18    1.01    0.18
   8  -3  18    1.06    0.15
   9  -3  18    6.17    0.38
   9  -3  18    6.11    0.34
  10  -3  18   -0.14    0.13
  10  -3  18    0.12    0.12
  11  -3  18    1.38    0.24
  11  -3  18    1.62    0.23
 -12  -2  18    0.88    0.19
 -11  -2  18    0.89    0.18
 -10  -2  18    3.08    0.29
  -9  -2  18    2.92    0.27
  -8  -2  18    0.55    0.14
  -7  -2  18    2.73    0.25
  -6  -2  18    7.07    0.39
  -5  -2  18    4.60    0.30
  -4  -2  18   47.44    1.41
  -4  -2  18   49.37    1.66
   3   2 -18   37.69    1.33
  -3  -2  18   38.14    1.15
  -3  -2  18   39.18    1.35
   2   2 -18    2.07    0.20
  -2  -2  18    2.11    0.13
  -2  -2  18    1.86    0.21
   1   2 -18   43.47    1.46
  -1  -2  18   42.12    1.30
   0   2 -18    0.07    0.09
   0  -2  18    0.12    0.07
  -1   2 -18    2.03    0.21
   1  -2  18    1.75    0.16
  -2   2 -18    9.04    0.44
   2  -2  18    9.58    0.31
   2  -2  18    8.81    0.38
  -3   2 -18    2.73    0.24
   3  -2  18    3.07    0.21
   3  -2  18    2.75    0.15
  -4   2 -18    0.92    0.16
   4  -2  18    0.88    0.14
  -5   2 -18    0.37    0.12
   5  -2  18    0.39    0.14
   6  -2  18   12.97    0.56
   7  -2  18   -0.04    0.11
   8  -2  18    3.27    0.30
   9  -2  18    1.90    0.25
  10  -2  18   -0.01    0.14
 -12  -1  18    0.95    0.20
 -11  -1  18    2.15    0.26
 -10  -1  18    1.71    0.23
  -9  -1  18    1.36    0.20
  -8  -1  18    0.41    0.13
  -7  -1  18    7.23    0.40
  -6  -1  18    1.27    0.18
  -5  -1  18    4.55    0.30
  -4  -1  18    0.95    0.16
  -4  -1  18    1.01    0.08
   3   1 -18   15.23    0.64
  -3  -1  18   15.35    0.66
  -3  -1  18   15.91    0.51
   2   1 -18   12.99    0.58
  -2  -1  18   13.88    0.60
  -2  -1  18   13.55    0.46
   1   1 -18    0.06    0.10
  -1  -1  18    0.04    0.06
   0   1 -18   42.46    1.48
   0  -1  18   42.68    1.32
  -1   1 -18   19.26    0.79
   1  -1  18   20.30    0.70
   1  -1  18   20.69    0.63
  -2   1 -18    1.98    0.22
   2  -1  18    2.32    0.19
  -3   1 -18    5.13    0.33
   3  -1  18    5.29    0.29
  -4   1 -18    0.24    0.12
   4  -1  18    0.11    0.10
  -5   1 -18    1.88    0.23
   5  -1  18    2.02    0.22
  -6   1 -18    0.03    0.12
   6  -1  18    0.11    0.11
   7  -1  18    0.34    0.13
   8  -1  18    1.21    0.20
   9  -1  18    1.43    0.23
  10  -1  18    0.40    0.16
 -12   0  18    1.32    0.23
 -11   0  18    0.40    0.15
 -10   0  18   14.06    0.65
  -9   0  18    0.93    0.18
  -8   0  18    2.86    0.27
  -7   0  18    0.89    0.17
  -6   0  18    0.78    0.15
  -5   0  18    1.36    0.19
  -4   0  18   68.97    2.01
  -4   0  18   69.10    2.31
   3   0 -18   61.47    2.03
  -3   0  18   60.39    1.78
  -3   0  18   58.51    2.03
   2   0 -18   29.94    1.10
  -2   0  18   28.81    0.93
  -2   0  18   30.07    1.11
   1   0 -18    0.55    0.13
  -1   0  18    0.84    0.11
   0   0 -18   19.65    0.80
   0   0  18   19.89    0.68
  -1   0 -18   -0.08    0.09
   1   0  18    0.07    0.07
  -2   0 -18    3.61    0.29
   2   0  18    3.81    0.24
  -3   0 -18   23.01    0.92
   3   0  18   23.82    0.84
  -4   0 -18    6.16    0.38
   4   0  18    5.61    0.33
  -5   0 -18    1.44    0.21
   5   0  18    1.28    0.18
  -6   0 -18    0.23    0.12
   6   0  18    0.35    0.13
   7   0  18    4.22    0.31
   8   0  18    1.00    0.20
   9   0  18    0.79    0.20
 -13   1  18    0.10    0.14
 -12   1  18    0.02    0.14
 -11   1  18    0.31    0.15
 -10   1  18    0.79    0.18
  -9   1  18    0.98    0.19
  -8   1  18   15.54    0.69
  -7   1  18    1.20    0.19
  -6   1  18    2.89    0.26
   5  -1 -18    1.62    0.10
  -5   1  18    1.60    0.09
  -5   1  18    1.46    0.20
   4  -1 -18    9.33    0.31
  -4   1  18    9.73    0.34
  -4   1  18   10.06    0.50
   3  -1 -18   31.29    1.12
  -3   1  18   28.52    1.10
  -3   1  18   28.61    0.92
   2  -1 -18    9.85    0.50
  -2   1  18   10.03    0.39
   1  -1 -18   94.33    3.09
  -1   1  18   94.37    2.79
   0  -1 -18    3.17    0.28
   0   1  18    3.38    0.22
  -1  -1 -18   19.39    0.81
   1   1  18   19.58    0.70
  -2  -1 -18    0.11    0.11
   2   1  18    0.00    0.09
  -3  -1 -18    1.29    0.21
   3   1  18    1.22    0.18
  -4  -1 -18    3.67    0.32
   4   1  18    4.57    0.31
  -5  -1 -18    3.92    0.33
   5   1  18    3.88    0.30
  -6  -1 -18    0.15    0.14
   6   1  18    0.20    0.13
   7   1  18    0.09    0.14
   8   1  18    0.00    0.14
 -13   2  18    4.23    0.39
 -12   2  18    2.37    0.29
 -11   2  18    0.13    0.14
 -10   2  18    0.66    0.18
  -9   2  18    0.13    0.14
  -8   2  18   -0.02    0.11
  -7   2  18   -0.06    0.09
   6  -2 -18    0.29    0.07
  -6   2  18    0.20    0.13
   5  -2 -18    1.39    0.12
  -5   2  18    1.88    0.23
  -5   2  18    1.58    0.11
   4  -2 -18    0.53    0.08
  -4   2  18    0.57    0.09
  -4   2  18    0.57    0.16
   3  -2 -18    0.91    0.19
  -3   2  18    1.06    0.19
  -3   2  18    1.09    0.12
   2  -2 -18    1.25    0.20
  -2   2  18    1.07    0.13
   1  -2 -18    0.27    0.14
  -1   2  18    0.11    0.08
   0  -2 -18   14.74    0.69
   0   2  18   16.45    0.60
  -1  -2 -18    0.03    0.11
   1   2  18    0.13    0.10
  -2  -2 -18    1.95    0.26
   2   2  18    2.39    0.23
  -3  -2 -18    3.18    0.29
   3   2  18    3.58    0.27
  -4  -2 -18    6.24    0.41
   4   2  18    6.77    0.38
  -5  -2 -18    7.36    0.46
   5   2  18    7.44    0.41
  -6  -2 -18    0.88    0.20
   6   2  18    0.61    0.17
   7   2  18    0.82    0.19
   8   2  18    0.92    0.21
 -13   3  18    1.29    0.24
 -12   3  18    2.97    0.33
 -11   3  18    4.03    0.36
 -10   3  18   -0.02    0.12
  -9   3  18    6.75    0.43
  -8   3  18    2.95    0.30
  -7   3  18    1.36    0.20
   6  -3 -18    1.56    0.14
  -6   3  18    1.82    0.24
   5  -3 -18    1.07    0.12
  -5   3  18    0.92    0.18
  -5   3  18    0.98    0.10
   4  -3 -18    1.54    0.13
  -4   3  18    1.19    0.20
   3  -3 -18    5.12    0.37
   3  -3 -18    5.04    0.24
  -3   3  18    5.18    0.35
   2  -3 -18   -0.09    0.11
   1  -3 -18    0.23    0.13
   0  -3 -18    3.28    0.31
  -1  -3 -18    1.70    0.23
  -2  -3 -18    0.06    0.13
  -3  -3 -18    0.22    0.15
   3   3  18    0.23    0.14
  -4  -3 -18    2.62    0.30
   4   3  18    2.89    0.28
  -5  -3 -18   -0.01    0.13
   5   3  18    0.00    0.13
  -6  -3 -18    1.83    0.26
   6   3  18    1.97    0.26
   7   3  18   11.02    0.57
 -13   4  18   -0.08    0.14
 -12   4  18   22.48    0.98
 -11   4  18    0.98    0.21
 -10   4  18    9.39    0.54
  -9   4  18    2.38    0.29
  -8   4  18    0.42    0.15
   7  -4 -18    5.03    0.26
  -7   4  18    4.85    0.37
   6  -4 -18    2.32    0.18
  -6   4  18    2.16    0.25
   5  -4 -18    2.15    0.17
  -5   4  18    1.91    0.26
   4  -4 -18    9.72    0.40
  -4   4  18   10.56    0.54
   3  -4 -18    1.91    0.25
   3  -4 -18    2.27    0.18
   2  -4 -18    1.63    0.24
   1  -4 -18    0.00    0.13
   0  -4 -18    2.04    0.28
  -1  -4 -18   13.41    0.66
  -2  -4 -18    7.78    0.48
  -3  -4 -18    0.41    0.17
  -4  -4 -18    3.14    0.33
   4   4  18    3.42    0.29
  -5  -4 -18    1.75    0.26
   5   4  18    1.70    0.26
  -6  -4 -18    0.16    0.16
   6   4  18   -0.02    0.13
 -13   5  18    0.39    0.19
 -12   5  18    0.25    0.17
 -11   5  18    4.73    0.40
 -10   5  18    1.07    0.21
  -9   5  18    9.49    0.54
  -8   5  18    5.14    0.39
   7  -5 -18   17.91    0.66
  -7   5  18   19.19    0.83
   6  -5 -18   19.10    0.69
  -6   5  18   19.77    0.85
   5  -5 -18    4.68    0.27
  -5   5  18    5.71    0.39
   4  -5 -18    6.69    0.32
  -4   5  18    6.42    0.43
   3  -5 -18    7.82    0.36
   3  -5 -18    7.56    0.47
   2  -5 -18    7.58    0.48
   1  -5 -18    0.00    0.13
   0  -5 -18   21.13    0.92
  -1  -5 -18    5.40    0.41
  -2  -5 -18    4.46    0.38
  -3  -5 -18    0.43    0.18
  -4  -5 -18    0.84    0.21
  -5  -5 -18   10.16    0.59
   5   5  18    9.80    0.55
 -12   6  18    0.63    0.21
 -11   6  18    2.46    0.31
 -10   6  18    3.60    0.38
  -9   6  18    0.31    0.17
  -8   6  18   -0.03    0.13
   7  -6 -18    3.53    0.26
  -7   6  18    3.43    0.35
   6  -6 -18   15.02    0.60
  -6   6  18   16.41    0.75
   5  -6 -18   12.23    0.51
  -5   6  18   12.61    0.64
   4  -6 -18   39.55    1.29
   3  -6 -18    0.40    0.12
   3  -6 -18    0.73    0.20
   2  -6 -18    0.59    0.19
   1  -6 -18    2.65    0.31
   0  -6 -18    0.20    0.16
  -1  -6 -18    0.97    0.23
  -2  -6 -18    6.46    0.47
  -3  -6 -18    0.63    0.21
  -4  -6 -18    1.17    0.24
   7  -7 -18    2.51    0.27
   6  -7 -18    0.13    0.11
   5  -7 -18    0.31    0.12
   4  -7 -18    0.06    0.11
   3  -7 -18    3.47    0.38
   3  -7 -18    3.51    0.27
   2  -7 -18   -0.08    0.15
   1  -7 -18    2.72    0.32
   0  -7 -18    4.68    0.41
  -1  -7 -18    0.56    0.20
  -2  -7 -18   -0.04    0.16
  -3  -7 -18    2.81    0.35
   6  -8 -18    0.68    0.15
   5  -8 -18    0.15    0.12
   4  -8 -18    2.92    0.28
   3  -8 -18    2.69    0.34
   3  -8 -18    2.88    0.28
   2  -8 -18    1.53    0.27
   1  -8 -18    4.93    0.44
   0  -8 -18    2.48    0.33
  -1  -8 -18    0.47    0.20
   5  -9 -18    7.11    0.42
   4  -9 -18    4.10    0.32
   3  -9 -18    0.50    0.17
   3  -9 -18    0.18    0.18
   2  -9 -18   14.54    0.78
   1  -9 -18    5.31    0.47
   0  -9 -18    3.68    0.40
   4 -10 -18    0.12    0.18
   4 -10 -18    0.15    0.16
   3 -10 -18    3.00    0.38
   3 -10 -18    2.92    0.32
   1 -15  19    0.10    0.16
   2 -15  19    0.87    0.22
   2 -15  19    1.01    0.23
   3 -15  19    0.99    0.22
   3 -15  19    0.93    0.20
   4 -15  19    1.90    0.29
   4 -15  19    1.69    0.27
   5 -15  19    0.31    0.16
   5 -15  19    0.13    0.17
   6 -15  19    3.87    0.38
   6 -15  19    4.55    0.36
   7 -15  19    4.64    0.37
   7 -15  19    4.75    0.37
   8 -15  19    0.44    0.18
   8 -15  19    0.76    0.19
   9 -15  19    0.17    0.16
  -1 -14  19    0.44    0.17
   0 -14  19    1.44    0.23
   0 -14  19    1.27    0.23
   1 -14  19    1.32    0.22
   1 -14  19    1.23    0.22
   2 -14  19    0.28    0.17
   2 -14  19    0.17    0.15
   3 -14  19    0.76    0.19
   3 -14  19    0.50    0.16
   4 -14  19    4.59    0.37
   4 -14  19    4.91    0.35
   5 -14  19    2.37    0.29
   5 -14  19    2.21    0.27
   6 -14  19   -0.09    0.11
   6 -14  19   -0.20    0.13
   7 -14  19    2.86    0.31
   7 -14  19    2.21    0.27
   8 -14  19    1.08    0.22
   8 -14  19    1.23    0.22
   9 -14  19   -0.15    0.14
   9 -14  19    0.01    0.13
  10 -14  19    1.98    0.29
  10 -14  19    2.20    0.29
  -2 -13  19    2.77    0.29
  -1 -13  19   13.33    0.61
   0 -13  19    8.56    0.47
   0 -13  19    8.92    0.49
   1 -13  19   -0.07    0.13
   1 -13  19   -0.16    0.11
   2 -13  19    0.63    0.18
   2 -13  19    0.76    0.18
   3 -13  19    5.23    0.37
   3 -13  19    5.05    0.35
   4 -13  19    1.93    0.25
   4 -13  19    2.94    0.29
   5 -13  19    9.14    0.50
   5 -13  19    9.58    0.50
   6 -13  19    0.06    0.12
   6 -13  19    0.17    0.15
   7 -13  19    2.77    0.29
   7 -13  19    2.88    0.31
   8 -13  19    0.56    0.16
   8 -13  19    0.23    0.14
   9 -13  19    0.06    0.14
   9 -13  19    0.21    0.16
  10 -13  19    5.77    0.40
  10 -13  19    5.81    0.42
  11 -13  19    0.06    0.14
  -3 -12  19    2.07    0.25
  -2 -12  19    0.07    0.11
  -1 -12  19   25.02    0.94
  -1 -12  19   25.67    0.95
   0 -12  19    1.67    0.23
   0 -12  19    1.96    0.24
   1 -12  19   -0.02    0.10
   1 -12  19    0.05    0.11
   2 -12  19    6.33    0.39
   2 -12  19    6.95    0.39
   3 -12  19    2.00    0.24
   3 -12  19    2.22    0.24
   4 -12  19    5.12    0.35
   4 -12  19    5.14    0.35
   5 -12  19   10.56    0.52
   5 -12  19   10.20    0.51
   6 -12  19    0.04    0.12
   6 -12  19    0.01    0.13
   7 -12  19    4.87    0.34
   7 -12  19    4.86    0.36
   8 -12  19    3.44    0.33
   8 -12  19    3.50    0.31
   9 -12  19    4.31    0.33
   9 -12  19    4.61    0.36
  10 -12  19    1.84    0.26
  10 -12  19    2.52    0.29
  11 -12  19    0.30    0.16
  11 -12  19    0.56    0.18
  -3 -11  19    6.02    0.36
  -2 -11  19   -0.04    0.10
  -1 -11  19    1.15    0.18
  -1 -11  19    1.17    0.18
   0 -11  19    9.41    0.47
   0 -11  19   10.00    0.47
   1 -11  19    2.17    0.23
   1 -11  19    2.87    0.25
   2 -11  19    8.96    0.45
   2 -11  19    8.90    0.44
   3 -11  19    0.25    0.13
   3 -11  19    0.18    0.13
   4 -11  19   13.26    0.57
   4 -11  19   12.50    0.56
   5 -11  19    2.67    0.26
   5 -11  19    2.16    0.24
   5 -11  19    1.31    0.17
   6 -11  19    0.01    0.11
   6 -11  19   -0.09    0.06
   6 -11  19   -0.01    0.12
   7 -11  19   -0.06    0.08
   7 -11  19    0.07    0.12
   7 -11  19    0.05    0.13
   8 -11  19    3.73    0.30
   8 -11  19    4.24    0.31
   8 -11  19    2.36    0.23
   9 -11  19    0.41    0.16
   9 -11  19    0.20    0.09
   9 -11  19    0.47    0.16
  10 -11  19   -0.10    0.07
  10 -11  19    0.02    0.12
  10 -11  19    0.01    0.13
  11 -11  19   -0.04    0.07
  11 -11  19   -0.21    0.12
  11 -11  19   -0.07    0.12
  -6 -10  19   10.44    0.41
  -4 -10  19    0.09    0.10
  -3 -10  19    0.36    0.12
  -2 -10  19   -0.06    0.10
  -2 -10  19    0.03    0.09
  -1 -10  19    3.73    0.26
  -1 -10  19    4.13    0.28
   0 -10  19    1.39    0.19
   0 -10  19    1.53    0.19
   1 -10  19    2.17    0.22
   1 -10  19    2.20    0.23
   2 -10  19    2.33    0.23
   2 -10  19    2.83    0.24
   3 -10  19    0.15    0.12
   3 -10  19    0.12    0.10
   4 -10  19    4.38    0.29
   4 -10  19    4.47    0.31
   4 -10  19    4.48    0.25
   5 -10  19    0.35    0.14
   5 -10  19    0.26    0.10
   5 -10  19    0.26    0.13
   6 -10  19    2.42    0.24
   6 -10  19    2.17    0.24
   6 -10  19    2.27    0.19
   7 -10  19    1.68    0.22
   7 -10  19    2.28    0.25
   7 -10  19    1.94    0.19
   8 -10  19    3.92    0.26
   8 -10  19    5.08    0.33
   8 -10  19    4.41    0.32
   9 -10  19    2.24    0.25
   9 -10  19    2.17    0.22
   9 -10  19    2.33    0.25
  10 -10  19    3.32    0.27
  10 -10  19    2.13    0.23
  10 -10  19    2.80    0.29
  11 -10  19    2.28    0.29
  11 -10  19    2.68    0.27
  12 -10  19   -0.06    0.07
  12 -10  19    0.46    0.16
  -7  -9  19    0.43    0.11
  -6  -9  19    0.39    0.10
  -5  -9  19   11.39    0.46
  -4  -9  19    4.00    0.26
  -3  -9  19    0.16    0.10
  -2  -9  19    0.60    0.13
  -2  -9  19    0.63    0.13
  -1  -9  19    2.01    0.19
  -1  -9  19    1.91    0.21
   0  -9  19    0.18    0.10
   0  -9  19    0.15    0.11
   1  -9  19    9.82    0.44
   1  -9  19    9.95    0.46
   2  -9  19    2.04    0.21
   2  -9  19    2.44    0.23
   3  -9  19   -0.07    0.10
   3  -9  19    0.06    0.09
   3  -9  19    0.05    0.08
   4  -9  19    3.71    0.26
   4  -9  19    3.37    0.21
   4  -9  19    3.99    0.27
   5  -9  19    7.79    0.39
   5  -9  19    8.00    0.40
   5  -9  19    7.62    0.34
   6  -9  19    0.81    0.15
   6  -9  19    0.67    0.14
   6  -9  19    0.70    0.12
   7  -9  19    8.21    0.42
   7  -9  19    8.15    0.37
   7  -9  19    8.33    0.43
   8  -9  19    4.60    0.27
   8  -9  19    4.63    0.33
   8  -9  19    4.71    0.31
   9  -9  19    2.83    0.29
   9  -9  19    1.82    0.23
   9  -9  19    2.49    0.23
  10  -9  19    4.75    0.36
  10  -9  19    5.16    0.33
  10  -9  19    4.20    0.30
  11  -9  19    0.63    0.15
  11  -9  19    0.48    0.17
  11  -9  19    0.36    0.14
  12  -9  19    0.29    0.15
  12  -9  19    0.12    0.10
  -8  -8  19    4.28    0.28
  -7  -8  19    8.67    0.40
  -6  -8  19    0.68    0.13
  -5  -8  19    2.33    0.19
  -5  -8  19    2.34    0.20
  -4  -8  19    6.98    0.34
  -4  -8  19    7.46    0.35
  -3  -8  19    7.03    0.35
  -2  -8  19    0.00    0.07
  -2  -8  19    0.01    0.08
  -1  -8  19    2.75    0.20
  -1  -8  19    2.80    0.22
   0  -8  19    0.03    0.08
   0  -8  19    0.06    0.08
   1  -8  19    7.34    0.37
   1  -8  19    6.91    0.34
   2  -8  19   65.02    1.97
   2  -8  19   62.77    2.00
   3  -8  19    0.11    0.10
   3  -8  19    0.20    0.10
   3  -8  19    0.04    0.06
   4  -8  19    1.52    0.19
   4  -8  19    1.82    0.19
   4  -8  19    1.99    0.15
   5  -8  19    0.01    0.10
   5  -8  19    0.00    0.06
   5  -8  19    0.12    0.10
   6  -8  19    0.15    0.08
   6  -8  19    0.13    0.11
   6  -8  19    0.04    0.10
   7  -8  19    7.71    0.40
   7  -8  19    7.84    0.41
   7  -8  19    7.71    0.35
   8  -8  19    0.40    0.13
   8  -8  19    0.81    0.17
   8  -8  19    0.41    0.11
   9  -8  19    6.40    0.39
   9  -8  19    6.18    0.37
   9  -8  19    6.16    0.34
  10  -8  19    0.67    0.15
  10  -8  19    0.61    0.15
  10  -8  19    0.47    0.16
  11  -8  19    4.82    0.33
  11  -8  19    5.83    0.40
  11  -8  19    5.71    0.35
  12  -8  19    0.63    0.16
  12  -8  19    0.29    0.14
  -8  -7  19    0.47    0.12
  -7  -7  19    0.25    0.11
  -6  -7  19    0.18    0.09
  -5  -7  19    1.36    0.16
  -5  -7  19    1.71    0.17
  -4  -7  19    0.69    0.12
  -4  -7  19    0.55    0.12
  -3  -7  19    2.87    0.21
  -3  -7  19    2.78    0.18
  -2  -7  19    6.33    0.30
  -2  -7  19    6.58    0.33
  -1  -7  19    7.16    0.32
  -1  -7  19    6.66    0.34
   0  -7  19    2.42    0.19
   0  -7  19    2.56    0.22
   1  -7  19    0.40    0.10
   1  -7  19    0.31    0.11
   2  -7  19    0.42    0.11
   2  -7  19    0.28    0.10
   3  -7  19   11.89    0.50
   3  -7  19   11.34    0.40
   3  -7  19   12.24    0.49
   4  -7  19    0.11    0.06
   4  -7  19    0.06    0.09
   4  -7  19    0.03    0.09
   5  -7  19    9.41    0.44
   5  -7  19    9.19    0.36
   5  -7  19   10.01    0.44
   6  -7  19    9.45    0.44
   6  -7  19    9.97    0.45
   6  -7  19    9.15    0.38
   7  -7  19    4.75    0.27
   7  -7  19    5.02    0.32
   7  -7  19    4.98    0.31
   8  -7  19    8.20    0.41
   8  -7  19    7.82    0.37
   8  -7  19    8.59    0.44
   9  -7  19    0.10    0.10
   9  -7  19   -0.11    0.09
   9  -7  19    0.01    0.11
  10  -7  19    0.44    0.13
  10  -7  19    0.35    0.14
  10  -7  19    0.42    0.15
  11  -7  19   -0.04    0.12
  11  -7  19    0.04    0.14
  11  -7  19   -0.14    0.09
  -9  -6  19    3.21    0.26
  -8  -6  19    3.84    0.28
  -7  -6  19    1.15    0.16
  -6  -6  19    3.04    0.23
  -6  -6  19    2.99    0.20
  -5  -6  19    0.36    0.10
  -5  -6  19    0.29    0.10
  -4  -6  19    2.56    0.21
  -4  -6  19    2.91    0.21
  -3  -6  19    0.08    0.08
  -3  -6  19    0.21    0.09
  -3  -6  19    0.17    0.07
  -2  -6  19    1.14    0.12
  -2  -6  19    1.46    0.16
  -1  -6  19    1.07    0.12
   0  -6  19   45.94    1.42
   1  -6  19   -0.03    0.08
   2  -6  19    0.36    0.10
   3  -6  19   11.64    0.40
   3  -6  19   12.67    0.49
   4  -6  19   11.73    0.49
   4  -6  19   12.04    0.41
   5  -6  19    3.01    0.18
   5  -6  19    2.82    0.24
   6  -6  19    0.24    0.08
   6  -6  19    0.41    0.13
   7  -6  19    2.05    0.18
   7  -6  19    1.61    0.20
   8  -6  19    0.20    0.10
   8  -6  19   -0.03    0.10
   9  -6  19    0.04    0.13
   9  -6  19    0.14    0.12
   9  -6  19    0.04    0.09
  10  -6  19    3.46    0.27
  10  -6  19    2.68    0.29
  10  -6  19    3.26    0.26
  11  -6  19    0.54    0.15
  11  -6  19    0.58    0.18
  11  -6  19    0.52    0.15
 -10  -5  19    1.05    0.18
  -9  -5  19    1.28    0.19
  -8  -5  19    1.05    0.17
  -7  -5  19   10.88    0.50
  -6  -5  19    0.30    0.11
  -6  -5  19    0.39    0.09
  -5  -5  19    0.62    0.11
  -5  -5  19    0.49    0.12
  -4  -5  19    0.07    0.09
  -4  -5  19    0.16    0.08
  -3  -5  19    0.58    0.09
  -3  -5  19    0.44    0.12
  -2  -5  19    2.10    0.15
  -1  -5  19    5.15    0.25
   0  -5  19    1.68    0.16
   1  -5  19    2.37    0.18
   2  -5  19   12.26    0.48
   3  -5  19    0.18    0.10
   3  -5  19    0.19    0.05
   4  -5  19    2.63    0.15
   4  -5  19    2.91    0.21
   5  -5  19    7.96    0.32
   5  -5  19    7.69    0.38
   6  -5  19   20.87    0.77
   6  -5  19   20.61    0.70
   7  -5  19    1.45    0.16
   7  -5  19    1.26    0.19
   8  -5  19    3.84    0.25
   8  -5  19    3.78    0.30
   9  -5  19   -0.08    0.12
   9  -5  19    0.09    0.10
  10  -5  19    0.50    0.14
  10  -5  19    0.72    0.19
  11  -5  19    2.59    0.26
  11  -5  19    2.47    0.30
  11  -5  19    2.94    0.28
 -10  -4  19    4.83    0.35
  -9  -4  19    1.97    0.23
  -8  -4  19    1.49    0.19
  -7  -4  19    2.55    0.24
  -7  -4  19    2.56    0.18
  -6  -4  19    5.76    0.34
  -6  -4  19    6.37    0.29
  -5  -4  19    0.07    0.09
  -4  -4  19   17.94    0.72
  -3  -4  19    7.45    0.39
  -3  -4  19    7.23    0.28
  -2  -4  19    2.33    0.15
  -1  -4  19    0.81    0.11
   0  -4  19   11.74    0.44
   1  -4  19    6.44    0.30
   2  -4  19   39.96    1.27
   3  -4  19    0.18    0.10
   3  -4  19    0.25    0.05
   4  -4  19    0.10    0.08
   4  -4  19    0.08    0.06
   5  -4  19    6.31    0.27
   5  -4  19    6.09    0.34
   6  -4  19    0.09    0.08
   6  -4  19   -0.15    0.10
   7  -4  19    0.78    0.13
   7  -4  19    0.73    0.16
   8  -4  19    8.45    0.39
   8  -4  19    7.82    0.44
   9  -4  19    2.76    0.28
   9  -4  19    2.26    0.23
  10  -4  19    4.08    0.33
  10  -4  19    4.40    0.31
  11  -4  19    2.24    0.25
  11  -4  19    2.31    0.32
 -11  -3  19    0.83    0.18
 -10  -3  19    2.74    0.28
  -9  -3  19    0.08    0.11
  -8  -3  19    0.81    0.17
  -7  -3  19    6.71    0.38
  -6  -3  19    6.91    0.38
  -5  -3  19   -0.08    0.09
  -4  -3  19   27.67    1.03
  -3  -3  19    6.64    0.25
  -3  -3  19    6.09    0.36
  -2  -3  19    1.12    0.11
  -1  -3  19    0.89    0.10
   0  -3  19   -0.09    0.06
   1  -3  19    2.61    0.18
   2  -3  19   12.95    0.39
   2  -3  19   11.99    0.48
   3  -3  19    0.13    0.05
   3  -3  19    0.03    0.08
   4  -3  19   10.28    0.44
   4  -3  19    9.71    0.36
   5  -3  19    1.30    0.17
   5  -3  19    1.17    0.12
   6  -3  19    0.36    0.09
   6  -3  19    0.29    0.13
   7  -3  19    0.11    0.12
   7  -3  19    0.20    0.10
   8  -3  19    7.44    0.37
   8  -3  19    7.31    0.41
   9  -3  19    0.01    0.11
   9  -3  19    0.09    0.10
  10  -3  19    0.23    0.12
  10  -3  19    0.02    0.15
 -11  -2  19    6.27    0.41
 -10  -2  19    0.82    0.18
  -9  -2  19   13.20    0.61
  -8  -2  19    0.41    0.14
  -7  -2  19   11.97    0.55
  -6  -2  19    2.90    0.26
  -5  -2  19    1.73    0.21
  -4  -2  19    6.11    0.23
  -4  -2  19    6.65    0.38
  -3  -2  19   38.38    1.39
  -3  -2  19   40.03    1.18
  -2  -2  19    0.12    0.06
  -1  -2  19    0.00    0.06
   0   2 -19   12.07    0.54
   0  -2  19   12.44    0.46
  -1   2 -19    3.72    0.27
   1  -2  19    4.04    0.23
  -2   2 -19    1.59    0.19
   2  -2  19    1.77    0.10
   2  -2  19    1.90    0.18
  -3   2 -19    0.13    0.11
   3  -2  19    0.21    0.10
   3  -2  19    0.17    0.06
   4  -2  19    0.47    0.13
   5  -2  19   12.49    0.53
   6  -2  19   -0.12    0.09
   7  -2  19    3.19    0.29
   8  -2  19   -0.04    0.11
   9  -2  19    3.56    0.34
  10  -2  19    0.01    0.12
 -12  -1  19    0.80    0.19
 -11  -1  19    0.40    0.15
 -10  -1  19    0.15    0.13
  -9  -1  19    3.48    0.30
  -8  -1  19    1.92    0.23
  -7  -1  19    0.03    0.10
  -6  -1  19    0.07    0.11
  -5  -1  19    1.53    0.20
  -4  -1  19    0.15    0.10
  -4  -1  19    0.03    0.04
  -3  -1  19    4.56    0.20
  -3  -1  19    4.35    0.31
  -2  -1  19    0.87    0.10
   1   1 -19   37.67    1.36
  -1  -1  19   39.57    1.20
   0   1 -19   16.81    0.69
   0  -1  19   16.17    0.58
  -1   1 -19    4.42    0.31
   1  -1  19    4.33    0.25
  -2   1 -19   -0.03    0.10
   2  -1  19    0.24    0.10
  -3   1 -19    6.70    0.39
   3  -1  19    6.28    0.33
   4  -1  19   24.81    0.89
   5  -1  19    4.15    0.29
   6  -1  19    4.99    0.33
   7  -1  19    7.91    0.43
   8  -1  19    0.08    0.12
   9  -1  19    4.10    0.33
 -12   0  19    0.00    0.13
 -11   0  19    0.49    0.17
 -10   0  19   11.91    0.60
  -9   0  19    1.88    0.25
  -8   0  19    1.48    0.22
  -7   0  19   -0.03    0.10
  -6   0  19   -0.10    0.10
  -5   0  19    5.48    0.36
  -4   0  19    9.05    0.31
  -4   0  19    8.25    0.46
  -3   0  19    3.65    0.30
  -3   0  19    3.53    0.18
   2   0 -19    0.06    0.11
  -2   0  19    0.08    0.07
   1   0 -19   14.50    0.64
  -1   0  19   14.48    0.52
   0   0 -19   32.72    1.21
   0   0  19   32.82    1.06
  -1   0 -19    0.07    0.12
   1   0  19    0.15    0.09
  -2   0 -19    5.90    0.38
   2   0  19    6.56    0.33
  -3   0 -19   11.41    0.55
   3   0  19   10.46    0.47
  -4   0 -19    0.43    0.16
   4   0  19    0.67    0.15
   5   0  19    3.22    0.27
   6   0  19    0.08    0.11
   7   0  19    4.08    0.31
   8   0  19   14.64    0.67
   9   0  19   -0.08    0.12
 -12   1  19    4.18    0.37
 -11   1  19    2.12    0.28
 -10   1  19   14.71    0.70
  -9   1  19   12.94    0.63
  -8   1  19    0.58    0.16
  -7   1  19    3.35    0.30
  -6   1  19    0.30    0.14
  -5   1  19   10.86    0.54
  -4   1  19    3.90    0.30
  -4   1  19    3.45    0.17
  -3   1  19    1.15    0.19
  -3   1  19    1.25    0.12
   2  -1 -19    2.30    0.25
  -2   1  19    2.87    0.18
   1  -1 -19    0.02    0.11
  -1   1  19    0.10    0.08
   0  -1 -19    1.10    0.19
   0   1  19    1.11    0.15
  -1  -1 -19    0.07    0.12
   1   1  19    0.29    0.11
  -2  -1 -19    1.75    0.24
   2   1  19    1.71    0.20
  -3  -1 -19    0.18    0.14
   3   1  19    0.14    0.10
  -4  -1 -19    9.64    0.53
   4   1  19   10.27    0.48
   5   1  19    1.37    0.20
   6   1  19    6.05    0.39
   7   1  19   -0.07    0.11
   8   1  19    4.07    0.35
 -12   2  19    2.30    0.30
 -11   2  19    3.83    0.38
 -10   2  19    1.12    0.22
  -9   2  19    0.72    0.18
  -8   2  19    0.43    0.16
  -7   2  19    4.33    0.33
  -6   2  19    1.94    0.25
  -5   2  19    5.39    0.37
  -4   2  19    1.08    0.11
  -4   2  19    1.04    0.19
   3  -2 -19    2.26    0.28
  -3   2  19    1.74    0.15
  -3   2  19    1.77    0.23
   2  -2 -19   11.61    0.57
  -2   2  19   11.17    0.44
   1  -2 -19    9.77    0.51
  -1   2  19    8.86    0.39
   0  -2 -19    4.16    0.34
   0   2  19    4.35    0.27
  -1  -2 -19    0.73    0.17
   1   2  19    0.67    0.14
  -2  -2 -19   22.49    0.95
   2   2  19   23.92    0.85
  -3  -2 -19    0.45    0.17
   3   2  19    0.89    0.17
  -4  -2 -19    0.08    0.13
   4   2  19    0.06    0.12
   5   2  19    6.11    0.39
   6   2  19    7.38    0.44
   7   2  19    0.96    0.22
 -12   3  19    0.28    0.18
 -11   3  19    2.63    0.32
 -10   3  19    0.29    0.14
  -9   3  19    1.79    0.26
  -8   3  19    1.30    0.22
  -7   3  19    0.43    0.15
  -6   3  19    2.84    0.30
  -5   3  19    0.22    0.13
  -5   3  19    0.19    0.06
  -4   3  19    6.17    0.28
  -4   3  19    6.73    0.42
   3  -3 -19   -0.10    0.11
  -3   3  19    0.01    0.08
   2  -3 -19    4.96    0.38
   1  -3 -19    2.80    0.30
   0  -3 -19    9.08    0.51
  -1  -3 -19    3.45    0.35
   1   3  19    3.02    0.25
  -2  -3 -19    0.56    0.18
   2   3  19    0.30    0.14
  -3  -3 -19    5.78    0.41
   3   3  19    5.44    0.35
  -4  -3 -19   -0.02    0.12
   4   3  19   -0.05    0.11
   5   3  19    1.73    0.24
   6   3  19    6.63    0.44
 -12   4  19    7.43    0.52
 -11   4  19    1.41    0.25
 -10   4  19    4.41    0.38
  -9   4  19    0.54    0.18
  -8   4  19   -0.07    0.11
  -7   4  19    2.37    0.27
  -6   4  19    1.08    0.21
  -5   4  19   17.00    0.77
  -4   4  19    0.14    0.13
   3  -4 -19    3.27    0.33
   2  -4 -19    1.14    0.23
   1  -4 -19   15.69    0.74
   0  -4 -19    1.42    0.23
  -1  -4 -19    0.17    0.15
  -2  -4 -19    1.48    0.25
  -3  -4 -19    0.75    0.19
   3   4  19    0.76    0.17
  -4  -4 -19    2.13    0.28
   4   4  19    1.70    0.24
   5   4  19   20.79    0.86
 -12   5  19    0.28    0.17
 -11   5  19    8.39    0.54
 -10   5  19    1.12    0.23
  -9   5  19   10.15    0.58
  -8   5  19    1.08    0.22
  -7   5  19    6.41    0.45
  -6   5  19   -0.17    0.11
  -5   5  19    3.46    0.35
  -4   5  19    3.38    0.31
   3  -5 -19    2.32    0.30
   3  -5 -19    2.12    0.23
   2  -5 -19   16.21    0.78
   1  -5 -19    1.50    0.26
   0  -5 -19   11.29    0.62
  -1  -5 -19    0.12    0.16
  -2  -5 -19    1.95    0.29
  -3  -5 -19    0.65    0.20
  -4  -5 -19    1.00    0.23
 -11   6  19    1.84    0.32
 -10   6  19    7.39    0.50
  -9   6  19    0.09    0.16
  -8   6  19   12.30    0.65
  -7   6  19    1.39    0.24
   3  -6 -19    0.91    0.22
   2  -6 -19    0.42    0.18
   1  -6 -19    5.00    0.42
   0  -6 -19    0.06    0.16
  -1  -6 -19    0.08    0.16
  -2  -6 -19    0.02    0.16
  -3  -6 -19    0.00    0.15
   3  -7 -19   -0.11    0.15
   2  -7 -19    6.59    0.49
   1  -7 -19    0.69    0.21
   0  -7 -19    1.34    0.25
  -1  -7 -19    0.10    0.17
  -2  -7 -19    1.96    0.31
   2  -8 -19    2.42    0.34
   1  -8 -19   -0.04    0.17
   0  -8 -19    0.98    0.26
   2 -15  20    7.19    0.47
   2 -15  20    7.38    0.47
   3 -15  20    0.26    0.17
   3 -15  20    0.14    0.16
   4 -15  20    6.42    0.45
   4 -15  20    6.73    0.46
   5 -15  20    1.00    0.22
   5 -15  20    0.99    0.23
   6 -15  20    1.54    0.26
   6 -15  20    1.27    0.24
   7 -15  20    0.33    0.18
   7 -15  20    0.70    0.20
   8 -15  20    2.03    0.30
   0 -14  20   10.08    0.54
   1 -14  20    0.27    0.17
   1 -14  20   -0.01    0.14
   2 -14  20    0.32    0.16
   2 -14  20    0.48    0.19
   3 -14  20    3.37    0.33
   3 -14  20    3.40    0.33
   4 -14  20    0.47    0.17
   4 -14  20    0.71    0.19
   5 -14  20    2.25    0.27
   5 -14  20    2.60    0.30
   6 -14  20    0.74    0.19
   6 -14  20    0.47    0.18
   7 -14  20    0.56    0.19
   7 -14  20    0.60    0.19
   8 -14  20    0.13    0.16
   8 -14  20    0.24    0.16
   9 -14  20    0.29    0.16
   9 -14  20   -0.11    0.14
  -2 -13  20    0.52    0.16
  -1 -13  20   -0.04    0.13
   0 -13  20    0.92    0.20
   0 -13  20    0.82    0.19
   1 -13  20   13.54    0.62
   1 -13  20   12.78    0.60
   2 -13  20   -0.01    0.13
   2 -13  20   -0.19    0.11
   3 -13  20    4.80    0.35
   3 -13  20    5.04    0.36
   4 -13  20   -0.29    0.11
   4 -13  20   -0.06    0.13
   5 -13  20   -0.07    0.12
   5 -13  20    0.06    0.13
   6 -13  20   -0.04    0.12
   6 -13  20    0.35    0.16
   7 -13  20    0.34    0.16
   7 -13  20    0.30    0.15
   8 -13  20    4.74    0.37
   8 -13  20    3.66    0.35
   9 -13  20    1.38    0.24
   9 -13  20    1.30    0.22
  10 -13  20    7.77    0.46
  10 -13  20    6.46    0.45
  -3 -12  20   12.66    0.57
  -2 -12  20    0.60    0.17
  -1 -12  20    0.49    0.16
   0 -12  20   10.43    0.52
   0 -12  20   11.42    0.54
   1 -12  20   -0.01    0.11
   1 -12  20   -0.04    0.10
   2 -12  20    1.05    0.18
   2 -12  20    0.66    0.16
   3 -12  20    0.40    0.14
   3 -12  20    0.58    0.16
   4 -12  20    1.00    0.19
   4 -12  20    0.95    0.18
   5 -12  20    0.48    0.15
   5 -12  20    0.59    0.16
   6 -12  20    1.65    0.22
   6 -12  20    1.73    0.24
   7 -12  20    0.16    0.15
   7 -12  20    0.37    0.15
   8 -12  20    0.85    0.20
   8 -12  20    0.82    0.18
   9 -12  20    2.04    0.27
   9 -12  20    2.16    0.26
  10 -12  20    0.04    0.14
  10 -12  20    0.17    0.15
  11 -12  20   -0.04    0.14
  -3 -11  20    2.22    0.24
  -2 -11  20   -0.02    0.11
  -1 -11  20    5.24    0.33
  -1 -11  20    5.62    0.34
   0 -11  20    1.79    0.22
   0 -11  20    1.86    0.22
   1 -11  20    0.13    0.11
   1 -11  20    0.11    0.11
   2 -11  20    0.43    0.14
   2 -11  20    0.04    0.12
   3 -11  20   43.33    1.45
   3 -11  20   44.15    1.47
   4 -11  20    1.67    0.22
   4 -11  20    1.58    0.22
   5 -11  20    6.63    0.39
   5 -11  20    7.35    0.41
   6 -11  20    1.48    0.22
   6 -11  20    1.29    0.20
   7 -11  20    2.55    0.27
   7 -11  20    2.77    0.29
   8 -11  20    0.09    0.12
   8 -11  20   -0.01    0.12
   9 -11  20    1.66    0.23
   9 -11  20    1.53    0.23
  10 -11  20   -0.14    0.13
  10 -11  20   -0.21    0.11
  11 -11  20    1.87    0.26
  11 -11  20    2.11    0.26
  -4 -10  20   -0.01    0.10
  -3 -10  20    0.05    0.10
  -2 -10  20    7.98    0.41
  -1 -10  20    4.71    0.30
  -1 -10  20    4.76    0.31
   0 -10  20    1.05    0.17
   0 -10  20    1.20    0.17
   1 -10  20    1.84    0.22
   1 -10  20    2.04    0.21
   2 -10  20    0.55    0.16
   2 -10  20    0.75    0.15
   3 -10  20    1.01    0.17
   3 -10  20    1.06    0.18
   4 -10  20   14.37    0.60
   4 -10  20   14.03    0.61
   5 -10  20    4.61    0.32
   5 -10  20    3.93    0.29
   6 -10  20   47.07    1.60
   6 -10  20   50.11    1.60
   7 -10  20    0.53    0.17
   7 -10  20    0.79    0.17
   8 -10  20    0.81    0.18
   8 -10  20    0.65    0.17
   9 -10  20    2.59    0.28
   9 -10  20    2.43    0.26
  10 -10  20    1.55    0.22
  10 -10  20    1.75    0.26
  11 -10  20   -0.01    0.11
  11 -10  20   -0.03    0.12
  -7  -9  20    0.23    0.10
  -6  -9  20    0.26    0.10
  -4  -9  20    7.88    0.39
  -3  -9  20    3.21    0.24
  -2  -9  20    6.87    0.35
  -2  -9  20    8.99    0.40
  -1  -9  20    6.24    0.32
  -1  -9  20    6.16    0.34
   0  -9  20    1.11    0.16
   0  -9  20    0.84    0.15
   1  -9  20   19.11    0.71
   1  -9  20   19.14    0.73
   2  -9  20   43.16    1.40
   2  -9  20   43.29    1.43
   3  -9  20    7.85    0.40
   3  -9  20    7.62    0.39
   4  -9  20    3.97    0.27
   4  -9  20    3.78    0.27
   5  -9  20    0.00    0.10
   5  -9  20    0.08    0.10
   6  -9  20    0.98    0.18
   6  -9  20    0.80    0.16
   7  -9  20    0.87    0.18
   7  -9  20    0.80    0.16
   8  -9  20    0.10    0.12
   8  -9  20    0.13    0.11
   9  -9  20    0.82    0.18
   9  -9  20    0.84    0.18
  10  -9  20    5.24    0.34
  10  -9  20    5.47    0.39
  11  -9  20    3.14    0.30
  11  -9  20    3.88    0.33
  -7  -8  20   -0.02    0.09
  -6  -8  20    2.06    0.20
  -5  -8  20   -0.01    0.08
  -5  -8  20    0.26    0.10
  -4  -8  20    1.78    0.19
  -3  -8  20    0.41    0.12
  -2  -8  20    1.15    0.14
  -2  -8  20    1.06    0.15
  -1  -8  20    0.68    0.13
  -1  -8  20    0.52    0.11
   0  -8  20    1.45    0.16
   0  -8  20    1.51    0.19
   1  -8  20    0.17    0.09
   1  -8  20    0.09    0.11
   2  -8  20    2.80    0.23
   2  -8  20    2.98    0.23
   3  -8  20   14.97    0.60
   3  -8  20   14.23    0.57
   4  -8  20    2.91    0.24
   4  -8  20    2.95    0.25
   5  -8  20    5.90    0.34
   5  -8  20    6.30    0.35
   6  -8  20    6.27    0.37
   6  -8  20    7.27    0.39
   7  -8  20    7.14    0.40
   7  -8  20    7.38    0.40
   8  -8  20    6.07    0.37
   8  -8  20    5.99    0.38
   9  -8  20   -0.11    0.10
   9  -8  20    0.02    0.14
  10  -8  20    2.61    0.28
  10  -8  20    2.38    0.25
  11  -8  20   -0.04    0.15
  11  -8  20   -0.16    0.10
  -8  -7  20    2.01    0.21
  -7  -7  20    0.38    0.12
  -6  -7  20    0.53    0.13
  -5  -7  20    3.53    0.25
  -5  -7  20    3.57    0.24
  -4  -7  20    0.31    0.11
  -4  -7  20    0.29    0.10
  -3  -7  20    2.21    0.19
  -2  -7  20    6.86    0.35
  -2  -7  20    7.29    0.32
  -1  -7  20    2.13    0.19
  -1  -7  20    2.36    0.18
   0  -7  20    7.30    0.33
   0  -7  20    6.68    0.35
   1  -7  20   -0.03    0.10
   1  -7  20   -0.08    0.07
   2  -7  20    0.39    0.11
   2  -7  20    0.67    0.14
   3  -7  20    7.51    0.36
   4  -7  20    1.15    0.16
   5  -7  20    6.76    0.37
   6  -7  20    7.88    0.40
   6  -7  20    7.80    0.40
   7  -7  20    4.27    0.31
   7  -7  20    4.38    0.31
   8  -7  20   -0.01    0.11
   8  -7  20    0.15    0.13
   9  -7  20    8.95    0.48
   9  -7  20   10.17    0.48
  10  -7  20    2.92    0.29
  10  -7  20    3.12    0.27
  11  -7  20    4.41    0.32
  11  -7  20    4.77    0.36
  -9  -6  20    0.67    0.15
  -8  -6  20    0.10    0.10
  -7  -6  20    3.08    0.25
  -6  -6  20    4.43    0.29
  -6  -6  20    4.68    0.26
  -5  -6  20    4.89    0.27
  -5  -6  20    4.87    0.30
  -4  -6  20    5.99    0.31
  -4  -6  20    6.40    0.34
  -3  -6  20    0.09    0.08
  -2  -6  20    3.22    0.19
  -2  -6  20    3.76    0.24
  -1  -6  20    2.83    0.18
   0  -6  20   15.15    0.56
   1  -6  20   43.48    1.37
   2  -6  20   13.70    0.53
   3  -6  20    3.09    0.23
   4  -6  20    3.17    0.22
   5  -6  20   35.73    1.19
   6  -6  20    0.05    0.11
   7  -6  20    1.43    0.20
   8  -6  20    2.93    0.29
   9  -6  20    1.37    0.22
  10  -6  20    2.45    0.25
  10  -6  20    2.30    0.28
  11  -6  20    0.16    0.13
  11  -6  20    0.14    0.14
  -9  -5  20    0.21    0.12
  -8  -5  20    0.71    0.15
  -7  -5  20    0.22    0.11
  -6  -5  20    1.79    0.17
  -6  -5  20    1.57    0.19
  -5  -5  20   -0.07    0.07
  -5  -5  20    0.03    0.09
  -4  -5  20    0.01    0.09
  -3  -5  20   25.39    0.83
  -3  -5  20   27.23    0.98
  -2  -5  20    0.56    0.09
  -1  -5  20    2.97    0.19
   0  -5  20    1.87    0.17
   1  -5  20   25.68    0.86
   2  -5  20    3.95    0.24
   3  -5  20   17.60    0.65
   4  -5  20    7.50    0.37
   5  -5  20    4.44    0.30
   6  -5  20    2.92    0.21
   6  -5  20    3.66    0.27
   7  -5  20    2.90    0.20
   8  -5  20    2.19    0.24
   9  -5  20    0.64    0.17
  10  -5  20    2.41    0.29
  11  -5  20    1.45    0.21
 -10  -4  20    0.35    0.14
  -9  -4  20    2.68    0.27
  -8  -4  20    5.57    0.35
  -7  -4  20    0.41    0.09
  -7  -4  20    0.59    0.15
  -6  -4  20    3.24    0.21
  -6  -4  20    3.32    0.27
  -5  -4  20    0.53    0.14
  -4  -4  20   18.28    0.74
  -3  -4  20    0.30    0.12
  -3  -4  20    0.12    0.06
  -2  -4  20    0.04    0.06
  -1  -4  20    3.61    0.20
   0  -4  20   37.28    1.17
   1  -4  20    6.83    0.32
   2  -4  20    2.10    0.18
   3  -4  20    1.52    0.17
   4  -4  20    8.32    0.39
   5  -4  20    1.21    0.17
   6  -4  20   23.71    0.84
   6  -4  20   21.18    0.75
   7  -4  20    0.62    0.11
   7  -4  20    1.32    0.20
   8  -4  20    3.46    0.30
   9  -4  20    0.20    0.14
  10  -4  20    4.65    0.36
 -10  -3  20    1.47    0.22
  -9  -3  20    0.14    0.13
  -8  -3  20    0.85    0.17
  -7  -3  20    0.57    0.14
  -6  -3  20   -0.05    0.10
  -5  -3  20    8.19    0.44
  -4  -3  20   24.22    0.93
  -3  -3  20    4.72    0.21
  -3  -3  20    4.70    0.32
  -2  -3  20    4.23    0.21
  -1  -3  20    1.65    0.14
   0  -3  20    2.66    0.19
   1  -3  20   -0.02    0.07
   2  -3  20    7.98    0.36
   3  -3  20   14.39    0.56
   4  -3  20    1.27    0.17
   5  -3  20    5.12    0.27
   5  -3  20    5.56    0.33
   6  -3  20    5.10    0.27
   6  -3  20    5.29    0.34
   7  -3  20    0.28    0.08
   7  -3  20    0.53    0.16
   8  -3  20    0.35    0.14
   8  -3  20    0.14    0.07
   9  -3  20    8.37    0.46
  10  -3  20    1.84    0.27
 -11  -2  20    1.72    0.24
 -10  -2  20    1.14    0.21
  -9  -2  20    1.70    0.23
  -8  -2  20    6.56    0.40
  -7  -2  20    1.78    0.22
  -6  -2  20    0.82    0.16
  -5  -2  20    0.21    0.12
  -4  -2  20    1.39    0.20
  -3  -2  20    0.06    0.05
  -3  -2  20    0.00    0.10
  -2  -2  20    5.74    0.25
  -1  -2  20   10.47    0.40
   0  -2  20    0.75    0.11
   1  -2  20    1.52    0.16
   2  -2  20   36.85    1.19
   3  -2  20    0.16    0.09
   4  -2  20    2.32    0.23
   5  -2  20    4.84    0.31
   6  -2  20    5.06    0.34
   7  -2  20   12.82    0.59
   8  -2  20    2.05    0.26
   9  -2  20    3.60    0.32
 -11  -1  20    7.65    0.48
 -10  -1  20    2.07    0.26
  -9  -1  20    2.05    0.26
  -8  -1  20   -0.01    0.11
  -7  -1  20    5.89    0.38
  -6  -1  20    0.85    0.17
  -5  -1  20   23.20    0.92
  -4  -1  20   10.36    0.51
  -3  -1  20    1.37    0.20
  -3  -1  20    1.35    0.11
  -2  -1  20   29.58    0.93
  -1  -1  20    8.81    0.36
   0  -1  20    1.80    0.17
   1  -1  20   11.20    0.45
   2  -1  20    1.08    0.15
   3  -1  20   17.68    0.67
   4  -1  20    0.82    0.16
   5  -1  20    1.58    0.21
   6  -1  20    0.19    0.14
   7  -1  20    2.96    0.30
   8  -1  20   -0.02    0.14
   9  -1  20    1.03    0.22
 -12   0  20    2.23    0.28
 -11   0  20    1.44    0.25
 -10   0  20    5.19    0.40
  -9   0  20    0.17    0.14
  -8   0  20   15.47    0.71
  -7   0  20    3.22    0.30
  -6   0  20    2.78    0.28
  -5   0  20    0.56    0.15
  -4   0  20   11.76    0.40
  -4   0  20   11.83    0.57
  -3   0  20    8.92    0.34
  -3   0  20    8.75    0.48
  -2   0  20    0.22    0.07
  -1   0  20   13.67    0.51
   0   0  20    9.56    0.41
   1   0  20   16.55    0.62
   2   0  20   42.94    1.39
   3   0  20    0.60    0.14
   4   0  20    0.30    0.13
   5   0  20    5.37    0.35
   6   0  20   10.10    0.50
   7   0  20    3.79    0.31
   8   0  20    0.31    0.17
 -12   1  20    0.18    0.16
 -11   1  20    0.90    0.21
 -10   1  20    2.28    0.29
  -9   1  20    0.05    0.13
  -8   1  20    0.79    0.19
  -7   1  20    0.74    0.17
  -6   1  20    5.73    0.39
  -5   1  20    5.36    0.37
  -4   1  20    0.96    0.18
  -4   1  20    0.79    0.09
  -3   1  20   13.58    0.48
  -3   1  20   12.78    0.62
  -2   1  20   17.49    0.61
  -1   1  20    0.62    0.12
   0   1  20    0.04    0.08
   1   1  20    1.87    0.20
   2   1  20   19.11    0.72
   3   1  20   62.14    1.97
   4   1  20    2.73    0.26
   5   1  20    2.17    0.26
   6   1  20    0.20    0.16
   7   1  20    2.77    0.30
 -12   2  20    1.83    0.28
 -11   2  20   14.63    0.73
 -10   2  20   -0.11    0.12
  -9   2  20    0.04    0.14
  -8   2  20   -0.02    0.12
  -7   2  20    8.46    0.49
  -6   2  20    0.29    0.14
  -5   2  20    0.09    0.12
  -4   2  20    0.47    0.08
  -4   2  20    0.41    0.16
  -3   2  20    0.07    0.07
  -2   2  20   26.09    0.87
  -1   2  20    0.41    0.10
   0   2  20    3.18    0.23
   1   2  20    2.19    0.22
   2   2  20    0.51    0.13
   3   2  20    2.44    0.25
   4   2  20   15.89    0.67
   5   2  20    0.67    0.18
   6   2  20    2.30    0.28
   7   2  20    0.63    0.20
 -12   3  20    2.44    0.32
 -11   3  20    0.86    0.21
 -10   3  20   13.20    0.68
  -9   3  20    0.03    0.14
  -8   3  20    8.56    0.51
  -7   3  20    1.13    0.22
  -6   3  20    0.64    0.17
  -5   3  20    0.35    0.15
  -4   3  20   -0.18    0.10
  -4   3  20    0.00    0.06
  -3   3  20   18.21    0.65
  -2   3  20   -0.01    0.08
  -1   3  20    0.34    0.11
   0   3  20   10.01    0.46
   1   3  20    2.23    0.23
   2   3  20   -0.02    0.10
   3   3  20   -0.02    0.12
   4   3  20   21.85    0.86
   5   3  20    0.34    0.15
   6   3  20    7.16    0.45
 -12   4  20    0.21    0.17
 -11   4  20    1.15    0.24
 -10   4  20    0.14    0.16
  -9   4  20    5.14    0.41
  -8   4  20    0.20    0.14
  -7   4  20   11.48    0.61
  -6   4  20    0.46    0.17
  -5   4  20    0.43    0.17
  -4   4  20    2.25    0.29
   2   4  20    0.08    0.12
   3   4  20    0.07    0.14
   4   4  20    1.04    0.20
   5   4  20    3.38    0.34
 -12   5  20    0.54    0.21
 -11   5  20    6.66    0.49
 -10   5  20    0.94    0.23
  -9   5  20    1.99    0.29
  -8   5  20    0.12    0.14
  -7   5  20    0.06    0.15
  -6   5  20    0.40    0.17
  -5   5  20    2.08    0.28
   4   5  20    2.88    0.31
   4 -15  21   -0.06    0.14
   4 -15  21   -0.01    0.14
   5 -15  21    0.05    0.15
   5 -15  21    0.20    0.16
   6 -15  21    0.36    0.19
   1 -14  21    0.45    0.16
   1 -14  21    0.60    0.19
   2 -14  21    0.25    0.16
   2 -14  21    0.68    0.18
   3 -14  21    0.73    0.20
   3 -14  21    0.21    0.15
   4 -14  21    0.59    0.18
   4 -14  21    0.97    0.21
   5 -14  21    2.73    0.31
   5 -14  21    3.03    0.32
   6 -14  21    0.20    0.14
   6 -14  21    0.03    0.15
   7 -14  21    0.30    0.17
   7 -14  21    0.16    0.15
   8 -14  21    3.77    0.37
   8 -14  21    3.42    0.34
  -1 -13  21    8.27    0.47
   1 -13  21    2.48    0.28
   1 -13  21    2.94    0.31
   2 -13  21    0.41    0.15
   2 -13  21    0.47    0.17
   3 -13  21    5.21    0.36
   3 -13  21    3.74    0.33
   4 -13  21    2.67    0.29
   4 -13  21    2.32    0.27
   5 -13  21    0.85    0.20
   5 -13  21    1.11    0.21
   6 -13  21    2.99    0.31
   6 -13  21    3.85    0.33
   7 -13  21    6.31    0.42
   7 -13  21    6.59    0.43
   8 -13  21    0.23    0.16
   8 -13  21    0.13    0.15
   9 -13  21    0.11    0.13
   9 -13  21    0.06    0.15
  -3 -12  21   -0.10    0.08
  -2 -12  21    1.54    0.22
  -1 -12  21    2.86    0.29
   0 -12  21    0.06    0.12
   0 -12  21   -0.03    0.12
   1 -12  21   -0.10    0.11
   1 -12  21   -0.18    0.10
   2 -12  21    0.62    0.17
   2 -12  21    0.28    0.15
   3 -12  21    1.75    0.23
   3 -12  21    1.56    0.23
   4 -12  21    8.61    0.47
   4 -12  21    8.18    0.46
   5 -12  21    3.72    0.31
   5 -12  21    3.19    0.29
   6 -12  21    5.70    0.37
   6 -12  21    5.07    0.35
   7 -12  21    1.83    0.25
   7 -12  21    1.89    0.25
   8 -12  21    0.57    0.17
   8 -12  21    0.29    0.16
   9 -12  21    0.00    0.12
   9 -12  21    0.20    0.15
  10 -12  21    1.52    0.24
  10 -12  21    1.78    0.25
  -3 -11  21   -0.13    0.10
  -2 -11  21    2.63    0.26
  -1 -11  21    1.96    0.24
   0 -11  21    0.11    0.12
   0 -11  21   -0.05    0.11
   1 -11  21    2.46    0.26
   1 -11  21    2.96    0.25
   2 -11  21    0.66    0.15
   2 -11  21    0.81    0.17
   3 -11  21    0.44    0.14
   3 -11  21    0.76    0.18
   4 -11  21    3.69    0.30
   4 -11  21    4.17    0.32
   5 -11  21    0.40    0.15
   5 -11  21    0.27    0.14
   6 -11  21    5.55    0.36
   6 -11  21    5.85    0.38
   7 -11  21    0.12    0.14
   7 -11  21    0.08    0.14
   8 -11  21    0.88    0.19
   8 -11  21    0.81    0.19
   9 -11  21   -0.11    0.13
   9 -11  21    0.35    0.16
  10 -11  21    0.99    0.20
  10 -11  21    0.33    0.16
  -4 -10  21    0.41    0.12
  -3 -10  21    4.21    0.30
  -2 -10  21    0.02    0.11
  -1 -10  21    1.26    0.18
  -1 -10  21    1.87    0.21
   0 -10  21    1.30    0.18
   0 -10  21    1.43    0.19
   1 -10  21    0.02    0.11
   1 -10  21   -0.02    0.09
   2 -10  21    0.13    0.12
   2 -10  21    0.36    0.13
   3 -10  21    3.22    0.27
   3 -10  21    3.05    0.27
   4 -10  21    0.80    0.16
   4 -10  21    0.92    0.18
   5 -10  21    3.12    0.29
   5 -10  21    2.26    0.24
   6 -10  21    8.81    0.46
   6 -10  21    9.04    0.46
   7 -10  21    1.45    0.21
   7 -10  21    2.07    0.24
   8 -10  21    0.73    0.17
   8 -10  21    0.83    0.19
   9 -10  21    0.64    0.18
   9 -10  21    0.70    0.17
  10 -10  21    0.05    0.14
  10 -10  21    0.05    0.14
  -6  -9  21    1.02    0.14
  -4  -9  21    1.58    0.19
  -3  -9  21    0.15    0.10
  -2  -9  21    6.03    0.34
  -1  -9  21   -0.02    0.08
  -1  -9  21   -0.03    0.10
   0  -9  21    8.72    0.40
   0  -9  21    8.39    0.42
   1  -9  21    0.04    0.09
   1  -9  21    0.10    0.10
   2  -9  21   11.72    0.54
   2  -9  21   12.61    0.52
   3  -9  21    0.77    0.16
   3  -9  21    0.44    0.13
   4  -9  21    0.37    0.13
   4  -9  21    0.30    0.12
   5  -9  21    0.11    0.11
   5  -9  21    0.02    0.12
   6  -9  21   10.71    0.51
   6  -9  21   11.04    0.52
   7  -9  21    6.58    0.39
   7  -9  21    6.78    0.39
   8  -9  21    0.83    0.17
   8  -9  21    0.85    0.19
   9  -9  21    2.09    0.24
   9  -9  21    2.01    0.25
  10  -9  21    0.25    0.15
  10  -9  21    0.10    0.13
  11  -9  21    1.41    0.22
  -7  -8  21    1.82    0.20
  -6  -8  21   16.60    0.66
  -5  -8  21    2.71    0.22
  -5  -8  21    2.19    0.20
  -4  -8  21   17.48    0.67
  -3  -8  21    0.95    0.16
  -2  -8  21    0.32    0.12
  -1  -8  21    3.91    0.26
  -1  -8  21    3.44    0.23
   0  -8  21    0.23    0.10
   0  -8  21    0.18    0.11
   1  -8  21    0.57    0.15
   1  -8  21    0.37    0.11
   2  -8  21    9.60    0.42
   2  -8  21    8.14    0.42
   3  -8  21    0.03    0.09
   3  -8  21   -0.11    0.10
   4  -8  21    0.65    0.15
   4  -8  21    0.70    0.15
   5  -8  21    1.82    0.21
   5  -8  21    1.65    0.21
   6  -8  21    3.10    0.27
   6  -8  21    2.50    0.25
   7  -8  21    1.88    0.23
   7  -8  21    2.75    0.27
   8  -8  21   12.95    0.59
   8  -8  21   13.55    0.60
   9  -8  21    5.17    0.35
   9  -8  21    5.05    0.37
  10  -8  21    0.33    0.15
  10  -8  21    0.16    0.14
  11  -8  21    0.06    0.13
  -8  -7  21    0.29    0.11
  -7  -7  21    0.11    0.10
  -6  -7  21    0.15    0.10
  -5  -7  21    6.10    0.33
  -5  -7  21    6.67    0.35
  -4  -7  21    7.77    0.38
  -4  -7  21    8.14    0.40
  -3  -7  21    4.76    0.28
  -2  -7  21    3.14    0.24
  -2  -7  21    3.36    0.20
  -1  -7  21    6.71    0.32
  -1  -7  21    6.94    0.35
   0  -7  21    7.11    0.34
   0  -7  21    7.79    0.38
   1  -7  21    0.39    0.11
   1  -7  21    0.41    0.13
   2  -7  21   -0.02    0.09
   3  -7  21   11.70    0.49
   4  -7  21    4.52    0.29
   5  -7  21    0.65    0.15
   6  -7  21   -0.14    0.09
   7  -7  21    4.44    0.30
   7  -7  21    3.80    0.30
   8  -7  21    0.23    0.14
   8  -7  21    0.50    0.16
   9  -7  21    3.21    0.30
   9  -7  21    3.58    0.30
  10  -7  21    4.54    0.36
  10  -7  21    4.96    0.34
  -8  -6  21   -0.04    0.10
  -7  -6  21    0.17    0.11
  -6  -6  21    0.21    0.08
  -6  -6  21    0.31    0.12
  -5  -6  21    0.38    0.10
  -5  -6  21    0.16    0.11
  -4  -6  21    5.69    0.31
  -4  -6  21    6.27    0.35
  -3  -6  21    1.74    0.19
  -2  -6  21    5.23    0.25
  -1  -6  21    1.77    0.15
   0  -6  21   -0.04    0.07
   1  -6  21    1.70    0.17
   2  -6  21    4.48    0.26
   3  -6  21    0.81    0.14
   4  -6  21    0.01    0.08
   5  -6  21    0.72    0.15
   6  -6  21    0.15    0.11
   7  -6  21    0.51    0.16
   8  -6  21    4.72    0.33
   9  -6  21    0.36    0.15
  10  -6  21    3.66    0.29
  10  -6  21    3.23    0.32
  -9  -5  21    1.05    0.19
  -8  -5  21   17.21    0.73
  -7  -5  21    2.18    0.23
  -6  -5  21    9.62    0.42
  -6  -5  21   10.03    0.48
  -5  -5  21    1.28    0.18
  -5  -5  21    1.11    0.15
  -4  -5  21    1.22    0.18
  -2  -5  21    0.86    0.11
  -1  -5  21   46.90    1.44
   0  -5  21    0.83    0.12
   1  -5  21   10.57    0.44
   2  -5  21    2.84    0.21
   3  -5  21    7.16    0.35
   4  -5  21    0.25    0.11
   5  -5  21    5.56    0.32
   6  -5  21    4.11    0.30
   7  -5  21    0.17    0.13
   8  -5  21    1.49    0.22
   9  -5  21    0.16    0.13
  10  -5  21    7.97    0.46
 -10  -4  21    5.03    0.41
  -9  -4  21    2.11    0.25
  -8  -4  21    1.65    0.22
  -7  -4  21    3.26    0.28
  -6  -4  21    7.70    0.42
  -5  -4  21   11.18    0.53
  -4  -4  21    7.23    0.40
  -3  -4  21    9.62    0.48
  -2  -4  21    7.16    0.30
  -1  -4  21    2.38    0.18
   0  -4  21    0.05    0.07
   1  -4  21   13.62    0.52
   2  -4  21    4.09    0.25
   3  -4  21    6.49    0.33
   4  -4  21    4.74    0.29
   5  -4  21    0.41    0.13
   6  -4  21    7.18    0.39
   7  -4  21    0.12    0.12
   8  -4  21    0.45    0.16
   9  -4  21    1.13    0.21
 -10  -3  21    1.59    0.23
  -9  -3  21    5.95    0.40
  -8  -3  21    0.50    0.15
  -7  -3  21    6.75    0.40
  -6  -3  21    5.25    0.35
  -5  -3  21    0.05    0.11
  -4  -3  21    3.20    0.28
  -3  -3  21    0.10    0.11
  -2  -3  21   15.06    0.52
  -1  -3  21    1.99    0.15
   0  -3  21    1.54    0.15
   1  -3  21   23.48    0.80
   2  -3  21    4.27    0.26
   3  -3  21    7.00    0.35
   4  -3  21    1.87    0.21
   5  -3  21    9.34    0.45
   6  -3  21    4.16    0.29
   7  -3  21    7.64    0.42
   8  -3  21    0.19    0.15
   9  -3  21    6.12    0.42
 -11  -2  21    0.43    0.17
 -10  -2  21    6.81    0.44
  -9  -2  21    7.25    0.45
  -8  -2  21    0.37    0.14
  -7  -2  21    7.19    0.42
  -6  -2  21    9.03    0.48
  -5  -2  21    0.00    0.10
  -4  -2  21   -0.11    0.10
  -3  -2  21    0.03    0.05
  -3  -2  21   -0.06    0.10
  -2  -2  21   -0.01    0.06
  -1  -2  21    3.73    0.21
   0  -2  21    0.04    0.07
   1  -2  21   -0.02    0.08
   2  -2  21    0.40    0.11
   3  -2  21    2.08    0.21
   4  -2  21    0.69    0.14
   5  -2  21    0.52    0.15
   6  -2  21    2.65    0.27
   7  -2  21   19.83    0.79
   8  -2  21    2.41    0.28
   9  -2  21    2.61    0.32
 -11  -1  21    0.61    0.19
 -10  -1  21    0.92    0.20
  -9  -1  21    0.25    0.15
  -8  -1  21    1.80    0.24
  -7  -1  21   14.44    0.67
  -6  -1  21    3.85    0.32
  -5  -1  21    0.87    0.18
  -4  -1  21    1.88    0.23
  -3  -1  21    5.13    0.35
  -3  -1  21    5.06    0.22
  -2  -1  21    0.27    0.08
  -1  -1  21    0.07    0.07
   0  -1  21   25.26    0.85
   1  -1  21    0.76    0.13
   2  -1  21    5.63    0.30
   3  -1  21    0.18    0.11
   4  -1  21    0.08    0.11
   5  -1  21    0.59    0.16
   6  -1  21    0.20    0.13
   7  -1  21    0.62    0.18
   8  -1  21    9.52    0.53
 -11   0  21    2.14    0.29
 -10   0  21    4.10    0.37
  -9   0  21    0.08    0.13
  -8   0  21    5.75    0.40
  -7   0  21    0.33    0.15
  -6   0  21    3.90    0.33
  -5   0  21    4.93    0.36
  -4   0  21   12.34    0.60
  -3   0  21    0.77    0.10
  -3   0  21    0.87    0.19
  -2   0  21    2.07    0.16
  -1   0  21    1.23    0.14
   0   0  21    1.55    0.17
   1   0  21    7.59    0.36
   2   0  21    1.21    0.17
   3   0  21    0.26    0.11
   4   0  21   -0.07    0.09
   5   0  21    0.26    0.13
   6   0  21    1.09    0.20
   7   0  21    0.09    0.13
 -11   1  21    1.23    0.24
 -10   1  21    6.48    0.46
  -9   1  21    0.03    0.14
  -8   1  21    7.45    0.47
  -7   1  21    0.17    0.13
  -6   1  21    3.44    0.32
  -5   1  21    0.62    0.18
  -4   1  21   -0.02    0.11
  -3   1  21    6.14    0.28
  -2   1  21    4.93    0.26
  -1   1  21   14.91    0.56
   0   1  21    1.50    0.17
   1   1  21    5.55    0.32
   2   1  21    0.13    0.11
   3   1  21    1.55    0.21
   4   1  21   11.23    0.53
   5   1  21    7.95    0.44
   6   1  21    0.43    0.16
   7   1  21    1.98    0.26
 -11   2  21   -0.02    0.14
 -10   2  21    1.23    0.24
  -9   2  21    3.25    0.34
  -8   2  21    1.03    0.21
  -7   2  21    1.39    0.23
  -6   2  21    0.03    0.13
  -5   2  21   19.49    0.85
  -4   2  21    1.61    0.25
  -3   2  21    0.38    0.09
  -2   2  21    0.78    0.13
  -1   2  21   13.27    0.53
   0   2  21    7.18    0.36
   1   2  21    5.23    0.32
   2   2  21    1.08    0.17
   3   2  21    0.03    0.12
   4   2  21    0.00    0.12
   5   2  21    0.58    0.17
   6   2  21    3.36    0.34
 -11   3  21    0.27    0.17
 -10   3  21    0.40    0.18
  -9   3  21    0.85    0.21
  -8   3  21    4.37    0.37
  -7   3  21    0.16    0.15
  -6   3  21    0.93    0.19
  -5   3  21    0.55    0.18
  -4   3  21    3.16    0.20
  -4   3  21    3.50    0.35
  -3   3  21    1.17    0.14
  -2   3  21    0.05    0.09
  -1   3  21    6.78    0.35
   0   3  21    1.19    0.18
   1   3  21    0.32    0.12
   2   3  21   21.51    0.83
   3   3  21    1.37    0.21
   4   3  21    5.84    0.38
   5   3  21    0.59    0.19
 -11   4  21    1.31    0.26
 -10   4  21   17.62    0.84
  -9   4  21    5.00    0.42
  -8   4  21    1.66    0.26
  -7   4  21    5.90    0.44
  -6   4  21    0.06    0.14
  -5   4  21    0.70    0.18
  -4   4  21    1.14    0.14
  -3   4  21    6.38    0.33
  -1   4  21   -0.04    0.09
   0   4  21    3.94    0.29
   1   4  21   -0.13    0.10
   2   4  21   11.63    0.56
   3   4  21    2.35    0.28
   4   4  21    0.18    0.15
 -11   5  21    1.70    0.29
 -10   5  21    2.26    0.31
  -9   5  21    6.71    0.48
  -8   5  21    3.09    0.36
  -7   5  21    6.47    0.47
  -6   5  21   14.43    0.73
   2   5  21    0.17    0.15
   3   5  21    1.86    0.25
   2 -14  22    1.99    0.27
   2 -14  22    1.40    0.24
   3 -14  22    1.66    0.24
   3 -14  22    1.37    0.23
   4 -14  22    3.79    0.36
   4 -14  22    3.20    0.34
   5 -14  22    0.25    0.17
   5 -14  22    0.01    0.14
   6 -14  22   -0.13    0.12
   6 -14  22   -0.11    0.12
   7 -14  22    1.62    0.25
  -1 -13  22    1.21    0.22
   0 -13  22    0.18    0.15
   1 -13  22    0.13    0.14
   1 -13  22    0.40    0.15
   2 -13  22    0.05    0.14
   2 -13  22    0.01    0.12
   3 -13  22    0.36    0.16
   3 -13  22    0.58    0.18
   4 -13  22    0.59    0.17
   4 -13  22    0.56    0.17
   5 -13  22    5.88    0.39
   5 -13  22    5.49    0.38
   6 -13  22    0.09    0.14
   6 -13  22   -0.02    0.13
   7 -13  22   -0.06    0.14
   7 -13  22    0.01    0.15
   8 -13  22    0.46    0.19
   8 -13  22    0.39    0.18
  -2 -12  22    1.87    0.24
  -1 -12  22    0.10    0.12
   0 -12  22   -0.02    0.11
   1 -12  22    2.71    0.28
   1 -12  22    2.10    0.25
   2 -12  22    0.85    0.17
   2 -12  22    0.65    0.16
   3 -12  22    0.34    0.15
   3 -12  22    0.52    0.17
   4 -12  22   17.23    0.73
   4 -12  22   16.75    0.71
   5 -12  22    0.40    0.16
   5 -12  22    0.12    0.12
   6 -12  22    1.32    0.21
   6 -12  22    1.01    0.19
   7 -12  22    4.63    0.37
   7 -12  22    4.80    0.35
   8 -12  22    0.35    0.15
   8 -12  22    0.31    0.17
   9 -12  22    0.15    0.14
   9 -12  22    0.18    0.16
  -3 -11  22    0.48    0.15
  -2 -11  22    0.08    0.11
  -1 -11  22    1.92    0.24
   0 -11  22    0.70    0.15
   0 -11  22    0.83    0.16
   1 -11  22    2.46    0.25
   1 -11  22    2.89    0.27
   2 -11  22   11.84    0.53
   2 -11  22   11.43    0.54
   3 -11  22    0.72    0.17
   3 -11  22    0.53    0.16
   4 -11  22    2.34    0.25
   4 -11  22    2.62    0.28
   5 -11  22    0.01    0.13
   5 -11  22    0.21    0.16
   6 -11  22    1.11    0.20
   6 -11  22    1.15    0.20
   7 -11  22    8.54    0.47
   7 -11  22    8.48    0.46
   8 -11  22   10.47    0.54
   8 -11  22   11.08    0.56
   9 -11  22    0.69    0.17
   9 -11  22    0.47    0.16
  10 -11  22    0.31    0.19
  10 -11  22    0.27    0.16
  -4 -10  22   -0.01    0.06
  -3 -10  22    0.16    0.12
  -2 -10  22    0.07    0.11
  -1 -10  22    1.45    0.20
   0 -10  22    5.62    0.32
   0 -10  22    5.77    0.35
   1 -10  22    0.33    0.13
   1 -10  22    0.57    0.14
   2 -10  22   19.87    0.75
   2 -10  22   19.29    0.77
   3 -10  22    2.35    0.25
   3 -10  22    2.42    0.24
   4 -10  22   12.74    0.58
   4 -10  22   12.85    0.57
   5 -10  22    0.16    0.13
   5 -10  22    0.06    0.12
   6 -10  22   12.49    0.59
   6 -10  22   13.94    0.61
   7 -10  22    1.36    0.22
   7 -10  22    1.09    0.19
   8 -10  22    3.84    0.31
   8 -10  22    4.82    0.36
   9 -10  22    4.99    0.36
   9 -10  22    5.12    0.38
  10 -10  22    0.80    0.19
  10 -10  22    0.73    0.17
  -4  -9  22    0.58    0.14
  -3  -9  22    1.60    0.20
  -2  -9  22    6.51    0.36
  -1  -9  22    0.23    0.09
  -1  -9  22    0.53    0.14
   0  -9  22    4.47    0.28
   0  -9  22    4.74    0.31
   1  -9  22   -0.03    0.09
   1  -9  22    0.02    0.10
   2  -9  22    0.24    0.11
   2  -9  22    0.13    0.13
   3  -9  22   22.71    0.85
   3  -9  22   24.50    0.89
   4  -9  22    0.65    0.17
   4  -9  22    0.71    0.16
   5  -9  22   20.67    0.79
   5  -9  22   19.11    0.76
   6  -9  22    7.93    0.42
   6  -9  22    7.81    0.44
   7  -9  22    6.71    0.40
   7  -9  22    6.65    0.40
   8  -9  22    3.67    0.31
   8  -9  22    3.26    0.32
   9  -9  22   -0.09    0.12
   9  -9  22    0.20    0.14
  10  -9  22    0.22    0.15
  10  -9  22    0.35    0.16
  -7  -8  22    0.13    0.11
  -6  -8  22    1.48    0.18
  -5  -8  22    1.64    0.19
  -4  -8  22    4.84    0.30
  -3  -8  22    0.33    0.12
  -2  -8  22    0.14    0.10
  -1  -8  22    5.66    0.30
  -1  -8  22    6.21    0.34
   0  -8  22   -0.01    0.08
   0  -8  22    0.14    0.11
   1  -8  22   -0.06    0.08
   1  -8  22   -0.12    0.09
   2  -8  22    1.74    0.20
   2  -8  22    2.16    0.24
   3  -8  22    5.59    0.33
   3  -8  22    5.67    0.35
   4  -8  22    2.15    0.22
   4  -8  22    2.14    0.24
   5  -8  22    0.98    0.17
   5  -8  22    0.99    0.19
   6  -8  22    8.11    0.42
   6  -8  22    7.98    0.42
   7  -8  22    0.71    0.18
   7  -8  22    0.42    0.16
   8  -8  22    2.95    0.29
   8  -8  22    3.13    0.30
   9  -8  22    0.02    0.14
   9  -8  22    0.05    0.13
  10  -8  22    5.51    0.40
  10  -8  22    5.85    0.38
  -7  -7  22    8.47    0.44
  -6  -7  22    0.09    0.10
  -5  -7  22    0.60    0.14
  -5  -7  22    0.50    0.13
  -4  -7  22   -0.07    0.08
  -3  -7  22    0.31    0.11
  -2  -7  22    3.36    0.25
  -1  -7  22    0.68    0.12
  -1  -7  22    0.67    0.15
   0  -7  22    0.08    0.10
   0  -7  22    0.14    0.08
   1  -7  22    3.93    0.25
   2  -7  22    2.49    0.21
   3  -7  22    0.32    0.12
   4  -7  22    4.17    0.28
   5  -7  22    0.13    0.11
   6  -7  22    0.60    0.15
   7  -7  22    0.38    0.14
   8  -7  22    0.71    0.17
   8  -7  22    0.62    0.15
   9  -7  22    3.28    0.33
   9  -7  22    2.88    0.28
  10  -7  22    0.18    0.15
  10  -7  22    0.20    0.14
  -8  -6  22    7.54    0.42
  -7  -6  22    4.14    0.31
  -6  -6  22    8.82    0.45
  -5  -6  22    0.57    0.13
  -5  -6  22    0.62    0.14
  -4  -6  22   15.38    0.65
  -4  -6  22   15.39    0.60
  -3  -6  22    1.31    0.16
  -1  -6  22   13.10    0.49
   0  -6  22    2.15    0.18
   1  -6  22    0.93    0.14
   2  -6  22    2.03    0.20
   3  -6  22    0.88    0.15
   4  -6  22    0.40    0.12
   5  -6  22    0.94    0.16
   6  -6  22    9.17    0.46
   7  -6  22    8.24    0.43
   8  -6  22   16.96    0.72
   9  -6  22    0.89    0.19
  10  -6  22    9.16    0.48
  -9  -5  22    0.82    0.19
  -8  -5  22    2.02    0.24
  -7  -5  22    2.28    0.25
  -6  -5  22    0.36    0.13
  -6  -5  22    0.33    0.10
  -5  -5  22   -0.11    0.07
  -5  -5  22    0.07    0.10
  -4  -5  22   -0.12    0.09
  -2  -5  22    7.06    0.32
  -1  -5  22   21.56    0.73
   0  -5  22   20.52    0.71
   1  -5  22    9.41    0.41
   2  -5  22    7.47    0.36
   3  -5  22    4.57    0.28
   4  -5  22    2.85    0.24
   5  -5  22    0.13    0.11
   6  -5  22   -0.13    0.11
   7  -5  22    6.37    0.39
   8  -5  22    9.04    0.48
   9  -5  22    9.87    0.52
  -9  -4  22    3.60    0.32
  -8  -4  22    2.10    0.25
  -7  -4  22    0.47    0.15
  -6  -4  22    0.40    0.14
  -5  -4  22    0.25    0.12
  -4  -4  22    0.29    0.13
  -2  -4  22    1.71    0.15
  -1  -4  22    2.83    0.19
   0  -4  22    0.96    0.13
   1  -4  22    0.49    0.11
   2  -4  22    2.38    0.20
   3  -4  22    1.39    0.18
   4  -4  22    5.34    0.31
   5  -4  22    0.19    0.12
   6  -4  22    0.56    0.16
   7  -4  22    1.59    0.23
   8  -4  22    6.16    0.40
   9  -4  22   -0.15    0.12
 -10  -3  22    0.15    0.14
  -9  -3  22    5.62    0.40
  -8  -3  22    0.97    0.19
  -7  -3  22    0.34    0.14
  -6  -3  22    1.04    0.19
  -5  -3  22    0.03    0.11
  -4  -3  22    1.93    0.24
  -2  -3  22    9.60    0.37
  -1  -3  22    2.37    0.17
   0  -3  22    2.16    0.18
   1  -3  22   11.48    0.46
   2  -3  22    7.51    0.36
   3  -3  22    0.11    0.10
   4  -3  22    3.42    0.25
   5  -3  22    4.03    0.30
   6  -3  22    0.42    0.15
   7  -3  22    2.31    0.27
   8  -3  22    0.08    0.15
 -10  -2  22    0.21    0.15
  -9  -2  22   13.22    0.65
  -8  -2  22    0.89    0.19
  -7  -2  22    0.86    0.19
  -6  -2  22    0.75    0.18
  -5  -2  22    0.30    0.14
  -4  -2  22   16.40    0.72
  -2  -2  22    4.01    0.21
  -1  -2  22    0.76    0.11
   0  -2  22    0.44    0.10
   1  -2  22    1.69    0.17
   2  -2  22    3.04    0.23
   3  -2  22    5.32    0.31
   4  -2  22    0.75    0.14
   5  -2  22    6.07    0.36
   6  -2  22    1.39    0.20
   7  -2  22    8.22    0.46
   8  -2  22    0.20    0.17
 -10  -1  22    1.82    0.27
  -9  -1  22    4.01    0.36
  -8  -1  22    0.66    0.18
  -7  -1  22    0.61    0.17
  -6  -1  22    3.66    0.33
  -5  -1  22    0.19    0.13
  -4  -1  22   -0.12    0.10
  -2  -1  22    1.82    0.15
  -1  -1  22   20.26    0.70
   0  -1  22    0.94    0.13
   1  -1  22    0.05    0.08
   2  -1  22    9.03    0.42
   3  -1  22    7.11    0.37
   4  -1  22    9.14    0.45
   5  -1  22    7.63    0.42
   6  -1  22    8.96    0.48
   7  -1  22   21.86    0.88
 -11   0  22    1.83    0.27
 -10   0  22   -0.06    0.13
  -9   0  22    0.36    0.16
  -8   0  22    5.94    0.42
  -7   0  22    0.29    0.15
  -6   0  22    3.47    0.33
  -5   0  22    0.87    0.19
  -4   0  22    5.72    0.40
  -2   0  22    2.06    0.16
  -1   0  22   -0.06    0.08
   0   0  22    0.23    0.10
   1   0  22    1.17    0.16
   2   0  22    3.30    0.25
   3   0  22    0.06    0.11
   4   0  22    0.12    0.13
   5   0  22   11.04    0.54
   6   0  22   12.06    0.59
   7   0  22    1.25    0.22
 -11   1  22    2.14    0.30
 -10   1  22    2.01    0.28
  -9   1  22    3.68    0.37
  -8   1  22   -0.02    0.12
  -7   1  22    0.49    0.17
  -6   1  22    0.12    0.13
  -5   1  22    1.47    0.23
  -4   1  22    0.80    0.20
  -3   1  22    1.30    0.14
  -2   1  22    7.37    0.33
  -1   1  22    4.74    0.27
   0   1  22    8.72    0.40
   1   1  22    1.98    0.21
   2   1  22    4.35    0.30
   3   1  22    0.26    0.13
   4   1  22    1.39    0.21
   5   1  22   -0.03    0.13
   6   1  22    6.56    0.43
 -11   2  22    0.21    0.17
 -10   2  22    1.38    0.26
  -9   2  22    0.36    0.18
  -8   2  22    0.00    0.14
  -7   2  22    4.22    0.37
  -6   2  22    0.72    0.19
  -5   2  22    0.46    0.17
  -4   2  22    4.82    0.38
  -3   2  22    1.23    0.14
  -2   2  22    1.37    0.16
  -1   2  22    0.98    0.15
   0   2  22   11.83    0.51
   1   2  22    7.20    0.38
   2   2  22    0.54    0.15
   3   2  22   10.60    0.52
   4   2  22    0.06    0.15
   5   2  22    5.98    0.41
 -11   3  22   -0.15    0.14
 -10   3  22    9.94    0.60
  -9   3  22    9.08    0.56
  -8   3  22    2.39    0.31
  -7   3  22    2.71    0.33
  -6   3  22   -0.03    0.12
  -5   3  22    0.06    0.14
  -3   3  22   12.22    0.48
  -2   3  22    0.09    0.09
  -1   3  22    3.67    0.26
   0   3  22    0.28    0.11
   1   3  22    0.42    0.14
   2   3  22    0.12    0.13
   3   3  22    1.27    0.21
   4   3  22    0.03    0.12
 -11   4  22    8.89    0.58
 -10   4  22    1.85    0.29
  -9   4  22    1.67    0.29
  -8   4  22   13.15    0.70
  -7   4  22    0.70    0.20
  -6   4  22    7.41    0.49
  -5   4  22    5.75    0.44
  -3   4  22    5.18    0.29
  -2   4  22   -0.09    0.09
  -1   4  22    0.81    0.16
   0   4  22    0.82    0.16
   1   4  22    3.47    0.29
   2   4  22    1.36    0.22
   3   4  22    7.81    0.46
 -10   5  22    1.42    0.30
  -9   5  22    5.21    0.46
  -8   5  22    0.91    0.26
   0   5  22    0.53    0.16
   1   5  22    0.03    0.13
   2   5  22    0.07    0.14
   4 -14  23    1.12    0.23
   4 -14  23    1.05    0.22
   5 -14  23    7.37    0.47
   0 -13  23    1.04    0.21
   1 -13  23    2.99    0.31
   2 -13  23    3.73    0.31
   2 -13  23    3.58    0.31
   3 -13  23    1.15    0.22
   3 -13  23    1.03    0.21
   4 -13  23    0.13    0.14
   4 -13  23   -0.07    0.12
   5 -13  23    0.25    0.16
   5 -13  23    0.15    0.15
   6 -13  23    0.99    0.21
   6 -13  23    1.27    0.22
   7 -13  23    1.70    0.26
   7 -13  23    1.08    0.21
  -1 -12  23    9.44    0.49
   0 -12  23    7.48    0.44
   1 -12  23   -0.19    0.07
   1 -12  23    0.08    0.13
   2 -12  23    1.34    0.21
   2 -12  23    1.68    0.23
   3 -12  23    4.17    0.34
   3 -12  23    4.49    0.33
   4 -12  23    1.00    0.20
   4 -12  23    1.50    0.23
   5 -12  23    1.39    0.22
   5 -12  23    1.56    0.23
   6 -12  23    2.05    0.26
   6 -12  23    2.14    0.27
   7 -12  23    0.24    0.15
   7 -12  23   -0.23    0.11
   8 -12  23    2.57    0.31
   8 -12  23    2.17    0.27
  -3 -11  23    0.48    0.15
  -2 -11  23    0.92    0.18
  -1 -11  23    6.72    0.40
   0 -11  23   -0.03    0.12
   1 -11  23    4.86    0.33
   1 -11  23    4.79    0.32
   2 -11  23    0.63    0.15
   2 -11  23    0.63    0.16
   3 -11  23    4.88    0.33
   3 -11  23    5.13    0.36
   4 -11  23    0.33    0.14
   4 -11  23    0.35    0.14
   5 -11  23   25.59    0.96
   5 -11  23   25.34    0.98
   6 -11  23    6.38    0.41
   6 -11  23    6.18    0.41
   7 -11  23    1.84    0.26
   7 -11  23    1.76    0.25
   8 -11  23    1.13    0.21
   8 -11  23    1.41    0.23
   9 -11  23    2.10    0.28
   9 -11  23    2.27    0.30
  -3 -10  23    0.90    0.17
  -2 -10  23    0.36    0.14
  -1 -10  23    7.51    0.40
   0 -10  23    5.50    0.36
   1 -10  23   -0.18    0.09
   1 -10  23   -0.06    0.11
   2 -10  23    0.64    0.14
   2 -10  23    0.25    0.15
   3 -10  23   -0.04    0.11
   3 -10  23    0.39    0.15
   4 -10  23    6.02    0.38
   4 -10  23    7.09    0.40
   5 -10  23   14.04    0.62
   5 -10  23   13.75    0.63
   6 -10  23    3.01    0.30
   6 -10  23    3.11    0.30
   7 -10  23    2.40    0.27
   7 -10  23    2.50    0.27
   8 -10  23    6.61    0.43
   8 -10  23    7.08    0.42
   9 -10  23    0.29    0.16
   9 -10  23    0.45    0.18
  -4  -9  23    1.62    0.20
  -3  -9  23    8.09    0.41
  -2  -9  23    6.36    0.37
  -1  -9  23    0.73    0.16
   0  -9  23   12.27    0.52
   0  -9  23   13.42    0.57
   1  -9  23   12.23    0.54
   1  -9  23   10.98    0.49
   2  -9  23   14.29    0.59
   2  -9  23   14.17    0.61
   3  -9  23   13.90    0.59
   3  -9  23   14.80    0.63
   4  -9  23    4.88    0.33
   4  -9  23    4.35    0.34
   5  -9  23    0.79    0.17
   5  -9  23    0.48    0.15
   6  -9  23    6.64    0.38
   6  -9  23    6.00    0.39
   7  -9  23    0.24    0.13
   7  -9  23    0.31    0.15
   8  -9  23    0.33    0.17
   8  -9  23    0.91    0.20
   9  -9  23    2.16    0.26
   9  -9  23    1.91    0.26
  -6  -8  23    0.97    0.17
  -4  -8  23    0.19    0.12
  -3  -8  23    0.15    0.11
  -2  -8  23    7.35    0.39
  -1  -8  23    1.81    0.21
   0  -8  23    3.66    0.24
   0  -8  23    3.42    0.28
   1  -8  23    6.03    0.37
   1  -8  23    6.46    0.34
   2  -8  23    0.56    0.14
   2  -8  23    0.53    0.16
   3  -8  23    9.34    0.44
   3  -8  23    9.58    0.48
   4  -8  23    0.69    0.17
   4  -8  23    0.46    0.15
   5  -8  23    0.22    0.13
   5  -8  23   -0.15    0.12
   6  -8  23    6.12    0.37
   6  -8  23    7.41    0.42
   7  -8  23    0.13    0.14
   7  -8  23    0.17    0.15
   8  -8  23    0.67    0.17
   8  -8  23    0.81    0.19
   9  -8  23   -0.13    0.12
   9  -8  23   -0.08    0.11
  -7  -7  23    0.12    0.11
  -6  -7  23    0.98    0.17
  -5  -7  23    0.64    0.15
  -5  -7  23    0.39    0.12
  -4  -7  23    5.18    0.31
  -3  -7  23    1.98    0.21
  -2  -7  23    8.83    0.43
  -1  -7  23    0.17    0.12
   0  -7  23   -0.04    0.09
   0  -7  23   -0.03    0.08
   1  -7  23    0.55    0.12
   2  -7  23    1.46    0.18
   3  -7  23    0.02    0.10
   4  -7  23    3.84    0.28
   5  -7  23    3.21    0.27
   6  -7  23    0.01    0.12
   7  -7  23    1.11    0.20
   8  -7  23    1.58    0.23
   8  -7  23    1.47    0.23
   9  -7  23    2.02    0.25
   9  -7  23    2.18    0.27
  -7  -6  23    0.86    0.17
  -6  -6  23    4.08    0.32
  -5  -6  23    0.62    0.15
  -5  -6  23    1.03    0.16
  -4  -6  23    5.78    0.32
  -3  -6  23    3.56    0.26
  -1  -6  23    1.24    0.14
   0  -6  23    8.69    0.38
   1  -6  23    9.35    0.41
   2  -6  23    3.08    0.23
   3  -6  23    0.24    0.12
   4  -6  23    1.10    0.17
   5  -6  23   -0.22    0.09
   6  -6  23    0.28    0.13
   7  -6  23    3.90    0.30
   8  -6  23    0.24    0.15
   9  -6  23    0.99    0.21
  -8  -5  23    9.38    0.50
  -7  -5  23    1.33    0.21
  -6  -5  23    2.04    0.21
  -6  -5  23    2.27    0.25
  -5  -5  23    2.57    0.21
  -5  -5  23    2.32    0.25
  -4  -5  23    3.56    0.29
  -1  -5  23    1.12    0.14
   0  -5  23   -0.06    0.07
   1  -5  23    7.31    0.35
   2  -5  23    0.09    0.09
   3  -5  23   16.99    0.65
   4  -5  23    4.88    0.30
   5  -5  23    0.99    0.17
   6  -5  23    0.37    0.14
   7  -5  23    0.57    0.17
   8  -5  23    0.10    0.13
   9  -5  23    2.33    0.29
  -9  -4  23    0.63    0.18
  -8  -4  23   -0.04    0.12
  -7  -4  23    0.23    0.14
  -6  -4  23    3.49    0.31
  -5  -4  23    0.52    0.15
  -4  -4  23   19.91    0.83
  -1  -4  23   22.32    0.75
   0  -4  23    6.98    0.33
   1  -4  23    0.62    0.12
   2  -4  23    0.81    0.14
   3  -4  23    6.58    0.35
   4  -4  23    1.01    0.16
   5  -4  23    0.47    0.15
   6  -4  23    8.81    0.46
   7  -4  23    3.73    0.30
   8  -4  23   -0.16    0.11
  -9  -3  23    0.52    0.16
  -8  -3  23    0.50    0.17
  -7  -3  23   12.00    0.60
  -6  -3  23   12.61    0.61
  -5  -3  23    0.36    0.15
  -4  -3  23    2.85    0.29
  -1  -3  23    4.78    0.25
   0  -3  23    7.60    0.35
   1  -3  23    6.02    0.31
   2  -3  23    4.15    0.26
   3  -3  23    0.80    0.14
   4  -3  23    1.35    0.19
   5  -3  23    1.07    0.18
   6  -3  23    6.84    0.40
   7  -3  23    0.31    0.15
   8  -3  23    5.79    0.41
 -10  -2  23   -0.01    0.13
  -9  -2  23    0.39    0.17
  -8  -2  23    2.50    0.29
  -7  -2  23    0.86    0.20
  -6  -2  23    2.64    0.29
  -5  -2  23    0.12    0.13
  -4  -2  23    5.98    0.40
  -2  -2  23    1.27    0.14
  -1  -2  23    0.52    0.10
   0  -2  23   -0.07    0.07
   1  -2  23    0.64    0.13
   2  -2  23    0.04    0.09
   3  -2  23    0.70    0.15
   4  -2  23    0.32    0.14
   5  -2  23    0.20    0.12
   6  -2  23    4.13    0.32
   7  -2  23    1.35    0.24
 -10  -1  23    0.32    0.16
  -9  -1  23    6.13    0.43
  -8  -1  23    4.92    0.39
  -7  -1  23    2.40    0.29
  -6  -1  23    3.40    0.32
  -5  -1  23    1.64    0.24
  -4  -1  23    1.94    0.26
  -2  -1  23    0.32    0.09
  -1  -1  23    3.38    0.22
   0  -1  23    6.08    0.31
   1  -1  23    0.03    0.09
   2  -1  23    2.57    0.22
   3  -1  23    8.26    0.42
   4  -1  23    0.25    0.12
   5  -1  23    7.26    0.41
   6  -1  23    1.88    0.26
   7  -1  23   -0.14    0.14
 -10   0  23    9.58    0.56
  -9   0  23    0.13    0.15
  -8   0  23   11.74    0.63
  -7   0  23   -0.17    0.11
  -6   0  23   12.87    0.65
  -5   0  23    0.27    0.15
  -4   0  23    8.58    0.50
  -2   0  23    4.11    0.23
  -1   0  23   19.99    0.71
   0   0  23   16.33    0.62
   1   0  23    1.43    0.19
   2   0  23    0.17    0.11
   3   0  23    0.16    0.10
   4   0  23   12.63    0.57
   5   0  23   14.27    0.64
   6   0  23    1.94    0.27
 -10   1  23    0.45    0.18
  -9   1  23    7.05    0.48
  -8   1  23    0.23    0.16
  -7   1  23    7.28    0.48
  -6   1  23    1.36    0.23
  -5   1  23    5.67    0.42
  -4   1  23    0.03    0.13
  -2   1  23    4.04    0.24
  -1   1  23    1.29    0.16
   0   1  23    0.32    0.12
   1   1  23    4.46    0.29
   2   1  23    0.11    0.11
   3   1  23    4.80    0.33
   4   1  23    4.72    0.35
   5   1  23    0.06    0.13
 -10   2  23    0.80    0.21
  -9   2  23    0.18    0.16
  -8   2  23    4.88    0.42
  -7   2  23    1.78    0.26
  -6   2  23    0.26    0.16
  -5   2  23    0.95    0.22
  -2   2  23    5.47    0.29
  -1   2  23    7.19    0.36
   0   2  23    7.68    0.39
   1   2  23    7.02    0.39
   2   2  23    0.23    0.12
   3   2  23   11.71    0.56
   4   2  23    5.73    0.39
 -10   3  23    5.96    0.47
  -9   3  23    2.40    0.32
  -8   3  23    1.09    0.24
  -7   3  23    2.92    0.35
  -6   3  23    0.21    0.16
  -5   3  23    0.32    0.16
  -2   3  23    0.26    0.11
  -1   3  23    0.09    0.10
   0   3  23    3.46    0.27
   1   3  23    1.19    0.19
   2   3  23    3.15    0.30
   3   3  23    1.22    0.21
 -10   4  23    0.33    0.19
  -9   4  23    6.64    0.51
  -8   4  23   -0.04    0.14
  -7   4  23    1.53    0.26
  -6   4  23    2.02    0.31
  -5   4  23    0.53    0.20
  -2   4  23    1.96    0.21
  -1   4  23    2.90    0.25
   0   4  23    0.17    0.13
   1   4  23    1.55    0.22
   2   4  23    0.81    0.19
  -2   5  23    1.14    0.18
  -1   5  23    2.67    0.27
   0   5  23    0.54    0.16
   1   5  23    6.07    0.40
   2 -13  24    0.05    0.10
   2 -13  24    0.46    0.16
   3 -13  24    0.17    0.15
   3 -13  24    0.74    0.18
   4 -13  24    0.01    0.12
   4 -13  24   -0.09    0.12
   5 -13  24    0.50    0.18
   5 -13  24    0.57    0.19
   6 -13  24    0.17    0.15
  -1 -12  24    0.34    0.15
   0 -12  24    2.76    0.29
   1 -12  24    0.91    0.20
   2 -12  24    0.14    0.13
   2 -12  24    0.04    0.12
   3 -12  24    0.53    0.16
   3 -12  24    0.70    0.18
   4 -12  24    0.57    0.18
   4 -12  24    0.96    0.19
   5 -12  24   -0.07    0.13
   5 -12  24   -0.15    0.12
   6 -12  24    0.02    0.14
   6 -12  24    0.32    0.16
   7 -12  24    2.14    0.29
   7 -12  24    2.87    0.31
  -2 -11  24    0.38    0.14
  -1 -11  24    0.68    0.17
   0 -11  24    0.76    0.18
   2 -11  24    0.28    0.14
   2 -11  24    0.25    0.14
   3 -11  24    2.84    0.27
   3 -11  24    2.35    0.26
   4 -11  24    0.02    0.14
   4 -11  24    0.21    0.13
   5 -11  24    0.90    0.20
   5 -11  24    0.73    0.17
   6 -11  24    2.79    0.30
   6 -11  24    2.71    0.28
   7 -11  24    6.09    0.40
   7 -11  24    5.80    0.39
   8 -11  24    0.39    0.16
   8 -11  24    0.27    0.16
  -3 -10  24    1.80    0.22
  -2 -10  24    0.40    0.14
  -1 -10  24    0.08    0.11
   0 -10  24    1.11    0.19
   1 -10  24   10.05    0.49
   1 -10  24   12.62    0.55
   2 -10  24    3.60    0.30
   2 -10  24    4.01    0.28
   3 -10  24    2.03    0.25
   3 -10  24    2.02    0.23
   4 -10  24    0.15    0.13
   4 -10  24    0.09    0.13
   5 -10  24    6.51    0.40
   5 -10  24    6.64    0.41
   6 -10  24    8.14    0.46
   6 -10  24    8.70    0.47
   7 -10  24    5.76    0.40
   7 -10  24    5.73    0.38
   8 -10  24    4.88    0.38
   8 -10  24    4.72    0.35
  -4  -9  24    0.36    0.12
  -3  -9  24    0.63    0.15
  -2  -9  24    2.59    0.27
  -1  -9  24    3.29    0.28
   0  -9  24    3.17    0.26
   1  -9  24    5.60    0.32
   1  -9  24    5.43    0.34
   2  -9  24    1.27    0.18
   2  -9  24    1.19    0.19
   3  -9  24    0.00    0.13
   3  -9  24   -0.08    0.10
   4  -9  24    3.74    0.33
   4  -9  24    4.22    0.31
   5  -9  24   -0.03    0.12
   5  -9  24    0.00    0.12
   6  -9  24    1.67    0.24
   6  -9  24    2.07    0.25
   7  -9  24    0.03    0.14
   7  -9  24    0.09    0.14
   8  -9  24    1.26    0.24
   8  -9  24    1.33    0.22
  -4  -8  24    1.53    0.20
  -3  -8  24    1.11    0.17
  -2  -8  24    5.72    0.34
  -1  -8  24   -0.05    0.11
   0  -8  24    0.40    0.10
   0  -8  24    1.08    0.18
   1  -8  24    4.01    0.27
   1  -8  24    4.38    0.32
   2  -8  24    0.84    0.18
   2  -8  24    0.37    0.13
   3  -8  24   -0.02    0.13
   3  -8  24    0.09    0.11
   4  -8  24   14.06    0.59
   4  -8  24   13.10    0.60
   5  -8  24    1.36    0.21
   5  -8  24    1.51    0.22
   6  -8  24    0.05    0.13
   6  -8  24    0.36    0.15
   7  -8  24    0.65    0.17
   7  -8  24    0.45    0.17
   8  -8  24    0.36    0.17
   8  -8  24    0.58    0.16
  -6  -7  24    2.12    0.24
  -5  -7  24    5.63    0.32
  -4  -7  24    8.09    0.40
  -3  -7  24    0.02    0.11
  -2  -7  24   11.02    0.50
  -1  -7  24    2.01    0.22
   0  -7  24    2.28    0.25
   0  -7  24    2.19    0.20
   1  -7  24    0.49    0.12
   2  -7  24    1.16    0.17
   3  -7  24    1.78    0.20
   4  -7  24   -0.18    0.10
   5  -7  24   -0.23    0.10
   6  -7  24    0.07    0.12
   7  -7  24    1.02    0.18
   8  -7  24    1.08    0.20
   8  -7  24    0.91    0.19
  -7  -6  24   -0.10    0.10
  -6  -6  24    0.82    0.17
  -5  -6  24    0.12    0.13
  -5  -6  24    0.19    0.10
  -4  -6  24    9.41    0.44
  -3  -6  24    3.53    0.27
   0  -6  24    0.95    0.14
   1  -6  24    2.88    0.22
   2  -6  24    4.85    0.29
   3  -6  24    0.66    0.14
   4  -6  24   -0.05    0.10
   5  -6  24    2.94    0.25
   6  -6  24    2.23    0.24
   7  -6  24    0.76    0.18
   8  -6  24    0.23    0.15
  -7  -5  24   12.02    0.59
  -6  -5  24    9.83    0.44
  -5  -5  24    8.81    0.48
  -5  -5  24    8.31    0.41
   0  -5  24    1.48    0.16
   1  -5  24    5.59    0.30
   2  -5  24    7.61    0.37
   3  -5  24    6.18    0.34
   4  -5  24    1.18    0.17
   5  -5  24    2.33    0.25
   6  -5  24    0.59    0.17
   7  -5  24    5.54    0.38
   8  -5  24    0.02    0.13
  -8  -4  24    1.26    0.22
  -7  -4  24    2.89    0.30
  -6  -4  24    0.07    0.12
  -5  -4  24   17.38    0.77
  -1  -4  24    0.95    0.13
   0  -4  24    0.92    0.14
   1  -4  24   14.55    0.56
   2  -4  24   -0.02    0.09
   3  -4  24   -0.14    0.08
   4  -4  24    1.59    0.20
   5  -4  24    0.06    0.12
   6  -4  24    2.33    0.25
   7  -4  24    0.64    0.18
   8  -4  24    0.02    0.14
  -9  -3  24    0.25    0.15
  -8  -3  24    1.78    0.26
  -7  -3  24    0.16    0.15
  -6  -3  24    0.11    0.14
  -5  -3  24    0.03    0.12
  -4  -3  24    0.81    0.19
  -1  -3  24    1.10    0.14
   0  -3  24    6.23    0.31
   1  -3  24    0.45    0.12
   2  -3  24    0.24    0.11
   3  -3  24    0.65    0.14
   4  -3  24    9.26    0.45
   5  -3  24    0.60    0.17
   6  -3  24    0.27    0.16
   7  -3  24    4.07    0.34
  -9  -2  24    0.77    0.20
  -8  -2  24    0.19    0.15
  -7  -2  24   12.73    0.65
  -6  -2  24    1.07    0.21
  -5  -2  24    5.93    0.42
  -4  -2  24    2.02    0.27
  -1  -2  24    3.98    0.23
   0  -2  24   13.22    0.52
   1  -2  24    3.08    0.23
   2  -2  24    0.08    0.09
   3  -2  24    0.41    0.13
   4  -2  24    6.89    0.39
   5  -2  24    8.38    0.44
   6  -2  24   11.46    0.56
   7  -2  24    7.68    0.46
  -9  -1  24   -0.06    0.14
  -8  -1  24    5.66    0.43
  -7  -1  24    4.57    0.39
  -6  -1  24    2.67    0.30
  -5  -1  24    5.66    0.42
  -1  -1  24    0.70    0.12
   0  -1  24    0.16    0.10
   1  -1  24    8.27    0.40
   2  -1  24   -0.05    0.09
   3  -1  24    1.15    0.19
   4  -1  24    0.03    0.12
   5  -1  24    2.27    0.26
   6  -1  24    0.16    0.15
  -9   0  24    0.54    0.19
  -8   0  24    3.53    0.37
  -7   0  24    0.11    0.14
  -6   0  24    0.44    0.17
  -5   0  24   -0.01    0.13
  -1   0  24    0.77    0.13
   0   0  24    0.25    0.10
   1   0  24    7.97    0.40
   2   0  24    3.05    0.26
   3   0  24    0.06    0.12
   4   0  24    6.28    0.40
   5   0  24    0.05    0.13
  -9   1  24    0.26    0.17
  -8   1  24    1.92    0.29
  -7   1  24    7.14    0.49
  -6   1  24    2.00    0.28
  -5   1  24    0.07    0.14
  -1   1  24    8.92    0.41
   0   1  24    2.36    0.22
   1   1  24    0.33    0.13
   2   1  24    6.08    0.36
   3   1  24    2.67    0.27
   4   1  24    0.69    0.19
  -9   2  24    0.84    0.23
  -8   2  24    0.58    0.22
  -7   2  24    4.17    0.39
  -6   2  24    1.16    0.25
  -5   2  24    3.91    0.37
  -1   2  24    6.95    0.36
   0   2  24    1.55    0.20
   1   2  24    4.35    0.31
   2   2  24    0.30    0.14
   3   2  24    0.39    0.16
  -9   3  24    0.46    0.21
  -8   3  24    0.27    0.18
  -7   3  24    0.39    0.19
  -6   3  24    1.26    0.25
  -5   3  24    9.60    0.58
  -1   3  24    4.26    0.29
   0   3  24    3.63    0.28
   1   3  24    8.76    0.46
   2   3  24    7.20    0.43
  -9   4  24   10.88    0.66
  -8   4  24    0.27    0.19
  -7   4  24    1.94    0.30
  -1   4  24    0.18    0.11
   0   4  24    0.32    0.14
   1   4  24    2.65    0.28
  -1   5  24    0.01    0.12
   1 -12  25    0.16    0.15
   2 -12  25    0.08    0.14
   3 -12  25    0.10    0.13
   3 -12  25   -0.05    0.12
   4 -12  25   -0.19    0.13
   4 -12  25   -0.02    0.13
   5 -12  25    0.18    0.15
   5 -12  25   -0.18    0.12
  -1 -11  25    6.78    0.41
   0 -11  25   -0.09    0.10
   1 -11  25    0.07    0.14
   2 -11  25    0.16    0.15
   2 -11  25    0.12    0.11
   3 -11  25    0.49    0.15
   3 -11  25    0.11    0.15
   4 -11  25   -0.06    0.11
   4 -11  25   -0.03    0.12
   5 -11  25    2.08    0.25
   5 -11  25    1.36    0.22
   6 -11  25    1.41    0.22
   6 -11  25    1.29    0.23
   7 -11  25    0.01    0.14
  -3 -10  25    2.59    0.27
  -2 -10  25    0.02    0.12
  -1 -10  25    1.51    0.22
   0 -10  25    6.05    0.38
   1 -10  25    4.27    0.33
   2 -10  25   10.71    0.53
   2 -10  25    9.69    0.48
   3 -10  25   -0.04    0.11
   3 -10  25    0.00    0.12
   4 -10  25   10.74    0.51
   4 -10  25    9.90    0.53
   5 -10  25    0.67    0.17
   5 -10  25    0.64    0.17
   6 -10  25    6.79    0.43
   6 -10  25    6.89    0.43
   7 -10  25    1.93    0.26
   7 -10  25    2.15    0.27
  -4  -9  25    2.02    0.23
  -3  -9  25    1.62    0.21
  -2  -9  25   15.06    0.64
  -1  -9  25    2.39    0.26
   0  -9  25    1.43    0.21
   1  -9  25    0.30    0.14
   1  -9  25   -0.03    0.06
   2  -9  25    2.97    0.25
   2  -9  25    3.61    0.29
   3  -9  25   13.33    0.57
   3  -9  25   12.91    0.60
   4  -9  25   -0.12    0.13
   4  -9  25    0.11    0.12
   5  -9  25    7.33    0.45
   5  -9  25    7.46    0.42
   6  -9  25    3.77    0.34
   6  -9  25    3.35    0.29
   7  -9  25    0.05    0.13
   7  -9  25    0.12    0.16
  -4  -8  25    0.30    0.12
  -3  -8  25    0.05    0.11
  -2  -8  25    3.62    0.29
  -1  -8  25    6.81    0.39
   0  -8  25    2.74    0.28
   1  -8  25    5.25    0.34
   1  -8  25    3.54    0.26
   2  -8  25    3.71    0.28
   2  -8  25    4.17    0.31
   3  -8  25    1.34    0.21
   3  -8  25    1.88    0.22
   4  -8  25    0.85    0.18
   4  -8  25    1.24    0.22
   5  -8  25    0.68    0.19
   5  -8  25    0.78    0.18
   6  -8  25    0.33    0.16
   6  -8  25    0.34    0.16
   7  -8  25    1.23    0.22
   7  -8  25    0.77    0.20
   8  -8  25   -0.16    0.13
   8  -8  25   -0.16    0.14
  -5  -7  25    1.88    0.21
  -4  -7  25    1.05    0.18
  -3  -7  25    3.69    0.28
  -2  -7  25   13.18    0.58
  -1  -7  25    0.76    0.17
   1  -7  25   -0.02    0.08
   2  -7  25    0.04    0.10
   3  -7  25    3.15    0.26
   4  -7  25    1.23    0.19
   5  -7  25    0.33    0.15
   6  -7  25    3.25    0.31
   7  -7  25    1.27    0.21
   8  -7  25    1.26    0.21
  -6  -6  25   12.38    0.60
  -5  -6  25    1.25    0.18
  -4  -6  25    2.83    0.25
   1  -6  25    6.49    0.34
   2  -6  25    0.86    0.15
   3  -6  25    1.64    0.20
   4  -6  25    0.78    0.16
   5  -6  25    1.67    0.22
   6  -6  25    4.97    0.35
   7  -6  25    0.39    0.16
  -7  -5  25    1.91    0.25
  -6  -5  25    1.03    0.20
  -5  -5  25    1.65    0.23
   0  -5  25    6.00    0.30
   1  -5  25    6.56    0.34
   2  -5  25    0.72    0.15
   3  -5  25    4.83    0.31
   4  -5  25    0.47    0.14
   5  -5  25    0.67    0.16
   6  -5  25    0.85    0.19
   7  -5  25    0.10    0.12
  -7  -4  25    2.42    0.29
  -6  -4  25    0.05    0.13
  -5  -4  25    0.17    0.15
   0  -4  25    6.89    0.34
   1  -4  25    0.95    0.15
   2  -4  25    4.30    0.28
   3  -4  25    0.19    0.12
   4  -4  25    1.17    0.19
   5  -4  25    3.96    0.31
   6  -4  25    1.08    0.20
   7  -4  25    0.38    0.15
  -8  -3  25   -0.04    0.13
  -7  -3  25    0.81    0.19
  -6  -3  25    2.15    0.28
  -5  -3  25    2.40    0.29
   0  -3  25    2.24    0.21
   1  -3  25   -0.02    0.09
   2  -3  25    0.78    0.14
   3  -3  25    0.94    0.16
   4  -3  25    0.42    0.13
   5  -3  25    3.20    0.30
   6  -3  25    7.98    0.46
  -8  -2  25    1.48    0.25
  -7  -2  25    1.05    0.22
  -6  -2  25    1.48    0.25
  -5  -2  25    0.40    0.18
   0  -2  25    0.17    0.09
   1  -2  25    3.43    0.24
   2  -2  25    0.85    0.16
   3  -2  25    1.74    0.21
   4  -2  25    1.22    0.19
   5  -2  25   18.24    0.75
   6  -2  25    0.04    0.14
  -8  -1  25   -0.03    0.14
  -7  -1  25    6.83    0.47
  -6  -1  25    0.07    0.15
  -5  -1  25    3.93    0.37
   0  -1  25   11.32    0.48
   1  -1  25   -0.01    0.09
   2  -1  25    0.05    0.11
   3  -1  25    3.59    0.29
   4  -1  25   -0.06    0.12
   5  -1  25    5.42    0.38
  -9   0  25    0.67    0.21
  -8   0  25    5.92    0.45
  -7   0  25    1.80    0.28
  -6   0  25    6.50    0.46
  -5   0  25    0.33    0.17
  -1   0  25    0.00    0.05
   0   0  25    0.08    0.09
   1   0  25    0.69    0.15
   2   0  25    7.32    0.40
   3   0  25    0.23    0.14
   4   0  25   -0.09    0.13
  -9   1  25    2.31    0.32
  -8   1  25    1.16    0.23
  -7   1  25    8.03    0.53
  -6   1  25    1.97    0.29
  -5   1  25    1.01    0.23
   0   1  25    3.57    0.27
   1   1  25    1.45    0.19
   2   1  25   -0.01    0.11
   3   1  25    3.00    0.29
  -8   2  25    0.68    0.20
  -7   2  25   -0.04    0.17
  -6   2  25    4.12    0.41
  -1   2  25    0.38    0.09
   0   2  25    0.79    0.16
   1   2  25    0.06    0.12
   2   2  25    8.18    0.45
  -8   3  25    2.44    0.35
  -7   3  25    8.09    0.56
  -6   3  25    0.59    0.21
   0   3  25    1.95    0.23
   1   3  25    1.09    0.20
  -1   4  25    0.25    0.09
   0 -11  26    0.50    0.18
   1 -11  26    0.14    0.13
   2 -11  26    0.04    0.14
   3 -11  26    3.85    0.34
   3 -11  26    4.19    0.31
   4 -11  26    5.88    0.39
   4 -11  26    5.48    0.37
   5 -11  26    2.78    0.30
  -1 -10  26    3.61    0.31
   0 -10  26    4.95    0.34
   1 -10  26    2.15    0.25
   2 -10  26   -0.03    0.07
   2 -10  26    0.00    0.13
   3 -10  26    0.92    0.18
   3 -10  26    1.20    0.21
   4 -10  26    0.18    0.13
   4 -10  26    0.00    0.12
   5 -10  26    1.24    0.23
   5 -10  26    0.59    0.17
   6 -10  26    0.08    0.17
   6 -10  26   -0.08    0.13
  -3  -9  26    2.89    0.29
  -2  -9  26    0.15    0.13
  -1  -9  26    0.04    0.12
   0  -9  26    6.57    0.40
   1  -9  26   -0.14    0.11
   2  -9  26    4.96    0.33
   2  -9  26    7.11    0.40
   3  -9  26    5.48    0.35
   3  -9  26    5.84    0.39
   4  -9  26   -0.04    0.11
   4  -9  26    0.04    0.12
   5  -9  26    0.61    0.18
   5  -9  26    0.51    0.17
   6  -9  26    2.13    0.27
   6  -9  26    2.41    0.28
  -4  -8  26    1.46    0.20
  -3  -8  26    0.62    0.15
  -2  -8  26    6.81    0.40
  -1  -8  26    0.06    0.13
   0  -8  26   -0.07    0.12
   1  -8  26    1.03    0.19
   2  -8  26    4.69    0.32
   2  -8  26    5.65    0.37
   3  -8  26    5.46    0.38
   3  -8  26    4.79    0.33
   4  -8  26   -0.07    0.12
   4  -8  26   -0.08    0.11
   5  -8  26    2.14    0.25
   5  -8  26    2.57    0.29
   6  -8  26   -0.08    0.12
   6  -8  26    0.10    0.14
   7  -8  26    0.51    0.18
  -5  -7  26   -0.03    0.07
  -4  -7  26    5.41    0.34
  -3  -7  26    4.04    0.30
  -2  -7  26    0.06    0.13
  -1  -7  26    2.93    0.26
   2  -7  26   -0.02    0.10
   3  -7  26   17.67    0.70
   4  -7  26    1.60    0.22
   5  -7  26    1.53    0.22
   6  -7  26    1.68    0.24
  -5  -6  26   -0.05    0.10
  -4  -6  26    1.88    0.22
   1  -6  26    0.14    0.08
   2  -6  26    0.12    0.11
   3  -6  26    1.15    0.18
   4  -6  26    0.20    0.12
   5  -6  26    0.14    0.12
   6  -6  26    2.01    0.24
  -6  -5  26    0.04    0.13
   1  -5  26    0.01    0.09
   2  -5  26   -0.07    0.09
   3  -5  26    5.39    0.33
   4  -5  26    0.57    0.16
   5  -5  26    0.35    0.14
   6  -5  26    0.36    0.15
  -7  -4  26    0.06    0.14
  -6  -4  26    0.04    0.13
   1  -4  26    1.64    0.18
   2  -4  26    0.53    0.14
   3  -4  26    0.05    0.11
   4  -4  26    1.26    0.20
   5  -4  26    1.48    0.21
   6  -4  26    0.51    0.18
  -7  -3  26    2.05    0.28
  -6  -3  26    0.91    0.21
  -5  -3  26    2.40    0.30
   1  -3  26    1.70    0.19
   2  -3  26    9.73    0.45
   3  -3  26    0.26    0.12
   4  -3  26    3.31    0.28
   5  -3  26    1.20    0.21
  -7  -2  26    1.22    0.24
  -6  -2  26    0.02    0.15
  -5  -2  26    0.06    0.15
   1  -2  26    0.00    0.09
   2  -2  26    3.35    0.26
   3  -2  26    8.83    0.45
   4  -2  26    0.25    0.14
   5  -2  26    0.14    0.14
  -8  -1  26    0.29    0.18
  -7  -1  26    1.97    0.29
  -6  -1  26    1.38    0.26
   1  -1  26    0.80    0.15
   2  -1  26    0.33    0.14
   3  -1  26   11.97    0.55
   4  -1  26    4.59    0.33
  -8   0  26    2.62    0.33
  -7   0  26    2.80    0.33
  -6   0  26    1.36    0.26
   0   0  26    0.03    0.06
   1   0  26    2.12    0.23
   2   0  26    0.03    0.12
   3   0  26    0.06    0.13
  -7   1  26    0.08    0.16
  -6   1  26   -0.09    0.15
   1   1  26    8.20    0.43
   2   1  26    4.63    0.34
  -7   2  26    0.58    0.22
  -6   2  26    4.14    0.42
   0   2  26    0.28    0.10
   1   2  26    1.16    0.20
   0 -10  27    1.49    0.22
   1 -10  27    0.93    0.20
   2 -10  27    3.70    0.32
   3 -10  27    1.56    0.24
   3 -10  27    0.81    0.16
   4 -10  27    2.99    0.30
  -2  -9  27    0.99    0.20
  -1  -9  27    0.38    0.15
   0  -9  27    1.37    0.21
   1  -9  27    7.45    0.44
   2  -9  27    0.04    0.14
   3  -9  27   16.02    0.70
   3  -9  27   15.70    0.66
   4  -9  27    6.12    0.38
   4  -9  27    6.30    0.43
   5  -9  27    1.92    0.25
  -3  -8  27    1.23    0.19
  -2  -8  27   -0.14    0.12
  -1  -8  27    0.19    0.14
   0  -8  27    1.43    0.22
   1  -8  27    0.35    0.16
   2  -8  27    3.57    0.31
   3  -8  27    2.94    0.30
   3  -8  27    2.77    0.27
   4  -8  27    4.78    0.35
   4  -8  27    4.81    0.34
   5  -8  27    0.00    0.12
   5  -8  27    0.01    0.13
  -4  -7  27    7.99    0.43
  -3  -7  27    5.50    0.37
  -2  -7  27    0.00    0.12
  -1  -7  27    3.38    0.30
   2  -7  27    0.09    0.08
   3  -7  27    2.62    0.26
   4  -7  27    0.86    0.18
   5  -7  27    1.34    0.21
  -5  -6  27    0.63    0.15
  -4  -6  27    0.27    0.14
   2  -6  27    0.16    0.11
   3  -6  27    0.04    0.12
   4  -6  27    0.32    0.14
   5  -6  27    0.16    0.13
   2  -5  27    0.70    0.15
   3  -5  27    0.90    0.17
   4  -5  27    3.84    0.30
   5  -5  27    5.52    0.37
  -6  -4  27    1.08    0.23
   2  -4  27    0.07    0.11
   3  -4  27    1.40    0.20
   4  -4  27    0.74    0.17
   5  -4  27    1.14    0.20
  -6  -3  27    1.09    0.23
   1  -3  27    0.00    0.05
   2  -3  27    5.96    0.34
   3  -3  27    4.12    0.30
   4  -3  27    6.25    0.39
  -6  -2  27    0.14    0.17
   1  -2  27   -0.06    0.06
   2  -2  27    0.98    0.17
   3  -2  27    0.74    0.17
  -6  -1  27    0.82    0.23
   1  -1  27    0.67    0.14
   2  -1  27    1.23    0.19
   3  -1  27   15.18    0.66
  -6   0  27    0.25    0.18
   1   0  27    0.33    0.12
   2   0  27    0.21    0.14
  -6   1  27    0.11    0.18
   1  -9  28    0.03    0.14
   2  -9  28    1.57    0.24
  -1  -8  28    4.94    0.37
   0  -8  28    0.09    0.14
   1  -8  28    9.57    0.52
   2  -8  28    0.86    0.19
   3  -8  28    0.19    0.14
   3  -8  28   -0.10    0.07
  -2  -7  28    0.47    0.16
  -1  -7  28    2.82    0.29
   3  -7  28    1.46    0.20
   4  -7  28    2.12    0.26
   3  -6  28   -0.10    0.11
   4  -6  28    1.40    0.21
   3  -5  28    0.19    0.13
   2  -4  28    0.11    0.08
   3  -4  28   -0.19    0.09
   2  -2  28    0.22    0.11
   0   0   0    0.00    0.00
;
_shelx_hkl_checksum              52127
#END Tags that were not found in dictionaries
loop_
_space_group_symop_operation_xyz
'x, y, z'
'-x, -y, -z'
loop_
_atom_site_label
_atom_site_type_symbol
_atom_site_fract_x
_atom_site_fract_y
_atom_site_fract_z
_atom_site_U_iso_or_equiv
_atom_site_adp_type
_atom_site_occupancy
_atom_site_site_symmetry_order
_atom_site_calc_flag
_atom_site_refinement_flags_posn
_atom_site_refinement_flags_adp
Cl1A Cl 1.44745(4) 0.31747(5) 0.76334(3) 0.04335(15) Uani 1 1 d . .
S1A S 0.79374(4) 0.08361(4) 0.62596(2) 0.01893(11) Uani 1 1 d . .
S2A S 0.84623(4) -0.06209(4) 0.68535(2) 0.01865(11) Uani 1 1 d . .
N1A N 0.87495(12) 0.01795(13) 0.63546(7) 0.0182(3) Uani 1 1 d . .
O1A O 0.74015(11) 0.09294(11) 0.68016(6) 0.0247(3) Uani 1 1 d . .
O2A O 0.87402(11) 0.18507(11) 0.61164(6) 0.0250(3) Uani 1 1 d . .
O3A O 0.72037(11) -0.13061(11) 0.67619(6) 0.0264(3) Uani 1 1 d . .
O4A O 0.92269(11) -0.11394(11) 0.67375(6) 0.0239(3) Uani 1 1 d . .
C1A C 0.92640(17) -0.17236(17) 0.51726(9) 0.0265(4) Uani 1 1 d . .
H1A H 0.9105 -0.2426 0.4879 0.032 Uiso 1 1 calc R U
C2A C 0.94627(15) -0.08435(16) 0.55407(8) 0.0220(4) Uani 1 1 d . .
C3A C 0.97038(15) 0.02703(15) 0.59611(8) 0.0188(3) Uani 1 1 d . .
H3A H 0.9658 0.0728 0.5685 0.023 Uiso 1 1 calc R U
C4A C 1.09424(15) 0.09709(15) 0.63563(8) 0.0192(3) Uani 1 1 d . .
C5A C 1.16179(16) 0.04721(17) 0.65133(9) 0.0233(4) Uani 1 1 d . .
H5A H 1.1334 -0.0329 0.6351 0.028 Uiso 1 1 calc R U
C6A C 1.27100(16) 0.11479(18) 0.69086(9) 0.0264(4) Uani 1 1 d . .
H6A H 1.3169 0.0811 0.7024 0.032 Uiso 1 1 calc R U
C7A C 1.31195(16) 0.23155(18) 0.71312(9) 0.0271(4) Uani 1 1 d . .
C8A C 1.24772(16) 0.28314(17) 0.69639(9) 0.0270(4) Uani 1 1 d . .
H8A H 1.2781 0.3637 0.7112 0.032 Uiso 1 1 calc R U
C9A C 1.13866(16) 0.21520(16) 0.65782(9) 0.0228(4) Uani 1 1 d . .
H9A H 1.0934 0.2494 0.6463 0.027 Uiso 1 1 calc R U
C10A C 0.68247(15) -0.00421(15) 0.56094(8) 0.0190(3) Uani 1 1 d . .
C11A C 0.70637(16) 0.00443(17) 0.50172(9) 0.0242(4) Uani 1 1 d . .
H11A H 0.7836 0.0547 0.4962 0.029 Uiso 1 1 calc R U
C12A C 0.61565(17) -0.06136(18) 0.45159(9) 0.0266(4) Uani 1 1 d . .
H12A H 0.6311 -0.0553 0.4113 0.032 Uiso 1 1 calc R U
C13A C 0.50151(16) -0.13674(16) 0.45833(9) 0.0245(4) Uani 1 1 d . .
C14A C 0.47937(16) -0.14183(16) 0.51808(9) 0.0251(4) Uani 1 1 d . .
H14A H 0.4016 -0.1907 0.5236 0.030 Uiso 1 1 calc R U
C15A C 0.56875(15) -0.07691(15) 0.56948(9) 0.0211(4) Uani 1 1 d . .
H15A H 0.5529 -0.0818 0.6099 0.025 Uiso 1 1 calc R U
C16A C 0.40647(18) -0.21117(18) 0.40193(10) 0.0332(5) Uani 1 1 d . .
H16A H 0.4068 -0.1652 0.3745 0.050 Uiso 1 1 calc R U
H16B H 0.3284 -0.2434 0.4150 0.050 Uiso 1 1 calc R U
H16C H 0.4222 -0.2733 0.3795 0.050 Uiso 1 1 calc R U
C17A C 0.89443(15) 0.03040(15) 0.76130(8) 0.0194(3) Uani 1 1 d . .
C18A C 0.81347(16) 0.05088(17) 0.79519(8) 0.0238(4) Uani 1 1 d . .
H18A H 0.7326 0.0191 0.7766 0.029 Uiso 1 1 calc R U
C19A C 0.85217(17) 0.11824(17) 0.85641(9) 0.0264(4) Uani 1 1 d . .
H19A H 0.7970 0.1328 0.8797 0.032 Uiso 1 1 calc R U
C20A C 0.96979(17) 0.16517(16) 0.88469(9) 0.0247(4) Uani 1 1 d . .
C21A C 1.04985(17) 0.14258(17) 0.84981(9) 0.0286(4) Uani 1 1 d . .
H21A H 1.1304 0.1734 0.8686 0.034 Uiso 1 1 calc R U
C22A C 1.01317(16) 0.07610(17) 0.78847(9) 0.0251(4) Uani 1 1 d . .
H22A H 1.0681 0.0616 0.7650 0.030 Uiso 1 1 calc R U
C23A C 1.0095(2) 0.23521(19) 0.95150(9) 0.0339(5) Uani 1 1 d . .
H23A H 0.9521 0.2625 0.9648 0.051 Uiso 1 1 calc R U
H23B H 1.0881 0.3008 0.9564 0.051 Uiso 1 1 calc R U
H23C H 1.0144 0.1882 0.9771 0.051 Uiso 1 1 calc R U
Cl1B Cl 1.29643(6) 0.46541(6) 0.27053(4) 0.0591(2) Uani 1 1 d . .
S1B S 0.71995(4) 0.44533(4) 0.38127(2) 0.02149(11) Uani 1 1 d . .
S2B S 0.71594(4) 0.22136(4) 0.33081(2) 0.02156(11) Uani 1 1 d . .
N1B N 0.78167(13) 0.35708(13) 0.37743(7) 0.0211(3) Uani 1 1 d . .
O1B O 0.81759(11) 0.55802(11) 0.40912(7) 0.0272(3) Uani 1 1 d . .
O2B O 0.65708(12) 0.41973(12) 0.32136(6) 0.0284(3) Uani 1 1 d . .
O3B O 0.74823(12) 0.15786(11) 0.36271(6) 0.0269(3) Uani 1 1 d . .
O4B O 0.59325(11) 0.19107(11) 0.31470(7) 0.0283(3) Uani 1 1 d . .
C1B C 0.88710(18) 0.30899(18) 0.50935(10) 0.0314(4) Uani 1 1 d . .
H1B H 0.8849 0.2793 0.5436 0.038 Uiso 1 1 calc R U
C2B C 0.88983(16) 0.34594(16) 0.46681(9) 0.0244(4) Uani 1 1 d . .
C3B C 0.89887(15) 0.40345(16) 0.41835(9) 0.0223(4) Uani 1 1 d . .
H3B H 0.9191 0.4839 0.4414 0.027 Uiso 1 1 calc R U
C4B C 0.99815(15) 0.41338(15) 0.38117(9) 0.0227(4) Uani 1 1 d . .
C5B C 1.02533(18) 0.48653(18) 0.34376(10) 0.0315(4) Uani 1 1 d . .
H5B H 0.9804 0.5262 0.3419 0.038 Uiso 1 1 calc R U
C6B C 1.11594(19) 0.5020(2) 0.30974(11) 0.0375(5) Uani 1 1 d . .
H6B H 1.1344 0.5520 0.2845 0.045 Uiso 1 1 calc R U
C7B C 1.18010(18) 0.44297(19) 0.31297(11) 0.0336(5) Uani 1 1 d . .
C8B C 1.15571(16) 0.37008(17) 0.34879(10) 0.0305(4) Uani 1 1 d . .
H8B H 1.2007 0.3304 0.3501 0.037 Uiso 1 1 calc R U
C9B C 1.06357(16) 0.35519(16) 0.38328(9) 0.0248(4) Uani 1 1 d . .
H9B H 1.0455 0.3049 0.4084 0.030 Uiso 1 1 calc R U
C10B C 0.62115(15) 0.41328(15) 0.43443(9) 0.0207(4) Uani 1 1 d . .
C11B C 0.66880(16) 0.45473(16) 0.49754(9) 0.0243(4) Uani 1 1 d . .
H11B H 0.7524 0.4989 0.5112 0.029 Uiso 1 1 calc R U
C12B C 0.59160(17) 0.42999(16) 0.53979(9) 0.0259(4) Uani 1 1 d . .
H12B H 0.6230 0.4576 0.5830 0.031 Uiso 1 1 calc R U
C13B C 0.46880(16) 0.36541(15) 0.52048(9) 0.0233(4) Uani 1 1 d . .
C14B C 0.42400(16) 0.32608(15) 0.45744(9) 0.0252(4) Uani 1 1 d . .
H14B H 0.3403 0.2827 0.4439 0.030 Uiso 1 1 calc R U
C15B C 0.49935(15) 0.34887(15) 0.41350(9) 0.0229(4) Uani 1 1 d . .
H15B H 0.4681 0.3210 0.3703 0.028 Uiso 1 1 calc R U
C16B C 0.38723(18) 0.33715(18) 0.56821(11) 0.0317(5) Uani 1 1 d . .
H16D H 0.3133 0.3381 0.5553 0.048 Uiso 1 1 calc R U
H16E H 0.4270 0.3940 0.6088 0.048 Uiso 1 1 calc R U
H16F H 0.3688 0.2610 0.5714 0.048 Uiso 1 1 calc R U
C17B C 0.78561(15) 0.22683(16) 0.26479(9) 0.0223(4) Uani 1 1 d . .
C18B C 0.86714(17) 0.18478(16) 0.25712(9) 0.0259(4) Uani 1 1 d . .
H18B H 0.8805 0.1483 0.2854 0.031 Uiso 1 1 calc R U
C19B C 0.92870(18) 0.19677(18) 0.20773(10) 0.0298(4) Uani 1 1 d . .
H19B H 0.9841 0.1674 0.2019 0.036 Uiso 1 1 calc R U
C20B C 0.91092(18) 0.25116(18) 0.16630(9) 0.0295(4) Uani 1 1 d . .
C21B C 0.82515(18) 0.28857(18) 0.17380(9) 0.0305(4) Uani 1 1 d . .
H21B H 0.8093 0.3223 0.1446 0.037 Uiso 1 1 calc R U
C22B C 0.76254(17) 0.27757(18) 0.22296(9) 0.0282(4) Uani 1 1 d . .
H22B H 0.7049 0.3042 0.2280 0.034 Uiso 1 1 calc R U
C23B C 0.9851(2) 0.2717(2) 0.11571(11) 0.0439(6) Uani 1 1 d . .
H23D H 0.9420 0.2800 0.0818 0.066 Uiso 1 1 calc R U
H23E H 1.0009 0.2067 0.0998 0.066 Uiso 1 1 calc R U
H23F H 1.0607 0.3416 0.1326 0.066 Uiso 1 1 calc R U
Cl1C Cl 0.87305(5) 0.92459(6) -0.06556(3) 0.05248(18) Uani 1 1 d . .
S1C S 0.34289(4) 0.75962(4) 0.01181(2) 0.02717(12) Uani 1 1 d . .
S2C S 0.30968(4) 0.57634(4) 0.06702(3) 0.03105(13) Uani 1 1 d . .
N1C N 0.39437(14) 0.70842(14) 0.06052(8) 0.0295(4) Uani 1 1 d . .
O1C O 0.38426(13) 0.87779(12) 0.04267(7) 0.0336(3) Uani 1 1 d . .
O2C O 0.21799(12) 0.68457(13) -0.00577(7) 0.0323(3) Uani 1 1 d . .
O3C O 0.25741(12) 0.49964(12) 0.00616(7) 0.0363(3) Uani 1 1 d . .
O4C O 0.38729(14) 0.55867(13) 0.10593(8) 0.0436(4) Uani 1 1 d . .
C1C C 0.5075(2) 0.9469(2) 0.19541(13) 0.0500(6) Uani 1 1 d . .
H1C H 0.5076 1.0039 0.2297 0.060 Uiso 1 1 calc R U
C2C C 0.50723(19) 0.87618(19) 0.15296(11) 0.0384(5) Uani 1 1 d . .
C3C C 0.51241(17) 0.78576(18) 0.10354(10) 0.0330(5) Uani 1 1 d . .
H3C H 0.5290 0.7367 0.1249 0.040 Uiso 1 1 calc R U
C4C C 0.61058(17) 0.82602(18) 0.06529(11) 0.0330(5) Uani 1 1 d . .
C5C C 0.63317(18) 0.74444(19) 0.02515(11) 0.0366(5) Uani 1 1 d . .
H5C H 0.5910 0.6668 0.0248 0.044 Uiso 1 1 calc R U
C6C C 0.71533(19) 0.7742(2) -0.01386(12) 0.0408(5) Uani 1 1 d . .
H6C H 0.7301 0.7179 -0.0410 0.049 Uiso 1 1 calc R U
C7C C 0.77599(18) 0.8875(2) -0.01288(12) 0.0379(5) Uani 1 1 d . .
C8C C 0.75867(19) 0.9711(2) 0.02739(12) 0.0431(6) Uani 1 1 d . .
H8C H 0.8028 1.0488 0.0282 0.052 Uiso 1 1 calc R U
C9C C 0.67537(19) 0.93999(19) 0.06701(12) 0.0403(5) Uani 1 1 d . .
H9C H 0.6630 0.9969 0.0952 0.048 Uiso 1 1 calc R U
C10C C 0.41250(16) 0.74858(17) -0.05386(9) 0.0275(4) Uani 1 1 d . .
C11C C 0.39216(18) 0.64207(18) -0.09114(10) 0.0341(5) Uani 1 1 d . .
H11C H 0.3417 0.5744 -0.0811 0.041 Uiso 1 1 calc R U
C12C C 0.44702(19) 0.6365(2) -0.14331(11) 0.0362(5) Uani 1 1 d . .
H12C H 0.4343 0.5642 -0.1689 0.043 Uiso 1 1 calc R U
C13C C 0.52058(18) 0.7352(2) -0.15895(10) 0.0341(5) Uani 1 1 d . .
C14C C 0.53728(19) 0.8393(2) -0.12129(10) 0.0354(5) Uani 1 1 d . .
H14C H 0.5865 0.9071 -0.1316 0.043 Uiso 1 1 calc R U
C15C C 0.48390(18) 0.84742(18) -0.06881(10) 0.0311(4) Uani 1 1 d . .
H15C H 0.4962 0.9197 -0.0435 0.037 Uiso 1 1 calc R U
C16C C 0.5814(2) 0.7292(2) -0.21511(12) 0.0473(6) Uani 1 1 d . .
H16G H 0.6669 0.7591 -0.2015 0.071 Uiso 1 1 calc R U
H16H H 0.5694 0.7752 -0.2394 0.071 Uiso 1 1 calc R U
H16I H 0.5474 0.6496 -0.2409 0.071 Uiso 1 1 calc R U
C17C C 0.19812(17) 0.58737(16) 0.10779(10) 0.0291(4) Uani 1 1 d . .
C18C C 0.08104(18) 0.53125(18) 0.07795(10) 0.0311(4) Uani 1 1 d . .
H18C H 0.0604 0.4867 0.0356 0.037 Uiso 1 1 calc R U
C19C C -0.0055(2) 0.54105(18) 0.11077(10) 0.0353(5) Uani 1 1 d . .
H19C H -0.0863 0.5021 0.0908 0.042 Uiso 1 1 calc R U
C20C C 0.0239(2) 0.60717(18) 0.17268(10) 0.0361(5) Uani 1 1 d . .
C21C C 0.1427(2) 0.66347(18) 0.20096(10) 0.0403(5) Uani 1 1 d . .
H21C H 0.1640 0.7097 0.2430 0.048 Uiso 1 1 calc R U
C22C C 0.2305(2) 0.65371(18) 0.16931(10) 0.0361(5) Uani 1 1 d . .
H22C H 0.3112 0.6917 0.1893 0.043 Uiso 1 1 calc R U
C23C C -0.0697(3) 0.6169(2) 0.20843(13) 0.0522(7) Uani 1 1 d . .
H23G H -0.1325 0.6144 0.1804 0.078 Uiso 1 1 calc R U
H23H H -0.0340 0.6894 0.2418 0.078 Uiso 1 1 calc R U
H23I H -0.1042 0.5532 0.2265 0.078 Uiso 1 1 calc R U
loop_
_atom_site_aniso_label
_atom_site_aniso_U_11
_atom_site_aniso_U_22
_atom_site_aniso_U_33
_atom_site_aniso_U_23
_atom_site_aniso_U_13
_atom_site_aniso_U_12
Cl1A 0.0235(2) 0.0457(3) 0.0487(3) 0.0159(3) -0.0081(2) 0.0059(2)
S1A 0.0199(2) 0.0193(2) 0.0178(2) 0.00323(17) 0.00057(16) 0.01056(17)
S2A 0.0213(2) 0.0179(2) 0.0154(2) 0.00526(17) 0.00335(16) 0.00769(17)
N1A 0.0214(7) 0.0225(8) 0.0159(7) 0.0088(6) 0.0058(6) 0.0128(6)
O1A 0.0274(7) 0.0313(7) 0.0178(7) 0.0019(6) 0.0022(5) 0.0184(6)
O2A 0.0240(6) 0.0195(6) 0.0295(7) 0.0070(6) -0.0024(5) 0.0089(5)
O3A 0.0223(6) 0.0246(7) 0.0209(7) 0.0048(6) 0.0026(5) 0.0024(5)
O4A 0.0345(7) 0.0233(7) 0.0202(7) 0.0078(5) 0.0072(5) 0.0179(6)
C1A 0.0324(10) 0.0278(10) 0.0226(10) 0.0083(8) 0.0077(8) 0.0161(8)
C2A 0.0226(8) 0.0275(10) 0.0188(9) 0.0096(8) 0.0050(7) 0.0125(7)
C3A 0.0209(8) 0.0220(9) 0.0154(8) 0.0071(7) 0.0053(6) 0.0107(7)
C4A 0.0204(8) 0.0232(9) 0.0152(9) 0.0084(7) 0.0056(6) 0.0095(7)
C5A 0.0237(9) 0.0269(10) 0.0230(10) 0.0102(8) 0.0080(7) 0.0132(8)
C6A 0.0217(8) 0.0385(11) 0.0243(10) 0.0122(9) 0.0060(7) 0.0170(8)
C7A 0.0183(8) 0.0361(11) 0.0234(10) 0.0116(9) 0.0042(7) 0.0082(8)
C8A 0.0250(9) 0.0260(10) 0.0256(10) 0.0072(8) 0.0057(8) 0.0083(8)
C9A 0.0222(8) 0.0249(9) 0.0230(10) 0.0081(8) 0.0055(7) 0.0118(7)
C10A 0.0205(8) 0.0186(8) 0.0184(9) 0.0024(7) 0.0003(7) 0.0113(7)
C11A 0.0237(9) 0.0298(10) 0.0212(10) 0.0055(8) 0.0056(7) 0.0153(8)
C12A 0.0295(9) 0.0358(11) 0.0173(9) 0.0024(8) 0.0033(7) 0.0203(9)
C13A 0.0287(9) 0.0224(9) 0.0233(10) -0.0014(8) -0.0036(7) 0.0174(8)
C14A 0.0218(8) 0.0182(9) 0.0349(11) 0.0063(8) 0.0012(8) 0.0100(7)
C15A 0.0240(8) 0.0202(9) 0.0208(9) 0.0063(7) 0.0034(7) 0.0118(7)
C16A 0.0354(11) 0.0300(11) 0.0311(11) -0.0037(9) -0.0092(9) 0.0202(9)
C17A 0.0216(8) 0.0196(8) 0.0167(9) 0.0066(7) 0.0035(7) 0.0087(7)
C18A 0.0228(8) 0.0320(10) 0.0178(9) 0.0070(8) 0.0043(7) 0.0137(8)
C19A 0.0312(10) 0.0313(10) 0.0196(10) 0.0059(8) 0.0071(8) 0.0178(8)
C20A 0.0313(9) 0.0205(9) 0.0200(10) 0.0056(8) 0.0031(7) 0.0103(8)
C21A 0.0231(9) 0.0326(11) 0.0209(10) 0.0041(8) -0.0011(7) 0.0073(8)
C22A 0.0222(9) 0.0296(10) 0.0225(10) 0.0065(8) 0.0058(7) 0.0117(8)
C23A 0.0415(12) 0.0326(11) 0.0202(10) 0.0000(9) -0.0006(8) 0.0152(10)
Cl1B 0.0478(4) 0.0635(4) 0.0780(5) 0.0295(4) 0.0420(4) 0.0294(3)
S1B 0.0211(2) 0.0190(2) 0.0265(3) 0.00669(19) 0.00536(17) 0.01105(18)
S2B 0.0225(2) 0.0179(2) 0.0229(2) 0.00420(18) 0.00445(17) 0.00908(18)
N1B 0.0205(7) 0.0190(7) 0.0239(8) 0.0035(6) 0.0016(6) 0.0109(6)
O1B 0.0233(6) 0.0183(6) 0.0397(8) 0.0083(6) 0.0080(6) 0.0095(5)
O2B 0.0310(7) 0.0329(8) 0.0276(8) 0.0119(6) 0.0049(6) 0.0187(6)
O3B 0.0349(7) 0.0206(7) 0.0279(7) 0.0078(6) 0.0080(6) 0.0147(6)
O4B 0.0204(6) 0.0247(7) 0.0338(8) 0.0040(6) 0.0049(6) 0.0076(5)
C1B 0.0309(10) 0.0310(11) 0.0345(12) 0.0161(9) 0.0066(8) 0.0128(9)
C2B 0.0234(9) 0.0230(9) 0.0253(10) 0.0059(8) 0.0043(7) 0.0101(8)
C3B 0.0203(8) 0.0216(9) 0.0243(10) 0.0059(8) 0.0020(7) 0.0099(7)
C4B 0.0205(8) 0.0196(9) 0.0252(10) 0.0056(8) 0.0031(7) 0.0076(7)
C5B 0.0337(10) 0.0316(11) 0.0392(12) 0.0178(10) 0.0123(9) 0.0195(9)
C6B 0.0382(11) 0.0412(13) 0.0437(13) 0.0248(11) 0.0175(10) 0.0204(10)
C7B 0.0247(9) 0.0318(11) 0.0401(12) 0.0080(10) 0.0128(9) 0.0104(8)
C8B 0.0198(8) 0.0211(9) 0.0448(13) 0.0037(9) 0.0028(8) 0.0079(7)
C9B 0.0215(8) 0.0189(9) 0.0299(11) 0.0061(8) 0.0013(7) 0.0067(7)
C10B 0.0215(8) 0.0169(8) 0.0269(10) 0.0063(7) 0.0061(7) 0.0115(7)
C11B 0.0206(8) 0.0199(9) 0.0297(10) 0.0034(8) 0.0023(7) 0.0094(7)
C12B 0.0300(9) 0.0242(9) 0.0232(10) 0.0035(8) 0.0036(8) 0.0142(8)
C13B 0.0270(9) 0.0176(9) 0.0316(11) 0.0083(8) 0.0099(8) 0.0147(7)
C14B 0.0198(8) 0.0184(9) 0.0378(11) 0.0067(8) 0.0061(8) 0.0099(7)
C15B 0.0217(8) 0.0192(9) 0.0296(10) 0.0060(8) 0.0026(7) 0.0118(7)
C16B 0.0327(10) 0.0292(11) 0.0423(13) 0.0141(10) 0.0174(9) 0.0193(9)
C17B 0.0225(8) 0.0207(9) 0.0209(9) 0.0030(7) 0.0025(7) 0.0094(7)
C18B 0.0292(9) 0.0235(9) 0.0266(10) 0.0061(8) 0.0050(8) 0.0142(8)
C19B 0.0330(10) 0.0292(10) 0.0305(11) 0.0045(9) 0.0075(8) 0.0193(9)
C20B 0.0332(10) 0.0286(10) 0.0210(10) 0.0030(8) 0.0049(8) 0.0117(8)
C21B 0.0348(10) 0.0370(11) 0.0211(10) 0.0094(9) 0.0018(8) 0.0176(9)
C22B 0.0271(9) 0.0324(11) 0.0262(11) 0.0067(9) 0.0024(8) 0.0159(8)
C23B 0.0528(14) 0.0530(15) 0.0352(13) 0.0156(12) 0.0190(11) 0.0304(13)
Cl1C 0.0405(3) 0.0533(4) 0.0722(5) 0.0313(4) 0.0157(3) 0.0221(3)
S1C 0.0246(2) 0.0245(3) 0.0297(3) 0.0058(2) 0.00121(19) 0.0105(2)
S2C 0.0267(2) 0.0208(2) 0.0370(3) 0.0063(2) -0.0038(2) 0.00538(19)
N1C 0.0243(8) 0.0216(8) 0.0332(10) 0.0064(7) -0.0046(7) 0.0043(7)
O1C 0.0393(8) 0.0252(7) 0.0360(9) 0.0062(6) 0.0064(7) 0.0162(6)
O2C 0.0243(7) 0.0373(8) 0.0318(8) 0.0089(7) 0.0014(6) 0.0123(6)
O3C 0.0294(7) 0.0236(7) 0.0411(9) -0.0006(7) 0.0020(6) 0.0052(6)
O4C 0.0378(8) 0.0308(8) 0.0585(11) 0.0170(8) -0.0077(8) 0.0121(7)
C1C 0.0427(13) 0.0371(13) 0.0472(15) -0.0037(12) -0.0101(11) 0.0085(11)
C2C 0.0304(10) 0.0277(11) 0.0389(13) 0.0028(10) -0.0063(9) 0.0024(9)
C3C 0.0259(9) 0.0239(10) 0.0387(12) 0.0064(9) -0.0064(8) 0.0050(8)
C4C 0.0232(9) 0.0250(10) 0.0424(13) 0.0075(9) -0.0068(8) 0.0064(8)
C5C 0.0257(10) 0.0264(10) 0.0526(14) 0.0138(10) -0.0027(9) 0.0073(8)
C6C 0.0284(10) 0.0375(13) 0.0577(15) 0.0134(11) -0.0005(10) 0.0173(10)
C7C 0.0240(10) 0.0397(13) 0.0523(15) 0.0215(11) 0.0032(9) 0.0130(9)
C8C 0.0311(11) 0.0281(11) 0.0612(16) 0.0161(11) 0.0006(11) 0.0052(9)
C9C 0.0315(11) 0.0274(11) 0.0497(14) 0.0059(10) -0.0052(10) 0.0068(9)
C10C 0.0239(9) 0.0301(10) 0.0280(11) 0.0063(9) 0.0010(8) 0.0136(8)
C11C 0.0304(10) 0.0282(11) 0.0387(12) 0.0050(9) 0.0020(9) 0.0121(9)
C12C 0.0340(11) 0.0344(12) 0.0376(13) 0.0027(10) 0.0032(9) 0.0179(9)
C13C 0.0257(10) 0.0450(13) 0.0304(11) 0.0075(10) 0.0018(8) 0.0175(9)
C14C 0.0325(11) 0.0385(12) 0.0371(13) 0.0164(10) 0.0075(9) 0.0152(9)
C15C 0.0308(10) 0.0280(10) 0.0336(12) 0.0062(9) 0.0017(8) 0.0147(9)
C16C 0.0383(12) 0.0568(16) 0.0420(14) 0.0077(12) 0.0098(11) 0.0214(12)
C17C 0.0315(10) 0.0190(9) 0.0280(11) 0.0072(8) -0.0016(8) 0.0044(8)
C18C 0.0332(10) 0.0258(10) 0.0242(11) 0.0036(8) -0.0003(8) 0.0075(8)
C19C 0.0364(11) 0.0318(11) 0.0306(12) 0.0074(9) 0.0038(9) 0.0108(9)
C20C 0.0545(13) 0.0253(11) 0.0298(12) 0.0106(9) 0.0128(10) 0.0179(10)
C21C 0.0670(16) 0.0219(10) 0.0197(11) 0.0022(8) 0.0008(10) 0.0127(10)
C22C 0.0434(12) 0.0258(10) 0.0240(11) 0.0067(9) -0.0054(9) 0.0043(9)
C23C 0.0787(19) 0.0467(15) 0.0411(15) 0.0152(12) 0.0256(14) 0.0352(15)
loop_
_atom_type_symbol
_atom_type_description
_atom_type_scat_dispersion_real
_atom_type_scat_dispersion_imag
_atom_type_scat_source
C C 0.0033 0.0016 'International Tables Vol C Tables 4.2.6.8 and 6.1.1.4'
H H 0.0000 0.0000 'International Tables Vol C Tables 4.2.6.8 and 6.1.1.4'
N N 0.0061 0.0033 'International Tables Vol C Tables 4.2.6.8 and 6.1.1.4'
O O 0.0106 0.0060 'International Tables Vol C Tables 4.2.6.8 and 6.1.1.4'
S S 0.1246 0.1234 'International Tables Vol C Tables 4.2.6.8 and 6.1.1.4'
Cl Cl 0.1484 0.1585 'International Tables Vol C Tables 4.2.6.8 and 6.1.1.4'
loop_
_geom_angle_atom_site_label_1
_geom_angle_atom_site_label_2
_geom_angle_atom_site_label_3
_geom_angle
O1A S1A O2A 119.64(8)
O1A S1A N1A 106.11(7)
O2A S1A N1A 105.10(7)
O1A S1A C10A 109.31(8)
O2A S1A C10A 108.13(8)
N1A S1A C10A 107.95(8)
O3A S2A O4A 120.66(8)
O3A S2A N1A 107.21(7)
O4A S2A N1A 103.48(7)
O3A S2A C17A 108.78(8)
O4A S2A C17A 107.93(8)
N1A S2A C17A 108.16(8)
C3A N1A S1A 118.31(10)
C3A N1A S2A 120.59(10)
S1A N1A S2A 121.04(8)
C1A C2A C3A 176.34(18)
C2A C3A N1A 112.32(14)
C2A C3A C4A 115.59(14)
N1A C3A C4A 111.22(14)
C5A C4A C9A 119.61(17)
C5A C4A C3A 122.53(16)
C9A C4A C3A 117.84(15)
C6A C5A C4A 119.94(18)
C7A C6A C5A 119.20(17)
C6A C7A C8A 121.64(18)
C6A C7A Cl1A 119.97(14)
C8A C7A Cl1A 118.38(16)
C9A C8A C7A 118.73(19)
C8A C9A C4A 120.82(17)
C15A C10A C11A 120.97(17)
C15A C10A S1A 119.25(14)
C11A C10A S1A 119.66(13)
C12A C11A C10A 118.63(17)
C11A C12A C13A 121.88(18)
C14A C13A C12A 118.31(17)
C14A C13A C16A 121.54(18)
C12A C13A C16A 120.14(18)
C15A C14A C13A 121.21(17)
C14A C15A C10A 118.97(17)
C18A C17A C22A 120.80(17)
C18A C17A S2A 120.09(14)
C22A C17A S2A 118.94(14)
C19A C18A C17A 119.01(17)
C18A C19A C20A 121.54(18)
C19A C20A C21A 118.54(18)
C19A C20A C23A 120.88(18)
C21A C20A C23A 120.55(18)
C22A C21A C20A 120.83(17)
C21A C22A C17A 119.28(17)
O2B S1B O1B 119.02(8)
O2B S1B N1B 108.55(8)
O1B S1B N1B 104.31(8)
O2B S1B C10B 110.54(8)
O1B S1B C10B 108.35(9)
N1B S1B C10B 105.05(8)
O3B S2B O4B 120.10(8)
O3B S2B N1B 106.13(8)
O4B S2B N1B 106.21(8)
O3B S2B C17B 107.95(8)
O4B S2B C17B 110.38(8)
N1B S2B C17B 104.97(8)
C3B N1B S2B 119.88(11)
C3B N1B S1B 117.37(12)
S2B N1B S1B 122.75(9)
C1B C2B C3B 174.3(2)
C2B C3B N1B 112.36(14)
C2B C3B C4B 115.77(15)
N1B C3B C4B 112.12(15)
C9B C4B C5B 119.13(17)
C9B C4B C3B 123.31(16)
C5B C4B C3B 117.56(16)
C6B C5B C4B 120.95(18)
C5B C6B C7B 118.61(19)
C8B C7B C6B 122.15(19)
C8B C7B Cl1B 119.83(16)
C6B C7B Cl1B 118.01(16)
C7B C8B C9B 118.76(18)
C4B C9B C8B 120.39(17)
C15B C10B C11B 121.70(17)
C15B C10B S1B 120.30(15)
C11B C10B S1B 117.99(13)
C12B C11B C10B 118.41(17)
C11B C12B C13B 121.48(18)
C14B C13B C12B 118.78(17)
C14B C13B C16B 121.32(17)
C12B C13B C16B 119.88(18)
C13B C14B C15B 121.26(17)
C10B C15B C14B 118.36(18)
C18B C17B C22B 121.30(17)
C18B C17B S2B 118.85(14)
C22B C17B S2B 119.79(14)
C19B C18B C17B 118.95(17)
C18B C19B C20B 121.15(18)
C21B C20B C19B 118.56(18)
C21B C20B C23B 120.80(18)
C19B C20B C23B 120.62(19)
C22B C21B C20B 121.20(17)
C21B C22B C17B 118.75(17)
O1C S1C O2C 119.72(9)
O1C S1C N1C 106.44(9)
O2C S1C N1C 106.13(8)
O1C S1C C10C 108.20(9)
O2C S1C C10C 109.28(9)
N1C S1C C10C 106.28(9)
O3C S2C O4C 119.41(10)
O3C S2C N1C 108.25(9)
O4C S2C N1C 104.40(9)
O3C S2C C17C 109.79(9)
O4C S2C C17C 108.89(10)
N1C S2C C17C 105.08(9)
C3C N1C S1C 119.61(13)
C3C N1C S2C 119.36(13)
S1C N1C S2C 120.75(10)
C1C C2C C3C 175.3(3)
C2C C3C N1C 112.45(17)
C2C C3C C4C 115.69(18)
N1C C3C C4C 109.46(17)
C9C C4C C5C 119.0(2)
C9C C4C C3C 122.6(2)
C5C C4C C3C 118.34(18)
C6C C5C C4C 121.3(2)
C5C C6C C7C 118.8(2)
C8C C7C C6C 121.7(2)
C8C C7C Cl1C 119.20(17)
C6C C7C Cl1C 119.1(2)
C7C C8C C9C 119.1(2)
C4C C9C C8C 120.1(2)
C15C C10C C11C 121.03(19)
C15C C10C S1C 118.60(16)
C11C C10C S1C 120.33(16)
C12C C11C C10C 118.7(2)
C11C C12C C13C 121.3(2)
C14C C13C C12C 118.3(2)
C14C C13C C16C 120.5(2)
C12C C13C C16C 121.2(2)
C13C C14C C15C 121.6(2)
C10C C15C C14C 119.0(2)
C18C C17C C22C 121.6(2)
C18C C17C S2C 119.80(17)
C22C C17C S2C 118.61(16)
C19C C18C C17C 119.0(2)
C18C C19C C20C 121.0(2)
C21C C20C C19C 118.4(2)
C21C C20C C23C 120.5(2)
C19C C20C C23C 121.1(2)
C22C C21C C20C 121.6(2)
C21C C22C C17C 118.4(2)
loop_
_geom_bond_atom_site_label_1
_geom_bond_atom_site_label_2
_geom_bond_distance
Cl1A C7A 1.741(2)
S1A O1A 1.4229(13)
S1A O2A 1.4325(13)
S1A N1A 1.6759(14)
S1A C10A 1.7485(18)
S2A O3A 1.4240(13)
S2A O4A 1.4308(13)
S2A N1A 1.6925(14)
S2A C17A 1.7500(18)
N1A C3A 1.505(2)
C1A C2A 1.191(3)
C2A C3A 1.468(3)
C3A C4A 1.525(2)
C4A C5A 1.392(2)
C4A C9A 1.394(3)
C5A C6A 1.392(3)
C6A C7A 1.383(3)
C7A C8A 1.385(3)
C8A C9A 1.382(3)
C10A C15A 1.397(2)
C10A C11A 1.398(3)
C11A C12A 1.377(3)
C12A C13A 1.397(3)
C13A C14A 1.395(3)
C13A C16A 1.505(3)
C14A C15A 1.385(3)
C17A C18A 1.386(2)
C17A C22A 1.396(2)
C18A C19A 1.382(3)
C19A C20A 1.389(3)
C20A C21A 1.400(3)
C20A C23A 1.495(3)
C21A C22A 1.380(3)
Cl1B C7B 1.741(2)
S1B O2B 1.4206(14)
S1B O1B 1.4400(14)
S1B N1B 1.6916(15)
S1B C10B 1.7531(18)
S2B O3B 1.4258(13)
S2B O4B 1.4298(13)
S2B N1B 1.6841(16)
S2B C17B 1.7557(18)
N1B C3B 1.497(2)
C1B C2B 1.181(3)
C2B C3B 1.472(2)
C3B C4B 1.512(2)
C4B C9B 1.387(2)
C4B C5B 1.397(3)
C5B C6B 1.372(3)
C6B C7B 1.387(3)
C7B C8B 1.369(3)
C8B C9B 1.394(3)
C10B C15B 1.387(2)
C10B C11B 1.392(3)
C11B C12B 1.382(3)
C12B C13B 1.393(3)
C13B C14B 1.385(3)
C13B C16B 1.518(3)
C14B C15B 1.394(3)
C17B C18B 1.386(2)
C17B C22B 1.389(2)
C18B C19B 1.382(3)
C19B C20B 1.394(3)
C20B C21B 1.392(3)
C20B C23B 1.503(3)
C21B C22B 1.384(3)
Cl1C C7C 1.740(2)
S1C O1C 1.4246(15)
S1C O2C 1.4269(14)
S1C N1C 1.6868(16)
S1C C10C 1.757(2)
S2C O3C 1.4220(16)
S2C O4C 1.4308(15)
S2C N1C 1.6879(16)
S2C C17C 1.756(2)
N1C C3C 1.512(2)
C1C C2C 1.177(4)
C2C C3C 1.471(3)
C3C C4C 1.516(3)
C4C C9C 1.390(3)
C4C C5C 1.394(3)
C5C C6C 1.374(3)
C6C C7C 1.382(3)
C7C C8C 1.378(4)
C8C C9C 1.396(3)
C10C C15C 1.384(3)
C10C C11C 1.390(3)
C11C C12C 1.389(3)
C12C C13C 1.397(3)
C13C C14C 1.381(3)
C13C C16C 1.508(3)
C14C C15C 1.387(3)
C17C C18C 1.383(3)
C17C C22C 1.384(3)
C18C C19C 1.382(3)
C19C C20C 1.392(3)
C20C C21C 1.391(3)
C20C C23C 1.494(3)
C21C C22C 1.382(3)
loop_
_geom_torsion_atom_site_label_1
_geom_torsion_atom_site_label_2
_geom_torsion_atom_site_label_3
_geom_torsion_atom_site_label_4
_geom_torsion
O1A S1A N1A C3A -161.81(13)
O2A S1A N1A C3A -34.14(14)
C10A S1A N1A C3A 81.10(14)
O1A S1A N1A S2A 21.20(12)
O2A S1A N1A S2A 148.87(10)
C10A S1A N1A S2A -95.89(11)
O3A S2A N1A C3A -132.79(13)
O4A S2A N1A C3A -4.24(15)
C17A S2A N1A C3A 110.07(14)
O3A S2A N1A S1A 44.13(12)
O4A S2A N1A S1A 172.68(10)
C17A S2A N1A S1A -73.01(12)
S1A N1A C3A C2A -116.12(14)
S2A N1A C3A C2A 60.88(18)
S1A N1A C3A C4A 112.56(14)
S2A N1A C3A C4A -70.44(17)
C2A C3A C4A C5A -25.3(2)
N1A C3A C4A C5A 104.28(18)
C2A C3A C4A C9A 156.41(15)
N1A C3A C4A C9A -73.97(18)
C9A C4A C5A C6A 2.4(3)
C3A C4A C5A C6A -175.84(16)
C4A C5A C6A C7A -1.2(3)
C5A C6A C7A C8A -0.9(3)
C5A C6A C7A Cl1A 179.25(14)
C6A C7A C8A C9A 1.8(3)
Cl1A C7A C8A C9A -178.37(14)
C7A C8A C9A C4A -0.5(3)
C5A C4A C9A C8A -1.5(3)
C3A C4A C9A C8A 176.80(16)
O1A S1A C10A C15A -18.25(16)
O2A S1A C10A C15A -150.02(13)
N1A S1A C10A C15A 96.75(14)
O1A S1A C10A C11A 157.78(14)
O2A S1A C10A C11A 26.01(16)
N1A S1A C10A C11A -87.22(15)
C15A C10A C11A C12A -0.8(3)
S1A C10A C11A C12A -176.71(14)
C10A C11A C12A C13A -0.6(3)
C11A C12A C13A C14A 2.0(3)
C11A C12A C13A C16A -177.10(17)
C12A C13A C14A C15A -2.1(3)
C16A C13A C14A C15A 177.00(17)
C13A C14A C15A C10A 0.8(3)
C11A C10A C15A C14A 0.7(3)
S1A C10A C15A C14A 176.63(13)
O3A S2A C17A C18A -17.63(17)
O4A S2A C17A C18A -150.17(14)
N1A S2A C17A C18A 98.50(15)
O3A S2A C17A C22A 157.72(14)
O4A S2A C17A C22A 25.19(16)
N1A S2A C17A C22A -86.15(15)
C22A C17A C18A C19A 0.5(3)
S2A C17A C18A C19A 175.79(14)
C17A C18A C19A C20A -0.3(3)
C18A C19A C20A C21A -0.2(3)
C18A C19A C20A C23A -178.29(17)
C19A C20A C21A C22A 0.7(3)
C23A C20A C21A C22A 178.71(18)
C20A C21A C22A C17A -0.5(3)
C18A C17A C22A C21A -0.1(3)
S2A C17A C22A C21A -175.44(14)
O3B S2B N1B C3B 32.10(15)
O4B S2B N1B C3B 160.98(13)
C17B S2B N1B C3B -82.07(14)
O3B S2B N1B S1B -147.04(10)
O4B S2B N1B S1B -18.16(13)
C17B S2B N1B S1B 98.79(11)
O2B S1B N1B C3B 146.64(12)
O1B S1B N1B C3B 18.79(14)
C10B S1B N1B C3B -95.10(13)
O2B S1B N1B S2B -34.20(13)
O1B S1B N1B S2B -162.05(10)
C10B S1B N1B S2B 84.06(12)
S2B N1B C3B C2B -65.80(19)
S1B N1B C3B C2B 113.39(15)
S2B N1B C3B C4B 66.63(17)
S1B N1B C3B C4B -114.19(14)
C2B C3B C4B C9B 11.6(3)
N1B C3B C4B C9B -119.09(19)
C2B C3B C4B C5B -167.41(18)
N1B C3B C4B C5B 61.9(2)
C9B C4B C5B C6B -0.5(3)
C3B C4B C5B C6B 178.57(19)
C4B C5B C6B C7B 0.3(3)
C5B C6B C7B C8B 0.1(4)
C5B C6B C7B Cl1B -178.92(18)
C6B C7B C8B C9B -0.2(3)
Cl1B C7B C8B C9B 178.78(16)
C5B C4B C9B C8B 0.4(3)
C3B C4B C9B C8B -178.64(18)
C7B C8B C9B C4B 0.0(3)
O2B S1B C10B C15B 12.85(17)
O1B S1B C10B C15B 144.91(14)
N1B S1B C10B C15B -104.07(15)
O2B S1B C10B C11B -166.88(14)
O1B S1B C10B C11B -34.81(16)
N1B S1B C10B C11B 76.21(15)
C15B C10B C11B C12B 0.2(3)
S1B C10B C11B C12B 179.93(13)
C10B C11B C12B C13B -0.1(3)
C11B C12B C13B C14B -0.4(3)
C11B C12B C13B C16B 178.21(17)
C12B C13B C14B C15B 0.7(3)
C16B C13B C14B C15B -177.81(16)
C11B C10B C15B C14B 0.1(3)
S1B C10B C15B C14B -179.57(13)
C13B C14B C15B C10B -0.6(3)
O3B S2B C17B C18B -7.23(18)
O4B S2B C17B C18B -140.29(15)
N1B S2B C17B C18B 105.65(16)
O3B S2B C17B C22B 175.72(15)
O4B S2B C17B C22B 42.67(18)
N1B S2B C17B C22B -71.39(17)
C22B C17B C18B C19B 1.8(3)
S2B C17B C18B C19B -175.18(15)
C17B C18B C19B C20B 0.7(3)
C18B C19B C20B C21B -3.1(3)
C18B C19B C20B C23B 175.3(2)
C19B C20B C21B C22B 3.2(3)
C23B C20B C21B C22B -175.2(2)
C20B C21B C22B C17B -0.8(3)
C18B C17B C22B C21B -1.8(3)
S2B C17B C22B C21B 175.22(15)
O1C S1C N1C C3C -31.93(18)
O2C S1C N1C C3C -160.49(15)
C10C S1C N1C C3C 83.25(17)
O1C S1C N1C S2C 141.89(11)
O2C S1C N1C S2C 13.32(15)
C10C S1C N1C S2C -102.94(13)
O3C S2C N1C C3C -141.11(15)
O4C S2C N1C C3C -12.90(18)
C17C S2C N1C C3C 101.63(16)
O3C S2C N1C S1C 45.06(14)
O4C S2C N1C S1C 173.27(12)
C17C S2C N1C S1C -72.20(14)
S1C N1C C3C C2C 69.5(2)
S2C N1C C3C C2C -104.41(18)
S1C N1C C3C C4C -60.6(2)
S2C N1C C3C C4C 125.54(16)
C2C C3C C4C C9C -13.3(3)
N1C C3C C4C C9C 115.0(2)
C2C C3C C4C C5C 169.22(19)
N1C C3C C4C C5C -62.5(2)
C9C C4C C5C C6C -2.0(3)
C3C C4C C5C C6C 175.59(19)
C4C C5C C6C C7C -0.1(3)
C5C C6C C7C C8C 2.0(3)
C5C C6C C7C Cl1C -175.90(16)
C6C C7C C8C C9C -1.7(3)
Cl1C C7C C8C C9C 176.15(16)
C5C C4C C9C C8C 2.3(3)
C3C C4C C9C C8C -175.24(19)
C7C C8C C9C C4C -0.4(3)
O1C S1C C10C C15C -5.36(18)
O2C S1C C10C C15C 126.54(15)
N1C S1C C10C C15C -119.33(16)
O1C S1C C10C C11C 177.07(16)
O2C S1C C10C C11C -51.03(18)
N1C S1C C10C C11C 63.09(17)
C15C C10C C11C C12C 1.3(3)
S1C C10C C11C C12C 178.84(15)
C10C C11C C12C C13C -0.6(3)
C11C C12C C13C C14C -0.3(3)
C11C C12C C13C C16C 179.17(19)
C12C C13C C14C C15C 0.5(3)
C16C C13C C14C C15C -178.98(19)
C11C C10C C15C C14C -1.1(3)
S1C C10C C15C C14C -178.70(15)
C13C C14C C15C C10C 0.2(3)
O3C S2C C17C C18C -4.03(19)
O4C S2C C17C C18C -136.45(16)
N1C S2C C17C C18C 112.18(16)
O3C S2C C17C C22C 176.67(15)
O4C S2C C17C C22C 44.24(18)
N1C S2C C17C C22C -67.12(17)
C22C C17C C18C C19C -0.6(3)
S2C C17C C18C C19C -179.92(15)
C17C C18C C19C C20C 0.7(3)
C18C C19C C20C C21C 0.0(3)
C18C C19C C20C C23C -179.4(2)
C19C C20C C21C C22C -0.9(3)
C23C C20C C21C C22C 178.5(2)
C20C C21C C22C C17C 1.0(3)
C18C C17C C22C C21C -0.2(3)
S2C C17C C22C C21C 179.09(15)
