#------------------------------------------------------------------------------
#$Date: 2016-02-18 17:37:37 +0200 (Thu, 18 Feb 2016) $
#$Revision: 176729 $
#$URL: svn://www.crystallography.net/cod/cif/1/51/75/1517553.cif $
#------------------------------------------------------------------------------
#
# This file is available in the Crystallography Open Database (COD),
# http://www.crystallography.net/
#
# All data on this site have been placed in the public domain by the
# contributors.
#
data_1517553
loop_
_publ_author_name
'Purkait, Nibadita'
'Okumura, Sota'
'Souto, Jos\'e A'
'Mu\~niz, Kilian'
_publ_section_title
;
 Hypervalent iodine mediated oxidative amination of allenes.
;
_journal_issue                   18
_journal_name_full               'Organic letters'
_journal_page_first              4750
_journal_page_last               4753
_journal_paper_doi               10.1021/ol502179z
_journal_volume                  16
_journal_year                    2014
_chemical_formula_sum            'C27 H29 N O4 S2'
_chemical_formula_weight         495.63
_chemical_name_systematic
;
 ?
;
_space_group_IT_number           14
_space_group_name_Hall           '-P 2yn'
_symmetry_cell_setting           monoclinic
_symmetry_space_group_name_Hall  '-P 2yn'
_symmetry_space_group_name_H-M   'P 1 21/n 1'
_atom_sites_solution_hydrogens   geom
_audit_creation_method           SHELXL-2014
_cell_angle_alpha                90
_cell_angle_beta                 114.591(3)
_cell_angle_gamma                90
_cell_formula_units_Z            4
_cell_length_a                   14.1406(10)
_cell_length_b                   12.2673(11)
_cell_length_c                   16.5856(15)
_cell_measurement_reflns_used    4269
_cell_measurement_temperature    100(2)
_cell_measurement_theta_max      25.15
_cell_measurement_theta_min      2.30
_cell_volume                     2616.1(4)
_computing_cell_refinement       'Bruker APEX2 v2011.4-0'
_computing_data_collection       'Bruker APEX2 v2011.4-0'
_computing_data_reduction        'Bruker SAINT V7.60A'
_computing_molecular_graphics    'Bruker SHELXTL'
_computing_publication_material  'Bruker SHELXTL'
_computing_structure_refinement  'SHELXL-2014 (Sheldrick, 2014)'
_computing_structure_solution    Sir2011
_diffrn_ambient_temperature      100(2)
_diffrn_detector_area_resol_mean 512
_diffrn_detector_type            '4K CCD area detector APEX II'
_diffrn_measured_fraction_theta_full 0.985
_diffrn_measured_fraction_theta_max 0.982
_diffrn_measurement_device_type  'APEX DUO Kappa 4-axis goniometer'
_diffrn_measurement_method
;
 Fullsphere data collection, phi and omega scans
;
_diffrn_measurement_specimen_support 'magnetic support with MicroMount'
_diffrn_radiation_monochromator  'Quazar MX Multilayer Optics'
_diffrn_radiation_type           MoK\a
_diffrn_radiation_wavelength     0.71073
_diffrn_reflns_av_R_equivalents  0.0579
_diffrn_reflns_av_unetI/netI     0.0555
_diffrn_reflns_Laue_measured_fraction_full 0.985
_diffrn_reflns_Laue_measured_fraction_max 0.982
_diffrn_reflns_limit_h_max       16
_diffrn_reflns_limit_h_min       -12
_diffrn_reflns_limit_k_max       14
_diffrn_reflns_limit_k_min       -14
_diffrn_reflns_limit_l_max       11
_diffrn_reflns_limit_l_min       -19
_diffrn_reflns_number            14684
_diffrn_reflns_point_group_measured_fraction_full 0.985
_diffrn_reflns_point_group_measured_fraction_max 0.982
_diffrn_reflns_theta_full        25.242
_diffrn_reflns_theta_max         25.377
_diffrn_reflns_theta_min         1.597
_diffrn_source                   'Microfocus source E025 IuS'
_diffrn_source_current           0.6
_diffrn_source_power             50
_diffrn_source_size              '0.2 mm x 0.2 mm fine focus'
_diffrn_source_type              'Bruker APEX DUO'
_exptl_absorpt_coefficient_mu    0.236
_exptl_absorpt_correction_T_max  0.933
_exptl_absorpt_correction_T_min  0.635
_exptl_absorpt_correction_type   empirical
_exptl_absorpt_process_details
; 
 SADABS Version 2008/1 Bruker-Nonius
 Blessing, Acta Cryst. (1995) A51 33-38
;
_exptl_crystal_colour            colourless
_exptl_crystal_density_diffrn    1.258
_exptl_crystal_description       block
_exptl_crystal_F_000             1048
_exptl_crystal_size_max          0.40
_exptl_crystal_size_mid          0.35
_exptl_crystal_size_min          0.30
_refine_diff_density_max         0.370
_refine_diff_density_min         -0.683
_refine_diff_density_rms         0.075
_refine_ls_extinction_method     none
_refine_ls_goodness_of_fit_ref   1.032
_refine_ls_hydrogen_treatment    constr
_refine_ls_matrix_type           full
_refine_ls_number_parameters     342
_refine_ls_number_reflns         4711
_refine_ls_number_restraints     78
_refine_ls_restrained_S_all      1.046
_refine_ls_R_factor_all          0.0673
_refine_ls_R_factor_gt           0.0525
_refine_ls_shift/su_max          0.001
_refine_ls_shift/su_mean         0.000
_refine_ls_structure_factor_coef Fsqd
_refine_ls_weighting_details
'w=1/[\s^2^(Fo^2^)+(0.0893P)^2^+0.8959P] where P=(Fo^2^+2Fc^2^)/3'
_refine_ls_weighting_scheme      calc
_refine_ls_wR_factor_gt          0.1384
_refine_ls_wR_factor_ref         0.1551
_reflns_Friedel_coverage         0.000
_reflns_number_gt                3684
_reflns_number_total             4711
_reflns_threshold_expression     'I > 2\s(I)'
_cod_data_source_file            ol502179z_si_003.cif
_cod_data_source_block           mo_np567_0m
_cod_depositor_comments
;
The following automatic conversions were performed:

'_symmetry_cell_setting' value 'Monoclinic' changed to 'monoclinic'
according to
/home/saulius/struct/COD-crude-data--automatic-downloads/rss-feeds/ACS/lib/dictionaries/cif_core.dic
dictionary named 'cif_core.dic' version 2.4.2 from 2011-04-26.

Automatic conversion script
Id: cif_fix_values 2281 2013-09-26 08:29:07Z andrius 

 Adding full bibliography for 1517553--1517556.cif.
;
_cod_original_sg_symbol_H-M      P2(1)/n
_cod_database_code               1517553
#BEGIN Tags that were not found in dictionaries:
_shelx_space_group_comment
;
The symmetry employed for this shelxl refinement is uniquely defined
by the following loop, which should always be used as a source of
symmetry information in preference to the above space-group names.
They are only intended as comments.
;
_shelx_estimated_absorpt_t_min   0.912
_shelx_estimated_absorpt_t_max   0.933
_shelxl_version_number           2014-3
_shelx_res_file
;
TITL mo_np567_0m in P2(1)/n
CELL 0.71073  14.14060  12.26730  16.58560  90.0000 114.5915  90.0000
ZERR    4.00   0.00100   0.00110   0.00150   0.0000   0.0028   0.0000
LATT 1
SYMM 0.5-X, 0.5+Y, 0.5-Z
SFAC C  H  N  O  S
UNIT 108  116  4  16  8
L.S. 20
BOND
FMAP 2
ACTA
CONF
PLAN 5
SIZE 0.30 0.35 0.40
TEMP 173.000
WGHT    0.089300    0.895900
FVAR       0.10730
MOLE 1
S1    5    0.721896    0.696002    0.172965    11.00000    0.02790    0.02534 =
         0.03254    0.00033    0.01486    0.00004
S2    5    0.803935    0.700868    0.037714    11.00000    0.02907    0.02872 =
         0.03681    0.00194    0.01763    0.00009
N1    3    0.724834    0.645466    0.080047    11.00000    0.02551    0.02604 =
         0.03634   -0.00308    0.01652   -0.00246
O1    4    0.824445    0.734988    0.226074    11.00000    0.02836    0.03549 =
         0.03482   -0.00245    0.01061   -0.00127
O2    4    0.677596    0.610948    0.205772    11.00000    0.03968    0.02938 =
         0.04318    0.00558    0.02319    0.00055
O3    4    0.801474    0.815918    0.048271    11.00000    0.04230    0.03054 =
         0.05317    0.00581    0.02702   -0.00130
O4    4    0.770786    0.652979   -0.048149    11.00000    0.03391    0.04359 =
         0.03806    0.00016    0.01950   -0.00045
C1    1    0.500794    0.617766   -0.118764    11.00000    0.03228    0.04822 =
         0.04739    0.00908    0.00838   -0.00349
AFIX 163
H1    2    0.445597    0.640020   -0.170630    11.00000   -1.20000
AFIX   0
C2    1    0.570719    0.589573   -0.053059    11.00000    0.03045    0.02972 =
         0.04190    0.00191    0.01868   -0.00276
C3    1    0.650632    0.554256    0.032036    11.00000    0.03020    0.02794 =
         0.03541   -0.00276    0.01417   -0.00219
AFIX  13
H3    2    0.613337    0.537342    0.068792    11.00000   -1.20000
AFIX   0
C4    1    0.710044    0.451407    0.032221    11.00000    0.02843    0.02555 =
         0.03991   -0.00123    0.01812   -0.00166
C5    1    0.768411    0.402071    0.112974    11.00000    0.04727    0.03671 =
         0.03847    0.00025    0.02272    0.01040
AFIX  43
H5    2    0.768626    0.431615    0.164689    11.00000   -1.20000
AFIX   0
C6    1    0.826258    0.309636    0.117695    11.00000    0.04958    0.03673 =
         0.04216    0.00511    0.02346    0.01249
AFIX  43
H6    2    0.865215    0.278345    0.172704    11.00000   -1.20000
AFIX   0
C7    1    0.827478    0.262099    0.041474    11.00000    0.04219    0.02267 =
         0.05907   -0.00266    0.03399   -0.00305
C8    1    0.766976    0.310782   -0.039052    11.00000    0.05440    0.03060 =
         0.04930   -0.00596    0.03466   -0.00347
AFIX  43
H8    2    0.765132    0.280282   -0.091021    11.00000   -1.20000
AFIX   0
C9    1    0.708380    0.405049   -0.044095    11.00000    0.04383    0.02865 =
         0.03634   -0.00222    0.02011   -0.00452
AFIX  43
H9    2    0.668441    0.436212   -0.098937    11.00000   -1.20000
AFIX   0
DFIX 1.52 0.01 C10 C11 C10 C12 C10 C13 C10 C11' C10 C12' C10 C13'
DFIX 2.50 0.01 C11 C12 C12 C13 C13 C11 C11' C12' C12' C13' C13' C11'
C10   1    0.896707    0.162819    0.049517    11.00000    0.05900    0.02702 =
         0.07290    0.00108    0.04705    0.00433
SIMU 0.005 C10 > C13'
DELU 0.005 C10 > C13'
PART 1 10.70
C11   1    0.875731    0.075720    0.104851    10.70000    0.09002    0.02778 =
         0.08681    0.00837    0.05735    0.00994
AFIX 137
H11A  2    0.911571    0.009973    0.102955    10.70000   -1.50000
H11B  2    0.802358    0.061717    0.081548    10.70000   -1.50000
H11C  2    0.899979    0.100316    0.165086    10.70000   -1.50000
AFIX   0
C12   1    0.866555    0.111553   -0.044225    10.70000    0.06167    0.02991 =
         0.07843   -0.00713    0.04729    0.00339
AFIX 137
H12A  2    0.883588    0.161579   -0.080688    10.70000   -1.50000
H12B  2    0.793247    0.096766   -0.071137    10.70000   -1.50000
H12C  2    0.904309    0.044824   -0.038427    10.70000   -1.50000
AFIX   0
C13   1    1.007388    0.199936    0.085335    10.70000    0.05237    0.03903 =
         0.07192    0.00701    0.02666    0.01607
AFIX 137
H13A  2    1.029122    0.223340    0.145646    10.70000   -1.50000
H13B  2    1.013417    0.259519    0.050242    10.70000   -1.50000
H13C  2    1.050682    0.140777    0.083113    10.70000   -1.50000
AFIX   0
PART 2 10.30
C11'  1    0.928668    0.097893    0.139767    10.30000    0.08094    0.03939 =
         0.09741    0.02180    0.06386    0.01809
AFIX 137
H11D  2    0.867310    0.079514    0.148045    10.30000   -1.50000
H11E  2    0.973341    0.142505    0.188207    10.30000   -1.50000
H11F  2    0.964694    0.032368    0.137671    10.30000   -1.50000
AFIX   0
C12'  1    0.852923    0.080017   -0.024477    10.30000    0.07832    0.04241 =
         0.10411   -0.01909    0.02246    0.00819
AFIX 137
H12D  2    0.778410    0.084925   -0.051282    10.30000   -1.50000
H12E  2    0.873413    0.008103   -0.000813    10.30000   -1.50000
H12F  2    0.879163    0.094480   -0.068290    10.30000   -1.50000
AFIX   0
C13'  1    0.999556    0.208385    0.052953    10.30000    0.05210    0.04007 =
         0.07877    0.01691    0.04244    0.01063
AFIX 137
H13D  2    1.043212    0.149235    0.051387    10.30000   -1.50000
H13E  2    1.034215    0.249145    0.106716    10.30000   -1.50000
H13F  2    0.985488    0.255239    0.002902    10.30000   -1.50000
AFIX   0
PART 0
C14   1    0.635507    0.806444    0.142674    11.00000    0.03156    0.02705 =
         0.03045   -0.00143    0.01620    0.00074
C15   1    0.529946    0.787450    0.111641    11.00000    0.03541    0.03136 =
         0.04789   -0.00143    0.02216   -0.00259
AFIX  43
H15   2    0.504268    0.716601    0.103889    11.00000   -1.20000
AFIX   0
C16   1    0.462933    0.875750    0.092248    11.00000    0.02910    0.04258 =
         0.04996   -0.00024    0.01980    0.00358
AFIX  43
H16   2    0.391717    0.863236    0.070184    11.00000   -1.20000
AFIX   0
C17   1    0.499250    0.982601    0.104874    11.00000    0.04372    0.03678 =
         0.03053    0.00142    0.02023    0.01011
C18   1    0.606163    0.998940    0.135188    11.00000    0.04794    0.02702 =
         0.03484   -0.00434    0.01837    0.00097
AFIX  43
H18   2    0.631908    1.069746    0.142561    11.00000   -1.20000
AFIX   0
C19   1    0.674814    0.912400    0.154546    11.00000    0.03590    0.02851 =
         0.03360   -0.00354    0.01648   -0.00254
AFIX  43
H19   2    0.745940    0.924636    0.175119    11.00000   -1.20000
AFIX   0
C20   1    0.427020    1.077976    0.086636    11.00000    0.05574    0.04288 =
         0.04857    0.00052    0.02753    0.01815
AFIX 137
H20A  2    0.443605    1.118414    0.140378    11.00000   -1.50000
H20B  2    0.356595    1.052347    0.064829    11.00000   -1.50000
H20C  2    0.434596    1.124254    0.043019    11.00000   -1.50000
AFIX   0
C21   1    0.930727    0.655030    0.104253    11.00000    0.02736    0.03992 =
         0.03822    0.00540    0.01684   -0.00209
C22   1    0.999807    0.723672    0.168429    11.00000    0.03504    0.05348 =
         0.04566    0.00050    0.02279   -0.00885
AFIX  43
H22   2    0.978539    0.791988    0.178747    11.00000   -1.20000
AFIX   0
C23   1    1.100914    0.688523    0.216761    11.00000    0.03677    0.08678 =
         0.04311    0.00572    0.01928   -0.01852
AFIX  43
H23   2    1.147124    0.733706    0.260431    11.00000   -1.20000
AFIX   0
C24   1    1.134867    0.588355    0.201854    11.00000    0.02996    0.08904 =
         0.05585    0.02915    0.01957    0.00671
C25   1    1.064968    0.521878    0.137401    11.00000    0.03757    0.05961 =
         0.07932    0.02222    0.02930    0.01391
AFIX  43
H25   2    1.087120    0.454236    0.126655    11.00000   -1.20000
AFIX   0
C26   1    0.961961    0.553302    0.087885    11.00000    0.03194    0.04391 =
         0.05728    0.00748    0.02030    0.00491
AFIX  43
H26   2    0.915543    0.507320    0.045100    11.00000   -1.20000
AFIX   0
C27   1    1.245913    0.553046    0.254391    11.00000    0.03666    0.15180 =
         0.08039    0.04847    0.01728    0.01771
AFIX 137
H27A  2    1.252908    0.477276    0.243449    11.00000   -1.50000
H27B  2    1.264410    0.563890    0.316454    11.00000   -1.50000
H27C  2    1.291117    0.595491    0.236716    11.00000   -1.50000
AFIX   0
HKLF 4
REM  mo_np567_0m in P2(1)/n
REM R1 =  0.0525 for    3684 Fo > 4sig(Fo)  and  0.0673 for all    4711 data
REM    342 parameters refined using     78 restraints
END
WGHT      0.0862      0.9409
REM Highest difference peak  0.370,  deepest hole -0.683,  1-sigma level  0.075
Q1    1   0.7555  0.6856 -0.0223  11.00000  0.05    0.34
Q2    1   0.6724  0.7166  0.1142  11.00000  0.05    0.34
Q3    1   0.6777  0.7612  0.1443  11.00000  0.05    0.30
Q4    1   0.8405  0.0624  0.0257  11.00000  0.05    0.29
Q5    1   0.7924  0.7210 -0.0528  11.00000  0.05    0.29
;
_shelx_res_checksum              98124
_shelx_hkl_file
;
  -1   0   0   -0.32    0.01
   1   0   0   -0.32    0.01
   2   0   0  200.28   14.88
  -2   0   0  238.61   14.88
  -3   0   0   -0.07    0.04
   3   0   0   -0.03    0.04
   4   0   0  112.94    7.64
  -4   0   0  112.00    7.65
   5   0   0    0.11    0.05
  -5   0   0    0.19    0.06
  -6   0   0    8.62    0.61
   6   0   0    7.67    0.59
   7   0   0    0.06    0.06
  -7   0   0    0.08    0.07
  -8   0   0    3.40    0.32
   8   0   0    3.58    0.29
  -9   0   0   -0.11    0.05
 -10   0   0   16.46    1.32
 -10   0   0   12.83    1.03
 -11   0   0    0.06    0.09
 -11   0   0    0.10    0.20
 -12   0   0    0.23    0.24
  15   0   0    0.21    0.15
   0  -1   0   -0.15    0.01
   0  -1   0   -0.15    0.01
   0   1   0   -0.14    0.01
   0   1   0   -0.16    0.00
   1  -1   0   38.93    2.53
  -1  -1   0   33.58    2.90
   1  -1   0   41.58    2.61
  -1   1   0   38.73    2.61
  -1   1   0   37.85    2.53
   2  -1   0  121.47    7.63
  -2  -1   0  112.38    8.46
   2  -1   0  107.99    7.41
   2   1   0  113.70    8.45
  -2   1   0  106.45    7.63
  -3  -1   0   42.22    3.29
   3  -1   0   42.79    2.93
   3   1   0   43.49    2.95
  -3   1   0   43.28    2.94
   4  -1   0    1.28    0.12
  -4  -1   0    1.18    0.20
   4   1   0    1.39    0.15
  -4   1   0    1.32    0.13
  -5  -1   0   12.79    1.18
  -5  -1   0   14.08    1.02
   5  -1   0   15.00    1.00
  -5   1   0   12.56    1.01
   5   1   0   16.90    1.03
  -6  -1   0   36.65    2.99
  -6  -1   0   36.42    2.63
   6  -1   0   40.24    2.61
  -6   1   0   36.32    2.63
   6   1   0   40.05    2.64
   7  -1   0    0.06    0.05
  -7  -1   0    0.03    0.11
  -7  -1   0    0.14    0.07
  -7   1   0    0.02    0.06
   7   1   0    0.01    0.06
  -8  -1   0    1.24    0.27
  -8   1   0    1.07    0.16
   8   1   0    1.36    0.17
  -9  -1   0    3.12    0.46
  -9   1   0    2.06    0.25
 -10  -1   0    9.66    0.95
 -10   1   0    8.96    0.71
 -11  -1   0   -0.18    0.15
 -11   1   0    0.06    0.09
 -12  -1   0   13.73    1.27
 -12   1   0   12.07    0.94
 -12   1   0   12.14    1.21
  14   1   0    8.92    0.73
  15   1   0    0.01    0.13
   0  -2   0  113.19    6.90
   0  -2   0  101.19    7.84
   0   2   0   99.33    6.90
   1  -2   0   17.25    1.36
   1  -2   0   19.33    1.19
  -1  -2   0   17.57    1.40
   1   2   0   17.06    1.39
  -1   2   0   18.90    1.36
   1   2   0   18.07    1.21
  -1   2   0   17.55    1.24
  -1   2   0   17.31    1.19
  -2  -2   0   80.68    6.01
   2  -2   0   73.25    5.24
   2  -2   0   85.13    5.40
  -2   2   0   82.85    5.24
   2   2   0   75.06    6.00
  -2   2   0   79.35    5.40
  -3  -2   0    5.96    0.55
   3  -2   0    6.43    0.41
   3  -2   0    5.87    0.43
  -3   2   0    5.71    0.43
  -3   2   0    5.98    0.41
   3   2   0    5.01    0.53
  -4  -2   0   33.54    3.12
   4  -2   0   41.00    2.77
   4  -2   0   37.79    2.69
  -4   2   0   40.98    2.77
   4   2   0   45.76    3.16
   4   2   0   44.31    2.80
   5  -2   0    6.84    0.50
  -5  -2   0    7.23    0.67
   5  -2   0    6.98    0.51
   5   2   0    7.96    0.56
  -5   2   0    6.69    0.52
   6  -2   0   35.20    2.25
  -6  -2   0   29.91    2.64
   6  -2   0   34.87    2.30
   6   2   0   33.59    2.34
  -6   2   0   32.16    2.31
  -7  -2   0    1.01    0.24
   7   2   0    1.03    0.17
  -7   2   0    1.15    0.15
  -8  -2   0    6.60    0.63
  -8   2   0    4.79    0.43
  -9  -2   0    1.12    0.30
  -9   2   0    1.23    0.18
 -10  -2   0   14.47    1.30
 -10   2   0   13.20    1.02
 -11  -2   0    0.55    0.26
 -11   2   0    0.55    0.14
 -12  -2   0    0.83    0.32
 -12   2   0    0.71    0.15
  13   2   0    0.99    0.22
  14   2   0    0.09    0.14
  15   2   0    0.32    0.16
   0  -3   0   -0.05    0.04
   0  -3   0    0.06    0.04
   0   3   0    0.01    0.04
   0   3   0    0.06    0.06
  -1  -3   0    5.37    0.45
   1  -3   0    5.05    0.41
   1  -3   0    4.97    0.35
  -1   3   0    4.62    0.41
   1   3   0    5.15    0.37
  -1   3   0    4.50    0.34
  -2  -3   0   97.70    6.94
   2  -3   0  100.99    6.05
  -2   3   0   97.69    6.04
  -2   3   0   82.54    6.23
  -2   3   0   94.07    6.88
   2   3   0   90.05    6.08
   2   3   0   77.22    6.92
   3  -3   0   28.44    1.79
   3  -3   0   25.03    1.85
  -3  -3   0   30.61    2.14
  -3   3   0   26.68    1.85
  -3   3   0   24.73    1.79
   3   3   0   26.87    2.12
  -4  -3   0   16.01    1.28
   4  -3   0   15.93    1.02
   4  -3   0   15.42    1.07
   4   3   0   12.72    1.25
  -4   3   0   14.48    1.03
  -4   3   0   15.97    1.07
   5  -3   0    0.44    0.07
  -5  -3   0    0.35    0.14
   5   3   0    0.45    0.13
   5   3   0    0.36    0.16
  -5   3   0    0.41    0.09
   6  -3   0    5.44    0.39
  -6  -3   0    5.88    0.59
  -6   3   0    4.97    0.42
  -7  -3   0    0.88    0.23
   7  -3   0    1.52    0.15
  -7   3   0    1.11    0.15
  -8  -3   0    1.10    0.26
  -8   3   0    1.42    0.19
  -9  -3   0   16.00    1.34
  -9   3   0   13.52    1.05
 -10  -3   0   19.59    1.60
 -10   3   0   16.19    1.26
 -11  -3   0    1.11    0.33
 -12  -3   0    0.40    0.26
  12   3   0    0.38    0.15
 -12   3   0    0.38    0.13
  13   3   0    3.13    0.38
  14   3   0    0.81    0.21
  15   3   0    0.57    0.20
   0  -4   0   11.90    0.73
   0  -4   0    9.81    0.84
   0   4   0    9.13    0.72
  -1  -4   0   65.58    4.90
   1  -4   0   62.30    4.27
   1  -4   0   67.18    4.87
   1   4   0   64.20    4.90
  -1   4   0   68.03    4.87
  -1   4   0   54.61    4.27
   1   4   0   69.75    4.29
   2  -4   0    9.68    0.60
  -2  -4   0    8.15    0.74
  -2   4   0    7.57    0.59
  -2   4   0    8.14    0.69
  -2   4   0    7.72    0.62
   2   4   0    9.25    0.76
   2   4   0   10.23    0.63
  -3  -4   0  132.27    9.57
   3  -4   0  136.51    8.34
  -3   4   0  122.01    8.33
   3   4   0  125.14    9.56
  -3   4   0  117.06    8.59
   3   4   0  125.24    8.38
   4  -4   0    0.08    0.03
  -4  -4   0    0.00    0.11
  -4   4   0    0.05    0.03
  -4   4   0    0.09    0.06
   4   4   0    0.02    0.10
   4   4   0   -0.06    0.06
   5  -4   0   34.18    2.19
  -5  -4   0   35.83    2.65
  -5   4   0   31.27    2.27
  -5   4   0   31.14    2.19
  -6  -4   0   17.20    1.53
   6  -4   0   18.99    1.21
  -6   4   0   16.78    1.27
  -7  -4   0    4.09    0.61
   7  -4   0    5.69    0.38
  -7   4   0    4.80    0.42
  -8  -4   0    0.04    0.15
   8  -4   0    0.32    0.07
  -8   4   0    0.18    0.09
  -9  -4   0   15.66    1.39
  -9   4   0   14.52    1.10
 -10  -4   0    2.62    0.49
 -10   4   0    3.35    0.33
  10   4   0    4.14    0.42
 -11  -4   0    2.37    0.48
 -11   4   0    2.09    0.27
  11   4   0    2.46    0.32
 -12  -4   0    0.01    0.23
  12   4   0    0.02    0.12
 -12   4   0    0.09    0.10
  13   4   0    4.46    0.49
  14   4   0    0.41    0.17
   0  -5   0   -0.09    0.06
   0   5   0   -0.11    0.06
   0   5   0   -0.01    0.05
  -1  -5   0   68.51    5.37
   1  -5   0   74.01    4.69
   1  -5   0   72.90    5.34
  -1   5   0   70.32    4.68
   1   5   0   74.89    4.71
   1   5   0   61.96    5.36
   2  -5   0    4.49    0.34
  -2  -5   0    3.84    0.45
   2  -5   0    4.65    0.41
  -2   5   0    4.66    0.37
  -2   5   0    4.83    0.33
   2   5   0    3.99    0.36
  -3  -5   0   17.34    1.53
   3  -5   0   19.70    1.26
  -3   5   0   19.16    1.32
   3   5   0   17.17    1.30
  -3   5   0   18.70    1.25
  -4  -5   0    6.05    0.67
   4  -5   0    7.30    0.49
  -4   5   0    6.63    0.49
   4   5   0    7.11    0.55
  -4   5   0    7.08    0.53
  -5  -5   0    1.38    0.28
   5  -5   0    1.40    0.13
   5   5   0    1.54    0.21
  -5   5   0    1.45    0.17
  -5   5   0    1.35    0.13
  -6  -5   0    0.39    0.18
   6  -5   0    0.50    0.07
  -6   5   0    0.34    0.07
   6   5   0    0.67    0.15
  -6   5   0    0.27    0.09
  -7  -5   0    2.70    0.45
   7  -5   0    2.72    0.21
   7   5   0    2.30    0.30
  -7   5   0    2.61    0.26
  -8  -5   0    0.94    0.29
   8  -5   0    0.72    0.10
   8   5   0    0.61    0.17
  -8   5   0    0.59    0.13
  -9  -5   0    4.90    0.66
   9   5   0    3.35    0.40
  -9   5   0    3.45    0.34
 -10  -5   0    2.16    0.44
 -10   5   0    1.65    0.24
  10   5   0    1.66    0.28
 -11  -5   0   14.89    1.38
 -11   5   0   12.66    1.02
  11   5   0   13.75    1.06
  12   5   0    2.09    0.32
 -12   5   0    1.97    0.27
  13   5   0    3.00    0.39
  14   5   0    0.04    0.14
   0  -6   0    0.17    0.09
   0   6   0    0.03    0.06
  -1  -6   0    1.11    0.19
   1  -6   0    1.15    0.17
   1   6   0    0.96    0.15
  -1   6   0    1.20    0.14
   2  -6   0    1.17    0.16
  -2  -6   0    1.48    0.25
   2   6   0    1.17    0.16
  -2   6   0    0.78    0.14
  -2   6   0    0.95    0.12
  -3  -6   0   16.39    1.22
   3   6   0   11.75    0.98
  -3   6   0   14.55    0.94
  -3   6   0   12.99    1.00
  -4  -6   0    8.19    0.83
   4  -6   0    8.35    0.61
  -4   6   0    9.04    0.61
   4   6   0    8.34    0.67
  -4   6   0    9.26    0.67
  -5  -6   0    1.16    0.28
   5  -6   0    1.09    0.12
   5   6   0    0.96    0.17
  -5   6   0    0.98    0.12
  -5   6   0    1.03    0.15
  -6  -6   0   19.02    1.83
   6  -6   0   22.83    1.46
   6   6   0   21.94    1.55
  -6   6   0   21.11    1.47
  -6   6   0   22.00    1.55
   7  -6   0    0.65    0.09
  -7  -6   0    0.38    0.22
   7   6   0    0.40    0.14
  -7   6   0    0.43    0.11
  -8  -6   0    3.21    0.52
   8  -6   0    2.31    0.20
  -8   6   0    2.68    0.29
   8   6   0    2.28    0.32
  -9  -6   0    3.70    0.58
  -9   6   0    3.10    0.34
   9   6   0    2.92    0.37
 -10  -6   0    3.27    0.58
  10   6   0    3.73    0.43
 -10   6   0    3.74    0.36
 -11  -6   0    2.15    0.50
 -11   6   0    1.57    0.24
  11   6   0    1.55    0.28
 -12   6   0    1.85    0.28
  12   6   0    2.22    0.33
  13   6   0    2.02    0.33
  14   6   0    0.43    0.20
   0  -7   0    0.05    0.08
   0   7   0    0.00    0.06
  -1  -7   0    0.79    0.18
   1  -7   0    0.85    0.16
  -1   7   0    0.62    0.14
  -1   7   0    0.78    0.12
   1   7   0    0.61    0.13
   2  -7   0    1.74    0.24
  -2  -7   0    1.26    0.26
  -2   7   0    1.43    0.20
  -2   7   0    1.93    0.17
   2   7   0    1.58    0.21
  -3  -7   0    6.79    0.69
  -3   7   0    6.84    0.50
   3   7   0    7.68    0.56
  -3   7   0    6.29    0.55
  -4  -7   0    3.83    0.52
   4   7   0    3.48    0.34
  -4   7   0    3.74    0.34
  -4   7   0    3.50    0.28
  -5  -7   0    5.42    0.66
  -5   7   0    4.58    0.36
  -5   7   0    4.85    0.42
   5   7   0    4.67    0.43
  -6  -7   0    2.62    0.46
  -6   7   0    3.10    0.31
   6   7   0    2.87    0.35
  -6   7   0    3.31    0.26
  -7  -7   0    1.52    0.36
  -7   7   0    1.91    0.18
   7   7   0    1.58    0.26
  -7   7   0    1.81    0.24
  -8  -7   0    0.68    0.29
   8   7   0    0.49    0.17
  -8   7   0    0.37    0.13
  -9  -7   0    3.25    0.56
  -9   7   0    2.09    0.29
   9   7   0    2.58    0.34
 -10  -7   0    4.29    0.70
  10   7   0    5.01    0.53
 -10   7   0    4.82    0.45
 -11  -7   0    6.08    0.88
  11   7   0    4.82    0.54
 -11   7   0    4.88    0.47
 -12   7   0    2.06    0.29
  12   7   0    1.83    0.32
  13   7   0    3.94    0.49
   0  -8   0   46.27    3.77
   0   8   0   50.97    3.29
   1  -8   0    0.11    0.10
  -1  -8   0    0.35    0.15
  -1   8   0    0.24    0.12
  -1   8   0    0.18    0.09
   1   8   0    0.17    0.09
  -2  -8   0   35.53    2.91
   2  -8   0   40.68    2.87
  -2   8   0   39.45    2.48
   2   8   0   36.09    2.52
  -2   8   0   31.46    2.57
  -3  -8   0    0.46    0.19
  -3   8   0    0.72    0.11
   3   8   0    0.85    0.17
  -3   8   0    0.53    0.14
  -4  -8   0    2.03    0.37
   4   8   0    1.97    0.26
  -4   8   0    1.48    0.23
  -4   8   0    1.73    0.17
  -5  -8   0    2.94    0.49
   5   8   0    2.88    0.36
  -5   8   0    3.46    0.27
  -5   8   0    2.87    0.34
  -6  -8   0    1.90    0.40
  -6   8   0    1.76    0.16
  -6   8   0    1.08    0.20
   6   8   0    1.33    0.24
  -7  -8   0    1.46    0.39
   7   8   0    1.97    0.30
  -7   8   0    1.89    0.26
  -7   8   0    2.13    0.20
  -8  -8   0    0.80    0.34
   8   8   0    0.33    0.16
  -8   8   0    0.44    0.14
  -9  -8   0    4.50    0.72
   9   8   0    5.36    0.52
  -9   8   0    5.62    0.49
 -10  -8   0    1.91    0.46
 -10   8   0    1.56    0.26
  10   8   0    1.99    0.33
 -11   8   0    0.20    0.13
  11   8   0    0.42    0.18
  12   8   0    4.98    0.56
 -12   8   0    4.58    0.51
  13   8   0    0.56    0.23
   0  -9   0   -0.02    0.09
   0   9   0    0.00    0.09
   0   9   0    0.05    0.08
  -1  -9   0    2.47    0.36
   1  -9   0    2.59    0.34
  -1   9   0    2.17    0.26
  -1   9   0    2.41    0.31
   1   9   0    2.64    0.30
   2  -9   0    7.61    0.69
  -2  -9   0    8.09    0.75
  -2   9   0    7.80    0.57
  -2   9   0    5.85    0.60
   2   9   0    7.69    0.60
  -3  -9   0    4.25    0.55
  -3   9   0    3.74    0.38
   3   9   0    4.71    0.41
  -3   9   0    3.77    0.33
  -4  -9   0    2.67    0.46
   4   9   0    2.61    0.33
  -4   9   0    2.42    0.31
  -4   9   0    2.60    0.24
  -5  -9   0    1.93    0.40
  -5   9   0    1.75    0.19
  -5   9   0    1.71    0.25
   5   9   0    1.45    0.26
  -6  -9   0    0.15    0.20
  -6   9   0   -0.03    0.10
  -6   9   0    0.11    0.07
   6   9   0    0.05    0.14
  -7  -9   0    0.02    0.19
   7   9   0   -0.07    0.12
  -7   9   0   -0.04    0.06
  -7   9   0   -0.01    0.11
  -8  -9   0    0.00    0.22
  -8   9   0    0.19    0.13
   8   9   0    0.03    0.13
  -9  -9   0    0.04    0.26
  -9   9   0    0.35    0.15
   9   9   0    0.27    0.17
 -10   9   0    3.53    0.40
  10   9   0    2.74    0.42
  11   9   0    0.27    0.18
 -11   9   0    0.17    0.14
 -12   9   0    5.59    0.55
  12   9   0    5.81    0.64
   0 -10   0   51.07    3.84
   0  10   0   51.94    3.34
   0  10   0   44.07    3.45
  -1 -10   0    3.07    0.41
   1 -10   0    2.57    0.36
   1  10   0    3.18    0.34
  -1  10   0    2.45    0.33
  -1  10   0    2.42    0.29
  -2 -10   0    9.29    0.88
   2 -10   0    8.86    0.81
   2  10   0    9.26    0.71
  -2  10   0    8.04    0.67
  -2  10   0    9.26    0.74
  -3 -10   0    2.08    0.37
  -3  10   0    1.39    0.25
   3  10   0    1.50    0.26
  -3  10   0    1.79    0.21
  -4 -10   0    4.48    0.60
   4  10   0    4.62    0.42
  -4  10   0    3.57    0.32
  -4  10   0    3.35    0.41
  -5 -10   0    1.65    0.38
  -5  10   0    1.72    0.19
  -5  10   0    1.55    0.26
   5  10   0    1.31    0.26
  -6 -10   0    0.50    0.27
   6  10   0    0.92    0.23
  -6  10   0    0.93    0.14
  -6  10   0    0.85    0.20
  -7 -10   0    1.50    0.40
  -7  10   0    0.98    0.21
   7  10   0    1.30    0.26
  -8 -10   0    0.95    0.34
   8  10   0    0.40    0.18
  -8  10   0    0.57    0.18
   9  10   0    0.00    0.13
  -9  10   0    0.05    0.13
 -10  10   0    7.07    0.63
  10  10   0    6.41    0.70
 -11  10   0   -0.09    0.12
  11  10   0    0.05    0.16
   0 -11   0   -0.09    0.11
   0  11   0   -0.19    0.09
   0  11   0   -0.13    0.12
   1 -11   0    0.68    0.20
  -1 -11   0    0.52    0.21
  -1  11   0    0.31    0.13
   1  11   0    0.18    0.14
  -1  11   0    0.57    0.18
   1  11   0    0.49    0.16
  -2 -11   0    0.12    0.15
   2 -11   0    0.06    0.12
  -2  11   0    0.08    0.13
  -2  11   0    0.06    0.09
   2  11   0    0.00    0.10
  -3 -11   0    0.98    0.29
  -3  11   0    0.78    0.20
  -3  11   0    1.34    0.19
   3  11   0    1.21    0.24
  -4 -11   0    0.13    0.21
  -4  11   0    0.12    0.09
   4  11   0    0.46    0.18
  -4  11   0    0.08    0.14
  -5 -11   0    1.12    0.36
  -5  11   0    1.63    0.20
   5  11   0    1.19    0.26
  -5  11   0    1.22    0.25
  -6 -11   0    0.56    0.30
   6  11   0    0.78    0.22
  -6  11   0    0.97    0.21
  -7 -11   0    1.60    0.43
   7  11   0    1.81    0.32
  -7  11   0    1.26    0.25
  -8  11   0    0.06    0.13
   8  11   0   -0.03    0.14
  -9  11   0    0.35    0.16
   9  11   0    0.20    0.17
  10  11   0    1.03    0.28
 -10  11   0    1.53    0.28
   0 -12   0    2.83    0.43
   0  12   0    2.81    0.33
   0  12   0    2.29    0.34
  -1 -12   0    0.60    0.22
   1 -12   0    0.35    0.18
  -1  12   0    0.09    0.12
   1  12   0    0.22    0.15
  -1  12   0    0.25    0.15
   1  12   0    0.13    0.13
  -2 -12   0    2.14    0.39
   2 -12   0    1.35    0.29
  -2  12   0    1.35    0.27
   2  12   0    1.15    0.24
   2  12   0    0.79    0.22
  -2  12   0    1.39    0.22
  -3 -12   0    0.41    0.25
   3  12   0    0.42    0.18
  -3  12   0    0.43    0.14
  -3  12   0    0.73    0.20
  -4 -12   0   10.06    1.03
  -4  12   0   10.45    0.84
  -4  12   0    9.14    0.73
   4  12   0    9.92    0.82
  -5 -12   0   -0.09    0.21
  -5  12   0   -0.13    0.12
   5  12   0   -0.16    0.13
  -6 -12   0    3.01    0.55
   6  12   0    1.73    0.32
  -6  12   0    2.27    0.34
  -7  12   0    0.25    0.17
   7  12   0    0.31    0.19
   8  12   0   -0.02    0.14
  -8  12   0   -0.09    0.13
  -9  12   0    0.93    0.25
   9  12   0    1.20    0.29
   0 -13   0   -0.15    0.14
   0  13   0   -0.27    0.10
   0  13   0   -0.28    0.13
  -1 -13   0    1.32    0.30
   1 -13   0    1.21    0.30
   1  13   0    0.45    0.21
  -1  13   0    0.93    0.21
  -1  13   0    0.54    0.23
   1  13   0    0.53    0.19
  -2 -13   0    1.51    0.36
  -2  13   0    1.38    0.28
   2  13   0    1.81    0.30
   2  13   0    1.69    0.31
  -2  13   0    1.61    0.25
  -3 -13   0    0.52    0.23
   3  13   0    0.17    0.16
  -3  13   0    0.07    0.15
   3  13   0    0.00    0.13
  -3  13   0    0.19    0.11
  -4 -13   0    0.39    0.28
   4  13   0    0.31    0.19
  -4  13   0    0.40    0.20
   4  13   0   -0.13    0.13
  -5  13   0    2.18    0.36
   5  13   0    2.88    0.39
   6  13   0    0.44    0.21
  -6  13   0    0.45    0.21
   7  13   0    0.05    0.16
  -7  13   0    0.24    0.17
   0 -14   0   -0.35    0.14
   0  14   0    0.00    0.15
   0  14   0   -0.14    0.12
  -1 -14   0    5.14    0.65
   1 -14   0    4.82    0.61
   1  14   0    3.50    0.48
  -1  14   0    4.37    0.42
   1  14   0    4.17    0.47
  -1  14   0    3.42    0.48
   2  14   0    1.03    0.26
   2  14   0    0.76    0.23
  -2  14   0    0.49    0.22
  -2  14   0    0.89    0.20
  -3  14   0    2.79    0.43
   3  14   0    4.66    0.49
   3  14   0    3.56    0.47
   4  14   0    0.23    0.17
  -4  14   0   -0.11    0.15
   4  14   0   -0.25    0.14
   5  14   0    0.00    0.16
  -5  14   0   -0.02    0.16
  15   0  -1    0.25    0.14
  14   0  -1   -0.05    0.10
  13   0  -1    4.43    0.41
 -12   0   1    0.15    0.19
 -11   0   1    0.88    0.29
 -10   0   1    0.24    0.17
  10   0  -1   -0.01    0.05
  -9   0   1    2.58    0.40
   9   0  -1    3.05    0.23
  -9   0   1    2.24    0.24
   8   0  -1   -0.02    0.04
  -8   0   1   -0.06    0.05
   7   0  -1   83.13    5.41
  -7   0   1   75.71    5.43
   6   0  -1   -0.06    0.03
  -6   0   1   -0.05    0.04
   5   0  -1   53.17    3.51
  -5   0   1   49.66    3.52
  -4   0   1   -0.08    0.03
   4   0  -1   -0.04    0.02
   3   0  -1    1.64    0.12
  -3   0   1    1.60    0.13
   2   0  -1    0.00    0.01
   1   0  -1  148.86   11.01
  -1   0   1  170.62   12.15
  -1   0   1  180.62   11.03
  -1   0   1  141.64   10.72
   1   0  -1  170.66   12.15
   0   0   1   -0.34    0.00
   0   0  -1   -0.35    0.00
   0   0   1   -0.34    0.01
   0   0  -1   -0.35    0.01
   1   0   1  205.54   14.71
  -1   0  -1  228.50   14.71
  -2   0  -1   -0.05    0.05
   2   0   1   -0.08    0.04
  -3   0  -1  151.42   10.38
   3   0   1  153.88   10.37
  -4   0  -1    0.03    0.05
   4   0   1   -0.07    0.04
   5   0   1    1.85    0.20
  -5   0  -1    2.39    0.22
   6   0   1   -0.06    0.06
  -6   0  -1   -0.01    0.06
  -7   0  -1    8.64    0.67
  -8   0  -1   -0.02    0.07
  -9   0  -1    7.40    0.61
 -10   0  -1    0.06    0.16
 -10   0  -1   -0.15    0.07
 -11   0  -1   12.08    1.15
 -11   0  -1   11.21    0.90
 -12   0  -1    0.08    0.11
 -12   0  -1    0.00    0.15
  15   1  -1    5.58    0.51
  14  -1  -1    3.37    0.36
  14   1  -1    3.51    0.39
  13   1  -1    6.61    0.56
 -12  -1   1    3.21    0.53
 -12   1   1    2.84    0.50
 -12   1   1    2.56    0.30
  12   1  -1    3.33    0.34
 -11  -1   1   32.65    2.55
 -11   1   1   29.02    2.12
  10  -1  -1    0.19    0.06
 -10  -1   1    0.31    0.19
 -10   1   1    0.12    0.08
  10   1  -1    0.14    0.07
  -9  -1   1   27.50    2.29
   9  -1  -1   28.31    1.91
  -9   1   1   26.95    1.94
   9   1  -1   28.09    1.93
   8  -1  -1   16.81    1.18
  -8  -1   1   16.85    1.45
   8   1  -1   17.54    1.20
  -8   1   1   16.45    1.20
   7  -1  -1   40.75    2.67
  -7  -1   1   38.99    3.08
   7   1  -1   39.10    2.69
  -7   1   1   37.32    2.69
  -6  -1   1    1.31    0.24
   6  -1  -1    1.34    0.12
  -6   1   1    1.26    0.14
   6   1  -1    1.45    0.15
   5  -1  -1    0.29    0.05
  -5  -1   1    0.16    0.10
  -5   1   1    0.14    0.05
   5   1  -1    0.10    0.06
   4  -1  -1   66.77    4.34
  -4  -1   1   63.02    4.86
   4   1  -1   66.67    4.36
  -4   1   1   58.91    4.34
  -3  -1   1    0.57    0.12
   3  -1  -1    0.68    0.06
  -3   1   1    0.58    0.06
   3   1  -1    0.71    0.09
   3   1  -1    0.49    0.12
  -2  -1   1   53.86    4.11
  -2  -1   1   55.55    3.60
   2   1  -1   53.90    3.60
   2   1  -1   53.44    4.11
  -1  -1   1   86.61    5.65
  -1  -1   1   79.32    6.42
   1   1  -1   87.32    5.65
   1   1  -1   87.29    6.42
   1   1  -1   87.10    5.81
   0  -1   1   64.34    4.04
   0  -1  -1   52.50    4.59
   0   1  -1   60.95    4.58
   0   1  -1   66.23    4.16
   0   1  -1   61.77    4.04
  -1  -1  -1   43.09    3.71
   1  -1   1   52.55    3.35
   1  -1   1   52.80    3.25
  -1   1  -1   49.85    3.35
  -1   1  -1   48.45    3.25
   1   1   1   47.52    3.71
  -2  -1  -1  151.85   12.46
   2  -1   1  188.38   10.95
   2  -1   1  163.43   11.26
  -2  -1  -1  147.81   11.28
   2   1   1  170.24   11.28
  -2   1  -1  168.06   10.95
  -2   1  -1  171.82   11.27
   3  -1   1   59.84    4.01
   3  -1   1   60.92    3.91
  -3  -1  -1   55.37    4.48
  -3  -1  -1   57.29    4.03
   3   1   1   56.51    4.03
  -3   1  -1   62.40    4.02
   4  -1   1   43.88    2.82
   4  -1   1   44.13    2.75
  -4  -1  -1   35.18    2.83
  -4  -1  -1   40.21    3.18
   4   1   1   41.58    2.84
  -4   1  -1   40.91    2.83
   5  -1   1   66.87    4.44
  -5  -1  -1   59.75    4.46
  -5  -1  -1   64.93    4.99
  -5   1  -1   65.12    4.46
   5   1   1   67.97    4.47
  -6  -1  -1    6.77    0.57
  -6  -1  -1    7.54    0.71
  -6   1  -1    7.12    0.56
   6   1   1    7.56    0.57
  -7  -1  -1    2.02    0.32
  -7  -1  -1    2.03    0.25
  -7   1  -1    2.30    0.25
  -8  -1  -1    1.12    0.18
  -8  -1  -1    1.01    0.25
  -8   1  -1    1.16    0.18
  -9  -1  -1    0.22    0.11
  -9  -1  -1    0.56    0.22
  -9   1  -1    0.19    0.10
 -10  -1  -1    1.74    0.36
 -10   1  -1    1.32    0.21
 -11  -1  -1    2.01    0.44
 -11   1  -1    2.23    0.29
 -12  -1  -1    0.31    0.24
 -12   1  -1    0.02    0.10
  15   2  -1    0.95    0.21
  14   2  -1    0.85    0.19
  13   2  -1    0.00    0.11
 -12  -2   1    1.60    0.39
 -12   2   1    0.91    0.16
  12   2  -1    1.08    0.20
 -11  -2   1   21.32    1.80
  11   2  -1   20.33    1.44
 -11   2   1   19.27    1.44
 -10  -2   1    0.03    0.16
 -10   2   1    0.04    0.07
  -9  -2   1    1.16    0.28
  -9   2   1    1.16    0.16
   9   2  -1    1.26    0.17
   8  -2  -1    1.94    0.17
  -8  -2   1    1.91    0.34
   8  -2  -1    2.04    0.20
   8   2  -1    2.19    0.23
  -8   2   1    1.94    0.21
   7  -2  -1   13.87    0.95
  -7  -2   1   13.56    1.19
   7  -2  -1   12.70    0.94
   7   2  -1   15.76    1.00
  -7   2   1   12.42    0.97
  -6  -2   1   13.37    1.13
   6  -2  -1   13.41    0.90
   6  -2  -1   13.55    0.92
   6   2  -1   12.98    0.95
  -6   2   1   12.14    0.92
   5  -2  -1   46.85    3.07
   5  -2  -1   42.82    2.98
  -5  -2   1   39.60    3.47
   5   2  -1   47.72    3.10
  -5   2   1   46.84    3.08
   4  -2  -1    0.04    0.02
  -4  -2   1   -0.04    0.07
   4   2  -1   -0.02    0.04
  -4   2   1    0.06    0.03
   4   2  -1    0.02    0.08
  -3  -2   1   19.68    1.50
   3  -2  -1   18.46    1.25
  -3   2   1   18.90    1.30
   3   2  -1   18.62    1.29
   2  -2  -1    1.08    0.09
  -2  -2   1    1.65    0.13
   2   2  -1    1.31    0.12
  -2   2   1    1.07    0.09
  -2   2   1    1.24    0.12
   2   2  -1    1.28    0.18
  -1  -2   1    0.95    0.12
  -1  -2   1    1.06    0.09
   1  -2  -1    1.02    0.11
   1   2  -1    1.07    0.10
  -1   2   1    0.96    0.09
   1   2  -1    1.26    0.14
  -1   2   1    1.00    0.11
   0  -2   1   90.46    5.90
   0  -2   1   85.73    6.70
   0  -2  -1   84.12    6.72
   0   2  -1  101.33    6.08
   0   2  -1   92.84    5.90
   0   2  -1   85.68    6.70
   0   2   1   85.36    6.72
  -1  -2  -1  275.23   20.89
   1  -2   1  258.58   18.37
   1  -2   1  305.10   18.90
   1   2   1  276.51   20.88
  -1   2  -1  270.00   18.37
  -1   2  -1  288.16   18.90
   2  -2   1   74.75    4.75
  -2  -2  -1   61.86    5.28
   2  -2   1   74.82    4.61
   2   2   1   63.51    5.28
  -2   2  -1   69.57    4.61
  -2   2  -1   71.69    4.75
  -3  -2  -1  139.28   10.99
   3  -2   1  154.95    9.90
   3  -2   1  160.89    9.62
  -3   2  -1  158.34    9.91
   3   2   1  132.62    9.92
  -3   2  -1  144.92    9.62
   3   2   1  127.42   10.97
  -4  -2  -1    3.06    0.41
   4  -2   1    3.76    0.29
   4  -2   1    4.16    0.29
   4   2   1    3.86    0.33
  -4   2  -1    3.25    0.30
   5  -2   1   75.45    4.84
  -5  -2  -1   67.08    5.58
  -5   2  -1   68.66    4.99
   5   2   1   79.53    5.02
  -6  -2  -1    3.10    0.42
  -6   2  -1    2.81    0.27
  -7  -2  -1    1.03    0.26
  -7   2  -1    1.42    0.19
  -8  -2  -1   -0.04    0.12
  -8   2  -1    0.05    0.07
  -9  -2  -1   -0.19    0.11
  -9   2  -1    0.11    0.09
 -10  -2  -1    1.40    0.36
 -10   2  -1    1.60    0.23
 -11  -2  -1   11.93    1.17
 -11   2  -1   11.18    0.89
 -12  -2  -1    3.51    0.60
 -12   2  -1    3.35    0.38
  15   3  -1    0.10    0.14
  14   3  -1    4.27    0.46
  13   3  -1    6.25    0.56
 -12  -3   1   -0.24    0.15
 -12   3   1    0.01    0.09
  12   3  -1   -0.11    0.11
 -11  -3   1   55.78    4.27
  11   3  -1   53.82    3.62
 -11   3   1   50.70    3.67
 -10  -3   1   30.65    2.38
  10   3  -1   28.31    1.97
 -10   3   1   26.53    1.98
  -9  -3   1    4.12    0.56
  -9   3   1    3.94    0.36
   9   3  -1    4.50    0.39
   8  -3  -1   21.63    1.31
  -8  -3   1   16.22    1.61
   8   3  -1   19.18    1.36
  -8   3   1   18.18    1.36
   7  -3  -1    0.62    0.08
  -7  -3   1    0.86    0.22
   7   3  -1    0.59    0.13
  -7   3   1    0.50    0.10
   7   3  -1    0.48    0.12
   6  -3  -1    0.01    0.03
  -6  -3   1   -0.04    0.08
   6   3  -1    0.18    0.14
   6   3  -1    0.05    0.08
   6   3  -1   -0.03    0.06
  -6   3   1    0.04    0.05
   5  -3  -1   19.41    1.28
  -5  -3   1   20.98    1.60
  -5   3   1   18.85    1.34
   5   3  -1   18.49    1.58
   5   3  -1   18.55    1.33
  -4  -3   1   30.46    2.25
   4  -3  -1   27.92    1.87
  -4   3   1   25.52    1.87
   4   3  -1   29.04    1.92
  -4   3   1   26.97    1.95
   4   3  -1   32.34    2.25
   3  -3  -1  104.54    6.87
  -3  -3   1  115.70    7.89
  -3   3   1   97.41    6.86
   3   3  -1   89.37    7.87
  -3   3   1  105.65    7.82
   3   3  -1  117.17    6.91
  -3   3   1  100.39    7.08
  -2  -3   1  100.90    7.14
   2  -3  -1   92.36    6.23
   2  -3  -1   83.17    7.09
   2   3  -1  104.62    6.26
  -2   3   1   91.27    7.09
  -2   3   1   92.14    6.23
   2   3  -1   97.99    7.14
   1  -3  -1   16.41    1.40
  -1  -3   1   19.82    1.42
  -1  -3   1   18.73    1.23
  -1   3   1   16.41    1.40
  -1   3   1   19.61    1.22
   0  -3  -1   46.23    3.65
   0  -3   1   49.94    3.63
   0   3  -1   49.99    3.19
   0   3  -1   48.87    3.64
   0   3   1   44.16    3.65
   0   3  -1   50.67    3.29
   0   3   1   46.25    3.20
   1  -3   1   24.60    1.45
   1  -3   1   23.40    1.40
  -1  -3  -1   20.48    1.64
  -1   3  -1   20.64    1.59
  -1   3  -1   17.80    1.44
  -1   3  -1   19.99    1.39
   1   3   1   18.24    1.62
   2  -3   1  109.80    8.20
  -2  -3  -1  119.26    9.12
   2  -3   1  137.25    7.96
  -2   3  -1  117.35    7.96
  -2   3  -1  129.73    8.21
   2   3   1  109.37    9.09
   3  -3   1    1.73    0.13
  -3  -3  -1    1.31    0.22
   3   3   1    1.08    0.20
  -3   3  -1    1.46    0.15
  -3   3  -1    1.45    0.13
   4  -3   1   64.31    3.92
  -4  -3  -1   59.53    4.55
  -4   3  -1   55.09    3.92
  -4   3  -1   56.92    4.04
   5  -3   1   13.96    0.83
  -5  -3  -1    9.27    1.02
  -5   3  -1   11.26    0.87
  -6  -3  -1   12.62    1.17
  -6   3  -1   13.64    0.97
  -7  -3  -1    0.08    0.13
  -7   3  -1   -0.14    0.05
  -8  -3  -1   11.71    1.09
  -8   3  -1   11.25    0.87
  -9  -3  -1    0.75    0.27
  -9   3  -1    1.13    0.18
 -10  -3  -1    1.20    0.33
 -10   3  -1    0.53    0.15
 -11  -3  -1    1.95    0.45
 -11   3  -1    1.50    0.24
 -12  -3  -1    1.33    0.38
 -12   3  -1    0.57    0.17
  14   3   1    0.16    0.14
  15   4  -1    0.52    0.18
  14   4  -1   -0.13    0.11
  13   4  -1    0.29    0.14
  12   4  -1    0.81    0.20
 -12   4   1    0.65    0.15
 -11  -4   1   -0.11    0.18
  11   4  -1    0.09    0.13
 -11   4   1    0.03    0.09
 -10  -4   1    2.17    0.42
  10   4  -1    1.70    0.25
 -10   4   1    1.58    0.21
   9  -4  -1   10.20    0.66
  -9  -4   1    9.53    0.95
   9   4  -1    8.97    0.74
  -9   4   1    8.51    0.71
  -8  -4   1    2.11    0.39
   8  -4  -1    2.25    0.18
   8   4  -1    2.40    0.28
  -8   4   1    2.06    0.22
  -7  -4   1    3.46    0.47
   7  -4  -1    3.72    0.26
   7   4  -1    3.30    0.32
  -7   4   1    3.06    0.29
  -6  -4   1   21.88    1.70
   6  -4  -1   20.29    1.34
   6   4  -1   19.37    1.68
  -6   4   1   18.46    1.41
   6   4  -1   21.14    1.42
  -5  -4   1   30.99    2.85
   5  -4  -1   36.04    2.40
  -5   4   1   33.45    2.40
   5   4  -1   38.23    2.47
  -5   4   1   37.46    2.50
   5   4  -1   42.58    2.90
  -4  -4   1   89.65    5.92
   4  -4  -1   70.82    5.08
   4   4  -1   87.59    5.91
  -4   4   1   68.89    5.08
  -4   4   1   74.88    5.26
   4   4  -1   76.25    5.14
   3  -4  -1    0.91    0.09
  -3  -4   1    1.05    0.19
   3   4  -1    1.09    0.14
  -3   4   1    0.99    0.09
  -3   4   1    0.82    0.12
   2  -4  -1    9.93    0.80
   2  -4  -1   10.88    0.69
  -2  -4   1    8.85    0.83
  -2   4   1   10.06    0.68
   2   4  -1    9.69    0.84
  -1  -4   1    3.60    0.33
   1  -4  -1    3.24    0.31
   1   4  -1    2.93    0.26
   1   4  -1    4.12    0.35
  -1   4   1    3.44    0.26
  -1   4   1    3.12    0.31
   0  -4  -1    5.70    0.52
   0  -4   1    6.30    0.43
   0  -4   1    6.08    0.51
   0   4   1    5.23    0.52
   0   4  -1    6.20    0.44
   0   4  -1    6.21    0.46
   0   4   1    6.21    0.44
   0   4  -1    5.54    0.51
   1  -4   1   12.78    1.04
   1  -4   1   14.43    0.91
  -1  -4  -1   11.46    1.08
  -1   4  -1   13.37    0.91
  -1   4  -1   13.54    1.05
  -1   4  -1   13.30    0.95
   1   4   1   13.28    0.93
   2  -4   1    6.34    0.43
  -2  -4  -1    5.66    0.57
  -2   4  -1    5.61    0.45
  -2   4  -1    6.80    0.51
  -2   4  -1    5.62    0.42
   2   4   1    5.89    0.56
   3  -4   1    3.76    0.27
  -3  -4  -1    2.89    0.40
  -3   4  -1    3.55    0.30
  -3   4  -1    3.64    0.27
   4  -4   1    6.08    0.42
  -4  -4  -1    6.33    0.62
  -4   4  -1    5.56    0.42
  -4   4  -1    5.63    0.45
  -5  -4  -1    7.83    0.86
   5  -4   1   10.19    0.65
  -5   4  -1    8.97    0.66
  -5   4  -1    9.12    0.70
   6  -4   1    0.87    0.11
  -6  -4  -1    1.00    0.25
  -6   4  -1    0.62    0.12
  -7  -4  -1    0.43    0.19
  -7   4  -1    0.38    0.11
  -8  -4  -1    2.06    0.40
  -8   4  -1    1.69    0.23
  -9  -4  -1    2.12    0.41
  -9   4  -1    2.00    0.26
 -10  -4  -1   19.23    1.63
 -10   4  -1   16.30    1.28
 -11  -4  -1    8.61    0.88
 -11   4  -1    5.87    0.56
 -12  -4  -1    0.29    0.28
 -12   4  -1    0.63    0.16
  13   4   1    0.34    0.17
  14   4   1    4.89    0.55
  14   5  -1    0.50    0.19
  13   5  -1    2.23    0.33
 -12   5   1    9.67    0.81
  12   5  -1   11.41    0.86
 -11  -5   1    0.58    0.30
  11   5  -1    0.38    0.16
 -11   5   1    0.32    0.11
 -10  -5   1    4.03    0.63
 -10   5   1    4.58    0.42
  10   5  -1    5.66    0.48
   9  -5  -1    2.87    0.22
  -9  -5   1    3.66    0.54
   9   5  -1    2.32    0.31
  -9   5   1    2.59    0.28
  -8  -5   1   63.92    4.92
   8  -5  -1   64.41    4.13
   8   5  -1   61.75    4.23
  -8   5   1   59.65    4.30
  -7  -5   1    0.03    0.15
   7  -5  -1    0.12    0.04
  -7   5   1    0.05    0.07
   7   5  -1    0.14    0.10
  -6  -5   1    6.03    0.72
   6  -5  -1    7.64    0.50
   6   5  -1    7.09    0.58
  -6   5   1    7.37    0.56
  -5  -5   1    0.17    0.14
   5  -5  -1    0.15    0.04
  -5   5   1    0.17    0.04
   5   5  -1    0.20    0.09
  -5   5   1    0.17    0.07
  -4  -5   1    1.17    0.23
   4  -5  -1    1.33    0.12
  -4   5   1    1.22    0.11
   4   5  -1    1.11    0.17
  -4   5   1    1.39    0.16
   4   5  -1    1.56    0.26
   3  -5  -1   21.34    1.48
  -3  -5   1   22.58    1.78
   3   5  -1   21.12    1.78
  -3   5   1   22.01    1.55
   3   5  -1   22.14    1.52
  -3   5   1   22.52    1.47
  -2  -5   1   91.63    6.48
   2  -5  -1   89.70    6.43
  -2   5   1   92.41    5.64
   2   5  -1   75.55    6.46
   2   5  -1   75.82    5.66
   1  -5  -1    9.85    0.78
  -1  -5   1    9.12    0.79
  -1   5   1    9.02    0.66
   1   5  -1    9.49    0.67
   0  -5   1    8.12    0.73
   0  -5  -1    9.07    0.76
   0   5  -1    8.73    0.74
   0   5  -1    9.18    0.63
   0   5   1    8.51    0.63
   0   5  -1    9.19    0.66
  -1  -5  -1   39.07    2.75
   1  -5   1   35.87    2.68
  -1   5  -1   32.70    2.68
   1   5   1   36.21    2.37
  -1   5  -1   34.39    2.34
  -1   5  -1   32.65    2.42
  -2  -5  -1    8.49    0.73
   2  -5   1    7.75    0.55
  -2   5  -1    7.82    0.66
  -2   5  -1    6.83    0.58
  -2   5  -1    7.85    0.54
   2   5   1    7.69    0.58
   3  -5   1   72.47    4.54
  -3  -5  -1   58.77    5.26
  -3   5  -1   67.52    4.53
  -3   5  -1   67.47    4.69
   3   5   1   74.33    4.60
  -4  -5  -1   -0.11    0.10
   4  -5   1    0.03    0.04
  -4   5  -1   -0.08    0.05
  -4   5  -1    0.00    0.04
  -5  -5  -1   10.55    1.03
   5  -5   1   11.88    0.78
  -5   5  -1   10.83    0.83
  -5   5  -1   11.10    0.79
  -6  -5  -1   11.12    1.03
  -6   5  -1   10.53    0.75
  -6   5  -1   10.40    0.80
  -7  -5  -1    3.50    0.53
  -7   5  -1    3.48    0.33
  -8  -5  -1    1.97    0.41
  -8   5  -1    1.54    0.22
  -9  -5  -1    3.26    0.53
  -9   5  -1    2.45    0.30
 -10  -5  -1    2.75    0.53
 -10   5  -1    2.61    0.32
 -11  -5  -1    0.34    0.28
  11   5   1   -0.10    0.12
 -11   5  -1    0.25    0.12
 -12   5  -1    0.89    0.19
  12   5   1    0.80    0.22
  13   5   1    0.99    0.25
  14   5   1    2.01    0.34
  14   6  -1    0.61    0.21
  13   6  -1    2.13    0.33
  12   6  -1    4.09    0.47
 -12   6   1    4.24    0.40
 -11  -6   1    0.18    0.24
  11   6  -1    0.07    0.13
 -11   6   1    0.00    0.08
 -10  -6   1    0.35    0.27
 -10   6   1    0.47    0.13
  10   6  -1    0.38    0.16
  -9  -6   1    1.31    0.36
   9   6  -1    0.99    0.22
  -9   6   1    1.60    0.21
  -8  -6   1    2.08    0.42
   8  -6  -1    2.51    0.19
  -8   6   1    2.71    0.27
   8   6  -1    2.25    0.30
   7  -6  -1    2.17    0.19
  -7  -6   1    3.57    0.50
  -7   6   1    3.31    0.27
   7   6  -1    2.56    0.31
   6  -6  -1    0.56    0.08
  -6  -6   1    0.57    0.21
  -6   6   1    0.67    0.08
  -6   6   1    0.61    0.12
   6   6  -1    0.43    0.14
  -5  -6   1    0.95    0.25
   5  -6  -1    1.09    0.11
   5   6  -1    1.16    0.18
  -5   6   1    1.01    0.10
  -5   6   1    0.74    0.14
   4  -6  -1   15.21    1.08
  -4  -6   1   15.12    1.35
  -4   6   1   16.37    1.07
   4   6  -1   17.00    1.14
  -4   6   1   15.40    1.14
   3  -6  -1    7.91    0.56
  -3  -6   1    8.22    0.74
  -3   6   1    7.32    0.55
  -3   6   1    8.54    0.61
   3   6  -1    7.70    0.60
  -2  -6   1    0.00    0.08
   2  -6  -1    0.08    0.07
   2   6  -1    0.26    0.09
  -2   6   1    0.11    0.05
   1  -6  -1    5.21    0.46
  -1  -6   1    4.17    0.46
  -1   6   1    5.05    0.38
   1   6  -1    4.89    0.39
   0  -6  -1   23.39    2.02
   0  -6   1   26.22    2.01
   0   6  -1   26.08    1.75
   0   6  -1   25.68    1.81
   0   6   1   26.48    1.75
  -1  -6  -1    6.51    0.66
   1  -6   1    7.73    0.62
  -1   6  -1    7.42    0.52
  -1   6  -1    6.87    0.56
   1   6   1    6.83    0.54
  -2  -6  -1    2.85    0.38
   2   6   1    2.30    0.26
  -2   6  -1    2.61    0.21
  -2   6  -1    2.20    0.23
  -3  -6  -1    1.10    0.24
   3   6   1    0.43    0.12
  -3   6  -1    0.73    0.10
  -3   6  -1    0.73    0.13
  -4  -6  -1   13.35    1.20
  -4   6  -1   12.38    0.92
  -4   6  -1   14.29    0.98
   4   6   1   13.61    0.99
  -5  -6  -1    4.23    0.58
  -5   6  -1    4.48    0.34
  -5   6  -1    4.20    0.37
   5   6   1    4.12    0.40
  -6  -6  -1   14.45    1.36
   6   6   1   14.90    1.11
  -6   6  -1   15.80    1.10
  -6   6  -1   14.33    1.04
  -7  -6  -1   32.89    2.60
  -7   6  -1   29.52    2.18
   7   6   1   30.82    2.17
  -8  -6  -1    0.23    0.22
  -8   6  -1    0.24    0.11
   8   6   1    0.32    0.15
  -9  -6  -1    1.06    0.35
  -9   6  -1    0.96    0.18
   9   6   1    1.03    0.23
 -10  -6  -1    0.43    0.28
  10   6   1    0.86    0.21
 -10   6  -1    0.95    0.19
 -11  -6  -1    2.45    0.54
 -11   6  -1    2.59    0.33
  11   6   1    2.44    0.35
  12   6   1    3.56    0.43
 -12   6  -1    2.95    0.38
  13   6   1    2.43    0.37
  13   7  -1    6.75    0.64
  12   7  -1    5.85    0.61
 -12   7   1    5.56    0.51
  11   7  -1    6.68    0.60
 -11   7   1    6.23    0.55
 -10  -7   1   11.14    1.12
  10   7  -1    9.41    0.83
 -10   7   1   10.61    0.81
  -9  -7   1    4.13    0.61
  -9   7   1    3.11    0.36
   9   7  -1    3.70    0.43
  -8  -7   1   23.88    1.91
  -8   7   1   20.43    1.53
   8   7  -1   20.63    1.54
   7  -7  -1    0.03    0.05
  -7  -7   1   -0.02    0.16
  -7   7   1    0.08    0.10
   7   7  -1    0.12    0.12
  -7   7   1    0.13    0.05
  -6  -7   1    0.10    0.16
   6  -7  -1    0.08    0.05
  -6   7   1    0.00    0.04
  -6   7   1   -0.13    0.06
   6   7  -1   -0.18    0.07
   5  -7  -1    1.65    0.17
  -5  -7   1    1.66    0.33
   5   7  -1    1.75    0.23
  -5   7   1    1.61    0.15
  -5   7   1    1.67    0.21
  -4  -7   1    1.72    0.32
  -4   7   1    1.61    0.15
  -4   7   1    1.69    0.21
   4   7  -1    1.74    0.23
  -3  -7   1    7.85    0.72
  -3   7   1    7.27    0.59
  -3   7   1    7.82    0.53
   3   7  -1    6.38    0.57
   2  -7  -1   10.30    0.86
  -2  -7   1    9.89    0.90
  -2   7   1   10.40    0.73
   2   7  -1    9.99    0.75
   1  -7  -1   19.86    1.73
  -1  -7   1   21.93    1.75
   1   7  -1   22.81    1.51
  -1   7   1   22.25    1.50
   0  -7   1   14.44    1.19
   0  -7  -1   17.26    1.23
   0   7  -1   13.39    1.07
   0   7   1   12.56    1.02
   0   7  -1   15.64    1.03
   1  -7   1   34.46    2.43
  -1  -7  -1   29.96    2.47
  -1   7  -1   29.90    2.19
  -1   7  -1   32.35    2.11
   1   7   1   28.54    2.12
  -2  -7  -1    2.70    0.38
  -2   7  -1    2.45    0.21
  -2   7  -1    2.14    0.25
   2   7   1    2.22    0.26
  -3  -7  -1    5.37    0.61
   3   7   1    6.02    0.48
  -3   7  -1    5.54    0.47
  -3   7  -1    5.66    0.42
  -4  -7  -1    1.65    0.33
  -4   7  -1    2.06    0.18
   4   7   1    2.07    0.27
  -4   7  -1    1.91    0.23
  -5  -7  -1    0.54    0.25
  -5   7  -1    0.60    0.10
  -5   7  -1    0.32    0.11
   5   7   1    0.55    0.15
  -6  -7  -1    8.83    0.91
  -6   7  -1    8.59    0.62
  -6   7  -1    8.82    0.68
   6   7   1    7.57    0.68
  -7  -7  -1    5.58    0.73
  -7   7  -1    5.14    0.47
  -7   7  -1    5.25    0.42
   7   7   1    5.19    0.50
  -8  -7  -1    0.54    0.27
  -8   7  -1    0.61    0.15
   8   7   1    0.61    0.19
  -9  -7  -1    5.45    0.77
  -9   7  -1    4.81    0.44
   9   7   1    3.77    0.49
 -10  -7  -1    0.86    0.34
  10   7   1    0.91    0.24
 -10   7  -1    1.13    0.21
 -11  -7  -1    0.14    0.28
 -11   7  -1    0.39    0.15
  11   7   1    0.20    0.16
  12   7   1   -0.19    0.13
 -12   7  -1   -0.01    0.12
  13   7   1   -0.04    0.14
  13   8  -1   -0.22    0.14
  12   8  -1    0.83    0.24
 -12   8   1    0.89    0.19
 -11   8   1    0.55    0.16
  11   8  -1    0.61    0.20
 -10  -8   1    0.99    0.38
  10   8  -1    0.80    0.22
 -10   8   1    1.38    0.22
  -9  -8   1    0.13    0.24
   9   8  -1    0.10    0.13
  -9   8   1   -0.13    0.08
  -8  -8   1    0.94    0.33
   8   8  -1    1.19    0.23
  -8   8   1    1.16    0.20
  -7  -8   1    1.68    0.39
  -7   8   1    1.25    0.20
   7   8  -1    1.29    0.25
  -7   8   1    1.26    0.15
  -6  -8   1    4.42    0.58
  -6   8   1    3.17    0.34
  -6   8   1    3.64    0.29
  -5  -8   1    3.30    0.48
   5   8  -1    2.86    0.32
  -5   8   1    2.20    0.28
  -5   8   1    2.33    0.21
  -4  -8   1    3.35    0.45
   4   8  -1    2.25    0.28
  -4   8   1    1.65    0.24
  -4   8   1    2.17    0.19
  -3  -8   1    3.88    0.51
   3  -8  -1    4.92    0.46
  -3   8   1    4.39    0.41
   3   8  -1    4.33    0.40
  -3   8   1    4.77    0.36
  -2  -8   1    0.72    0.19
   2  -8  -1    1.16    0.20
   2   8  -1    0.62    0.15
  -2   8   1    0.66    0.13
   1  -8  -1    0.12    0.10
  -1  -8   1    0.05    0.10
  -1   8   1    0.08    0.07
   1   8  -1   -0.02    0.09
   1   8  -1    0.06    0.08
   0  -8   1    3.56    0.37
   0  -8  -1    2.99    0.38
   0   8  -1    3.09    0.32
   0   8   1    2.92    0.32
   0   8  -1    3.16    0.29
   1  -8   1   16.09    1.27
  -1  -8  -1   13.88    1.30
  -1   8  -1   15.83    1.08
   1   8   1   14.95    1.10
  -1   8  -1   15.46    1.14
  -2  -8  -1    5.98    0.59
  -2   8  -1    4.61    0.40
  -2   8  -1    4.89    0.44
   2   8   1    5.62    0.45
  -3  -8  -1    2.08    0.37
  -3   8  -1    1.90    0.25
  -3   8  -1    2.25    0.21
   3   8   1    2.11    0.27
  -4  -8  -1    6.90    0.73
  -4   8  -1    6.08    0.53
   4   8   1    6.29    0.54
  -4   8  -1    6.28    0.47
  -5  -8  -1   19.20    1.66
  -5   8  -1   19.27    1.36
  -5   8  -1   18.22    1.28
   5   8   1   17.32    1.35
  -6  -8  -1    0.78    0.31
   6   8   1    1.43    0.24
  -6   8  -1    1.42    0.17
  -6   8  -1    1.39    0.22
  -7  -8  -1   -0.21    0.18
  -7   8  -1    0.18    0.12
  -7   8  -1    0.15    0.08
   7   8   1    0.06    0.12
  -8  -8  -1    0.38    0.29
   8   8   1    0.21    0.15
  -8   8  -1    0.51    0.15
  -9  -8  -1    1.34    0.39
  -9   8  -1    1.90    0.28
   9   8   1    1.51    0.29
 -10  -8  -1    2.15    0.51
  10   8   1    2.50    0.37
 -10   8  -1    2.25    0.31
 -11   8  -1    5.25    0.54
  11   8   1    6.51    0.60
 -12   8  -1    1.24    0.25
  12   8   1    0.97    0.26
 -12   9   1   -0.09    0.10
  12   9  -1   -0.04    0.15
 -11   9   1    5.67    0.52
  11   9  -1    4.98    0.57
  10   9  -1    1.18    0.26
 -10   9   1    1.42    0.24
  -9  -9   1   10.45    1.07
   9   9  -1    9.22    0.80
  -9   9   1    9.00    0.76
  -8  -9   1    0.06    0.21
  -8   9   1    0.23    0.12
   8   9  -1    0.07    0.13
  -7  -9   1   13.39    1.30
  -7   9   1   13.07    0.93
  -7   9   1   13.36    1.02
   7   9  -1   13.84    1.04
  -6  -9   1    1.23    0.34
  -6   9   1    0.81    0.12
  -6   9   1    0.74    0.19
   6   9  -1    0.91    0.21
  -5  -9   1    5.04    0.63
   5   9  -1    3.79    0.42
  -5   9   1    3.66    0.31
  -5   9   1    4.24    0.40
  -4  -9   1    0.12    0.16
  -4   9   1    0.22    0.13
  -4   9   1    0.17    0.07
   4   9  -1   -0.02    0.10
  -3  -9   1    4.71    0.57
   3  -9  -1    4.47    0.47
  -3   9   1    4.33    0.42
   3   9  -1    4.53    0.41
  -3   9   1    4.24    0.36
   2  -9  -1    6.26    0.59
  -2  -9   1    5.92    0.62
  -2   9   1    5.91    0.47
  -2   9   1    5.23    0.52
   2   9  -1    6.44    0.51
   2   9  -1    6.18    0.53
   1  -9  -1    2.30    0.33
  -1  -9   1    2.73    0.37
  -1   9   1    2.43    0.27
   1   9  -1    2.52    0.28
   1   9  -1    2.22    0.30
   0  -9   1    0.25    0.12
   0  -9  -1    0.18    0.13
   0   9   1    0.31    0.12
   0   9  -1   -0.01    0.07
   0   9  -1    0.14    0.11
  -1  -9  -1   12.34    1.07
   1  -9   1   12.64    1.03
  -1   9  -1   10.33    0.86
   1   9   1   12.71    0.90
  -2  -9  -1    0.22    0.17
  -2   9  -1   -0.11    0.11
   2   9   1   -0.22    0.10
  -2   9  -1    0.05    0.08
  -3  -9  -1    1.85    0.36
  -3   9  -1    1.30    0.23
  -3   9  -1    1.78    0.20
   3   9   1    1.84    0.27
  -4  -9  -1    0.66    0.26
  -4   9  -1    0.81    0.19
   4   9   1    0.85    0.20
  -4   9  -1    1.16    0.15
  -5  -9  -1    4.14    0.59
  -5   9  -1    3.48    0.30
   5   9   1    2.90    0.37
  -5   9  -1    3.03    0.36
  -6  -9  -1   -0.13    0.18
   6   9   1    0.17    0.13
  -6   9  -1    0.00    0.10
  -6   9  -1    0.17    0.08
  -7  -9  -1    3.12    0.54
  -7   9  -1    3.12    0.28
   7   9   1    2.49    0.36
  -7   9  -1    2.79    0.35
  -8  -9  -1    5.17    0.75
  -8   9  -1    3.55    0.41
   8   9   1    3.26    0.44
  -9  -9  -1    1.97    0.50
  -9   9  -1    3.00    0.35
   9   9   1    1.93    0.35
  10   9   1    3.46    0.47
 -10   9  -1    4.30    0.46
  11   9   1    0.33    0.19
 -11   9  -1    0.05    0.12
  11  10  -1   -0.15    0.12
 -11  10   1   -0.19    0.09
  10  10  -1    0.24    0.19
 -10  10   1    0.14    0.14
  -9  10   1    0.23    0.14
   9  10  -1    0.34    0.18
  -8 -10   1    3.01    0.56
  -8  10   1    3.25    0.37
   8  10  -1    2.14    0.35
  -7 -10   1    0.02    0.20
  -7  10   1    0.00    0.11
   7  10  -1   -0.09    0.13
  -6 -10   1    2.84    0.51
   6  10  -1    2.91    0.38
  -6  10   1    2.98    0.26
  -6  10   1    3.05    0.37
  -5 -10   1    4.39    0.58
  -5  10   1    3.30    0.40
   5  10  -1    3.17    0.41
  -5  10   1    3.87    0.31
  -4 -10   1    2.12    0.41
   4  10  -1    1.96    0.30
  -4  10   1    2.70    0.24
  -4  10   1    2.12    0.31
  -3 -10   1    0.12    0.15
   3  10  -1   -0.24    0.08
  -3  10   1   -0.28    0.09
  -3  10   1   -0.08    0.07
   2 -10  -1    4.41    0.47
  -2 -10   1    4.93    0.56
  -2  10   1    4.44    0.37
   2  10  -1    4.06    0.40
   2  10  -1    3.57    0.42
  -2  10   1    3.11    0.41
  -1 -10   1   17.16    1.47
   1 -10  -1   16.42    1.45
   1  10  -1   16.78    1.31
   1  10  -1   17.72    1.26
  -1  10   1   18.27    1.24
   0 -10  -1   -0.03    0.13
   0 -10   1    0.00    0.11
   0  10  -1   -0.19    0.08
   0  10   1   -0.30    0.09
   0  10  -1   -0.25    0.09
  -1 -10  -1    5.89    0.62
   1 -10   1    5.69    0.57
  -1  10  -1    4.62    0.49
  -1  10  -1    5.43    0.46
   1  10   1    5.56    0.48
  -2 -10  -1    0.30    0.19
  -2  10  -1    0.26    0.11
  -2  10  -1    0.20    0.15
   2  10   1    0.13    0.14
  -3 -10  -1   23.02    1.96
  -3  10  -1   22.50    1.68
  -3  10  -1   24.29    1.59
   3  10   1   21.08    1.64
  -4 -10  -1    0.49    0.23
  -4  10  -1    0.11    0.13
  -4  10  -1    0.28    0.10
   4  10   1    0.10    0.14
  -5 -10  -1    6.76    0.86
  -5  10  -1    7.76    0.56
   5  10   1    6.66    0.63
  -5  10  -1    6.82    0.62
  -6 -10  -1    0.58    0.30
  -6  10  -1    0.74    0.13
  -6  10  -1    0.22    0.14
   6  10   1    0.63    0.19
  -7 -10  -1    0.54    0.30
  -7  10  -1    0.39    0.16
   7  10   1    0.40    0.18
  -8 -10  -1    0.51    0.31
  -8  10  -1    0.79    0.20
   8  10   1    0.65    0.21
  -9 -10  -1   -0.11    0.24
   9  10   1    0.03    0.14
  -9  10  -1   -0.09    0.11
  10  10   1    0.16    0.18
 -10  10  -1    0.37    0.18
 -11  10  -1    1.68    0.31
  10  11  -1    0.34    0.19
 -10  11   1    0.04    0.13
  -9  11   1    3.27    0.41
   9  11  -1    3.13    0.44
   8  11  -1    0.35    0.18
  -8  11   1    0.61    0.19
  -7 -11   1    3.35    0.60
   7  11  -1    3.59    0.43
  -7  11   1    2.63    0.36
  -6 -11   1    0.07    0.21
  -6  11   1   -0.04    0.12
   6  11  -1   -0.16    0.12
  -5 -11   1    7.38    0.85
  -5  11   1    7.45    0.58
   5  11  -1    7.95    0.68
  -5  11   1    8.46    0.69
  -4 -11   1    0.62    0.26
   4  11  -1    0.79    0.20
   4  11  -1    0.83    0.21
  -4  11   1    0.75    0.14
  -4  11   1    0.67    0.19
  -3 -11   1    0.07    0.17
  -3  11   1    0.03    0.13
   3  11  -1    0.22    0.15
   3  11  -1    0.25    0.15
  -3  11   1    0.33    0.12
   2 -11  -1   -0.13    0.11
  -2 -11   1   -0.03    0.12
   2  11  -1   -0.03    0.11
   2  11  -1   -0.05    0.13
  -2  11   1   -0.05    0.09
  -2  11   1   -0.03    0.12
   1 -11  -1    0.14    0.15
  -1 -11   1    0.34    0.18
  -1  11   1    0.33    0.13
   1  11  -1    0.08    0.13
  -1  11   1    0.16    0.14
   1  11  -1    0.17    0.12
   0 -11  -1    1.80    0.32
   0 -11   1    2.20    0.33
   0  11   1    1.88    0.27
   0  11  -1    1.52    0.27
   0  11  -1    2.26    0.28
   1 -11   1    7.53    0.75
  -1 -11  -1    8.48    0.81
  -1  11  -1    6.70    0.66
  -1  11  -1    7.69    0.62
   1  11   1    8.65    0.66
  -2 -11  -1    0.12    0.18
   2  11   1    0.18    0.14
  -2  11  -1    0.13    0.10
  -2  11  -1   -0.01    0.14
  -3 -11  -1    4.07    0.55
  -3  11  -1    2.34    0.33
  -3  11  -1    2.60    0.28
   3  11   1    1.97    0.32
  -4 -11  -1    1.91    0.40
  -4  11  -1    1.24    0.25
  -4  11  -1    1.12    0.18
   4  11   1    1.24    0.25
  -5 -11  -1   -0.38    0.14
  -5  11  -1   -0.15    0.11
   5  11   1   -0.03    0.13
  -5  11  -1    0.06    0.08
  -6 -11  -1    4.15    0.66
   6  11   1    2.89    0.40
  -6  11  -1    2.86    0.38
  -7 -11  -1    0.47    0.32
   7  11   1    0.18    0.16
  -7  11  -1    0.24    0.15
  -8 -11  -1    0.15    0.25
   8  11   1   -0.01    0.15
  -8  11  -1    0.09    0.14
  -9  11  -1    1.05    0.24
   9  11   1    1.25    0.28
  -9  12   1    0.19    0.16
   9  12  -1    0.45    0.21
  -8  12   1    0.27    0.16
   8  12  -1    0.26    0.19
   7  12  -1    1.02    0.25
  -7  12   1    0.79    0.22
  -6  12   1    5.83    0.55
   6  12  -1    5.10    0.58
   6  12  -1    5.22    0.55
  -5 -12   1   -0.27    0.16
   5  12  -1   -0.16    0.13
  -5  12   1   -0.10    0.13
   5  12  -1   -0.13    0.13
  -4 -12   1   -0.31    0.14
   4  12  -1    0.00    0.14
  -4  12   1    0.09    0.15
  -4  12   1   -0.08    0.08
   4  12  -1   -0.18    0.14
  -3 -12   1    1.63    0.33
   3  12  -1    1.16    0.25
  -3  12   1    1.13    0.19
   3  12  -1    1.25    0.25
  -3  12   1    0.95    0.24
  -2 -12   1    2.06    0.36
   2 -12  -1    2.31    0.38
  -2  12   1    1.72    0.30
   2  12  -1    1.96    0.31
   2  12  -1    2.31    0.30
  -2  12   1    2.13    0.27
  -1 -12   1    1.33    0.29
   1 -12  -1    0.98    0.25
   1  12  -1    0.90    0.23
  -1  12   1    1.36    0.21
  -1  12   1    0.82    0.22
   1  12  -1    1.08    0.22
   0 -12   1   -0.08    0.11
   0 -12  -1    0.00    0.14
   0  12  -1    0.03    0.11
   0  12   1   -0.12    0.10
   0  12   1    0.03    0.12
   0  12  -1   -0.01    0.10
   1 -12   1    0.73    0.20
  -1 -12  -1    0.70    0.24
  -1  12  -1    0.49    0.15
   1  12   1    0.73    0.19
  -1  12  -1    0.47    0.17
  -2 -12  -1    2.30    0.41
   2  12   1    1.53    0.27
  -2  12  -1    1.71    0.30
  -2  12  -1    2.20    0.26
  -3 -12  -1    2.47    0.44
  -3  12  -1    1.75    0.30
  -3  12  -1    1.92    0.25
   3  12   1    1.76    0.30
  -4 -12  -1    2.86    0.52
  -4  12  -1    2.88    0.40
  -4  12  -1    2.98    0.30
   4  12   1    3.14    0.41
  -5 -12  -1    1.39    0.42
  -5  12  -1    1.86    0.24
  -5  12  -1    1.96    0.32
   5  12   1    1.94    0.32
  -6 -12  -1    0.41    0.27
  -6  12  -1    0.04    0.15
   6  12   1   -0.02    0.15
  -7 -12  -1    0.31    0.29
   7  12   1   -0.05    0.15
  -7  12  -1    0.05    0.14
  -8  12  -1    1.74    0.31
   8  12   1    1.48    0.30
   7  13  -1    0.09    0.16
   7  13  -1    0.20    0.17
  -7  13   1    0.29    0.18
   6  13  -1    1.76    0.33
   6  13  -1    2.30    0.36
  -6  13   1    1.76    0.31
  -5  13   1    0.25    0.17
   5  13  -1    0.20    0.17
   5  13  -1   -0.17    0.15
  -4  13   1    0.80    0.23
   4  13  -1    1.41    0.28
   4  13  -1    0.49    0.21
  -3 -13   1    0.75    0.26
  -3  13   1    0.10    0.15
   3  13  -1    1.01    0.24
   3  13  -1    0.55    0.18
  -3  13   1    0.60    0.15
   2 -13  -1   -0.01    0.16
  -2 -13   1    0.43    0.21
  -2  13   1   -0.11    0.13
   2  13  -1    0.47    0.19
  -2  13   1   -0.07    0.09
   2  13  -1    0.03    0.12
   1 -13  -1    4.35    0.56
  -1 -13   1    3.93    0.54
   1  13  -1    3.71    0.43
  -1  13   1    3.42    0.46
   1  13  -1    3.72    0.45
  -1  13   1    3.62    0.40
   0 -13   1    3.70    0.53
   0 -13  -1    3.28    0.51
   0  13  -1    3.60    0.46
   0  13  -1    4.12    0.43
   0  13   1    3.13    0.44
   0  13   1    4.03    0.43
  -1 -13  -1    5.02    0.63
   1 -13   1    4.73    0.60
  -1  13  -1    3.93    0.49
   1  13   1    3.92    0.50
  -1  13  -1    4.45    0.42
   1  13   1    3.93    0.46
  -2 -13  -1    6.51    0.79
  -2  13  -1    5.86    0.54
   2  13   1    6.78    0.59
   2  13   1    6.19    0.61
  -2  13  -1    6.24    0.61
  -3 -13  -1    0.67    0.29
  -3  13  -1    0.08    0.11
   3  13   1    0.28    0.16
  -3  13  -1    0.04    0.15
  -4 -13  -1    1.66    0.43
  -4  13  -1    0.98    0.26
  -4  13  -1    1.92    0.24
   4  13   1    1.50    0.29
  -5 -13  -1    0.02    0.23
  -5  13  -1    0.10    0.16
   5  13   1   -0.23    0.12
   6  13   1    2.32    0.38
  -6  13  -1    2.55    0.39
  -7  13  -1   -0.07    0.15
  -5  14   1    0.06    0.17
   5  14  -1   -0.18    0.12
   5  14  -1    0.09    0.17
   4  14  -1    1.55    0.29
   4  14  -1    0.96    0.26
  -4  14   1    0.79    0.24
   3  14  -1    0.15    0.16
  -3  14   1    0.11    0.16
   3  14  -1    0.11    0.17
   2 -14  -1    3.78    0.53
  -2  14   1    3.10    0.45
   2  14  -1    3.66    0.44
  -2  14   1    3.57    0.40
   1 -14  -1   -0.18    0.15
  -1  14   1   -0.14    0.13
   1  14  -1   -0.31    0.10
   1  14  -1   -0.22    0.12
  -1  14   1   -0.14    0.11
   0 -14  -1    1.07    0.32
   0  14  -1    1.42    0.25
   0  14  -1    0.95    0.24
   0  14   1    1.09    0.26
   0  14   1    0.70    0.20
  -1 -14  -1    0.34    0.21
  -1  14  -1    0.35    0.15
  -1  14  -1   -0.01    0.16
   1  14   1    0.37    0.20
   1  14   1    0.27    0.17
  -2 -14  -1    2.45    0.46
  -2  14  -1    2.26    0.30
   2  14   1    2.57    0.36
  -2  14  -1    2.07    0.35
   2  14   1    1.77    0.33
  -3 -14  -1    0.30    0.23
  -3  14  -1    0.17    0.18
  -3  14  -1   -0.02    0.11
   3  14   1    0.58    0.21
   3  14   1    0.42    0.21
  -4  14  -1    4.10    0.51
   4  14   1    3.80    0.49
   4  14   1    4.14    0.53
  14   0  -2   11.78    0.88
  13   0  -2   -0.02    0.09
  12   0  -2   28.43    1.89
 -12   0   2   25.23    2.29
  11   0  -2   -0.02    0.08
 -11   0   2   -0.06    0.15
  10   0  -2   60.37    4.55
 -10   0   2   73.63    5.32
  10   0  -2   71.41    4.63
   9   0  -2   -0.03    0.06
  -9   0   2   -0.08    0.10
   9   0  -2   -0.05    0.03
   8   0  -2   36.99    2.57
   8   0  -2   39.14    2.60
  -8   0   2   38.34    3.02
   7   0  -2    0.04    0.03
  -7   0   2   -0.05    0.08
   7   0  -2    0.04    0.05
  -6   0   2   12.31    0.98
   6   0  -2   10.93    0.79
   6   0  -2   11.40    0.78
  -5   0   2    0.04    0.06
   5   0  -2   -0.04    0.03
   4   0  -2    0.57    0.07
  -4   0   2    0.44    0.10
  -3   0   2   -0.01    0.06
   3   0  -2   -0.03    0.03
  -3   0   2   -0.04    0.03
   2   0  -2    9.58    0.70
   2   0  -2   10.80    0.68
  -2   0   2   10.02    0.78
   2   0  -2   10.06    0.79
  -2   0   2   10.28    0.68
   1   0  -2   -1.48    0.02
  -1   0   2   -1.47    0.02
   1   0  -2   -1.46    0.01
  -1   0   2   -1.46    0.01
   0   0  -2  239.00   15.18
   0   0  -2  226.18   15.62
   0   0   2  225.48   15.18
   1   0   2    0.01    0.04
   1   0   2    0.04    0.03
  -1   0  -2    0.02    0.05
  -2   0  -2    6.15    0.50
   2   0   2    6.80    0.50
   3   0   2   -0.12    0.04
  -3   0  -2    0.05    0.06
   4   0   2   54.96    3.62
  -4   0  -2   49.77    3.62
  -5   0  -2    0.05    0.07
  -6   0  -2    2.81    0.29
  -7   0  -2   -0.02    0.07
  -8   0  -2    0.93    0.18
  -9   0  -2   -0.05    0.08
 -10   0  -2    4.20    0.42
 -11   0  -2    0.00    0.17
 -11   0  -2   -0.09    0.10
 -12   0  -2   -0.13    0.10
 -12   0  -2   -0.49    0.14
  15   1  -2    1.76    0.26
  14  -1  -2    0.17    0.10
  14   1  -2    0.29    0.13
  13  -1  -2    0.08    0.09
  13   1  -2    0.15    0.11
 -12  -1   2    4.95    0.66
  12  -1  -2    3.58    0.34
 -12   1   2    3.81    0.56
  12   1  -2    4.17    0.37
  11  -1  -2    0.25    0.09
 -11  -1   2    0.08    0.18
  11   1  -2    0.08    0.09
 -11   1   2    0.22    0.18
 -11   1   2    0.13    0.07
 -10  -1   2   11.64    1.09
  10  -1  -2   11.70    0.81
  10   1  -2   11.99    0.85
 -10   1   2   10.37    0.83
  10   1  -2   12.06    0.81
  -9  -1   2    2.90    0.43
   9  -1  -2    3.11    0.22
   9   1  -2    2.93    0.27
  -9   1   2    2.74    0.25
   9   1  -2    2.86    0.23
  -8  -1   2   36.13    2.97
   8  -1  -2   38.83    2.55
   8   1  -2   38.59    2.53
   8   1  -2   38.23    2.56
  -8   1   2   34.78    2.57
  -7  -1   2   21.95    1.78
   7  -1  -2   22.09    1.49
   7   1  -2   21.80    1.50
  -7   1   2   20.82    1.50
   7   1  -2   21.97    1.49
  -6  -1   2   69.96    5.32
   6   1  -2   67.78    4.63
   6   1  -2   75.15    4.73
  -6   1   2   65.23    4.73
   5  -1  -2    1.46    0.13
  -5  -1   2    1.52    0.22
   5   1  -2    1.71    0.14
   5   1  -2    1.67    0.15
  -5   1   2    1.63    0.13
  -4  -1   2    5.67    0.53
   4  -1  -2    6.08    0.41
   4   1  -2    6.55    0.55
   4   1  -2    5.63    0.43
  -4   1   2    6.30    0.42
  -3  -1   2  176.63   10.71
   3  -1  -2  156.92   10.68
  -3  -1   2  146.07   12.17
   3   1  -2  159.18   10.71
  -3   1   2  169.57   10.69
   3   1  -2  169.86   12.19
   3   1  -2  157.76   10.99
  -2  -1   2   12.48    0.91
   2  -1  -2   10.79    0.78
  -2  -1   2   10.80    0.79
  -2  -1   2   12.93    0.81
  -2   1   2   12.28    0.78
   2   1  -2   11.83    0.79
   2   1  -2   11.59    0.92
   2   1  -2   10.93    0.81
  -1  -1   2   26.59    1.86
  -1  -1   2   28.26    2.04
  -1  -1   2   30.52    1.81
   1  -1  -2   23.45    2.04
   1   1  -2   28.30    2.05
   1   1  -2   29.07    1.81
  -1   1   2   25.07    1.80
   1   1  -2   26.30    1.86
   0  -1   2  213.40   13.02
   0  -1  -2  203.84   14.78
   0  -1   2  189.86   13.39
   0   1  -2  195.44   13.02
   0   1  -2  184.86   13.40
   1  -1   2    4.42    0.33
  -1  -1  -2    3.98    0.38
  -1  -1  -2    3.93    0.34
   1  -1   2    4.39    0.31
  -1   1  -2    4.70    0.31
   1   1   2    4.21    0.34
  -1   1  -2    3.74    0.32
   2  -1   2   94.37    5.78
  -2  -1  -2   80.53    5.79
   2  -1   2   88.56    5.61
  -2   1  -2   75.31    5.77
   2   1   2   89.48    5.79
  -2   1  -2   79.37    5.61
  -3  -1  -2    0.04    0.05
   3  -1   2    0.05    0.04
   3  -1   2    0.00    0.04
   3   1   2    0.17    0.07
  -3   1  -2    0.12    0.05
  -4  -1  -2   64.70    4.55
   4  -1   2   68.74    4.53
   4  -1   2   63.08    4.40
  -4   1  -2   64.55    4.54
   4   1   2   69.13    4.55
  -5  -1  -2   30.92    2.19
  -5   1  -2   31.00    2.18
  -6  -1  -2   19.30    1.44
  -6   1  -2   20.41    1.44
  -7  -1  -2    0.22    0.10
  -7  -1  -2    0.17    0.14
  -7   1  -2    0.29    0.11
  -8  -1  -2    6.98    0.56
  -8  -1  -2    6.98    0.72
  -8   1  -2    5.71    0.54
  -9  -1  -2    0.19    0.16
  -9  -1  -2    0.07    0.09
  -9   1  -2   -0.08    0.08
 -10  -1  -2    0.56    0.25
 -10  -1  -2    0.93    0.20
 -10   1  -2    1.44    0.23
 -11  -1  -2    0.24    0.20
 -11   1  -2    0.17    0.12
 -12  -1  -2   10.51    1.02
 -12   1  -2    7.94    0.72
  15   2  -2    1.44    0.24
  14   2  -2    0.40    0.14
  13  -2  -2    2.80    0.27
  13   2  -2    2.89    0.33
  12  -2  -2    5.98    0.50
 -12  -2   2    7.63    0.80
  12   2  -2    6.93    0.55
 -11  -2   2    3.85    0.57
  11  -2  -2    4.27    0.35
 -11   2   2    4.52    0.36
  11   2  -2    4.21    0.39
 -10  -2   2   39.91    3.18
 -10   2   2   37.49    2.72
  10   2  -2   37.49    2.69
  10   2  -2   42.61    2.72
  -9  -2   2   -0.06    0.12
   9   2  -2    0.19    0.07
  -9   2   2    0.03    0.05
   9   2  -2   -0.03    0.08
  -8  -2   2    5.94    0.64
  -8   2   2    5.84    0.47
   8   2  -2    7.19    0.49
   8   2  -2    5.82    0.49
  -7  -2   2    4.27    0.45
   7   2  -2    4.24    0.32
  -7   2   2    3.62    0.29
   7   2  -2    3.26    0.31
  -6  -2   2    6.08    0.58
  -6   2   2    5.97    0.42
   6   2  -2    5.94    0.45
   6   2  -2    5.22    0.44
   6   2  -2    5.88    0.59
  -5  -2   2   18.52    1.47
   5   2  -2   17.14    1.24
   5   2  -2   19.26    1.49
  -5   2   2   17.90    1.25
  -4  -2   2   76.47    4.75
  -4  -2   2   69.48    5.43
   4   2  -2   75.73    5.44
  -4   2   2   65.95    4.85
   4   2  -2   70.22    4.74
  -3  -2   2  340.51   25.23
  -3  -2   2  331.56   22.20
   3   2  -2  339.85   25.24
   3   2  -2  332.03   22.82
   3   2  -2  340.95   22.21
  -2  -2   2   91.68    6.70
   2  -2  -2   83.83    6.67
  -2  -2   2   91.33    5.89
   2   2  -2   92.61    6.71
   2   2  -2   87.43    6.05
   2   2  -2   87.71    5.89
   1  -2  -2  226.16   16.78
  -1  -2   2  225.85   15.20
  -1  -2   2  231.36   16.77
   1   2  -2  219.08   15.20
   1   2  -2  218.78   14.78
   0  -2   2    0.31    0.05
   0  -2   2    0.30    0.05
   0   2  -2    0.29    0.05
   0   2  -2    0.24    0.05
   0   2  -2    0.19    0.04
  -1  -2  -2   32.81    2.79
   1  -2   2   39.34    2.50
   1  -2   2   42.07    2.43
  -1   2  -2   35.46    2.50
  -1   2  -2   36.39    2.42
   1   2   2   33.08    2.52
   1   2   2   34.52    2.78
   2  -2   2    2.01    0.19
  -2  -2  -2    1.82    0.26
   2  -2   2    2.44    0.18
   2   2   2    2.04    0.26
  -2   2  -2    2.22    0.20
   2   2   2    2.26    0.22
  -2   2  -2    2.31    0.18
   3  -2   2   11.50    0.75
  -3  -2  -2    9.26    0.88
   3  -2   2   11.75    0.73
  -3   2  -2    9.85    0.76
  -3   2  -2    9.32    0.72
   3   2   2   10.16    0.78
  -4  -2  -2    0.09    0.10
   4  -2   2    0.03    0.04
  -4   2  -2    0.01    0.05
  -5  -2  -2    9.92    0.96
  -5   2  -2   11.56    0.82
  -6  -2  -2    5.49    0.57
  -6   2  -2    4.81    0.43
  -7  -2  -2   38.47    2.95
  -7   2  -2   35.14    2.57
  -8  -2  -2   -0.24    0.10
  -8   2  -2    0.10    0.08
  -9  -2  -2   11.34    1.09
  -9   2  -2   10.65    0.86
 -10  -2  -2   10.29    1.08
 -10   2  -2   10.90    0.86
 -11  -2  -2    4.57    0.66
 -11   2  -2    4.18    0.46
 -12  -2  -2    3.54    0.63
 -12   2  -2    2.92    0.38
  15   3  -2   -0.19    0.09
  14   3  -2    1.46    0.25
  13   3  -2    1.45    0.24
  12  -3  -2    1.33    0.16
 -12  -3   2    1.08    0.33
  12   3  -2    1.45    0.22
 -12   3   2    1.25    0.18
 -11  -3   2    2.15    0.41
  11   3  -2    2.40    0.29
 -11   3   2    1.77    0.22
 -10  -3   2   10.57    0.96
  10  -3  -2    9.80    0.67
 -10   3   2    8.33    0.68
  10   3  -2   10.12    0.71
  10   3  -2    7.79    0.70
   9  -3  -2    7.65    0.52
  -9  -3   2    6.73    0.74
   9   3  -2    6.88    0.56
  -9   3   2    5.97    0.53
   9   3  -2    8.14    0.57
   8  -3  -2    2.01    0.16
  -8  -3   2    1.93    0.32
   8   3  -2    1.63    0.22
   8   3  -2    1.70    0.22
  -8   3   2    1.72    0.17
   7  -3  -2   38.26    2.57
  -7  -3   2   36.24    3.06
   7   3  -2   41.58    2.70
  -7   3   2   35.01    2.66
   7   3  -2   39.81    2.63
   7   3  -2   42.76    3.10
   6  -3  -2   36.86    2.53
  -6  -3   2   39.38    3.03
  -6   3   2   37.23    2.63
   6   3  -2   39.77    3.04
   6   3  -2   39.72    2.60
  -5  -3   2   12.27    1.00
   5   3  -2   10.80    0.81
  -5   3   2   11.51    0.81
   5   3  -2   11.35    0.99
  -4  -3   2   64.66    5.38
   4   3  -2   74.36    5.40
   4   3  -2   72.77    4.71
  -3  -3   2   23.41    1.77
  -3   3   2   20.08    1.48
   3   3  -2   23.82    1.53
   3   3  -2   23.85    1.78
  -2  -3   2    0.14    0.07
   2  -3  -2    0.14    0.05
   2   3  -2    0.05    0.07
  -2   3   2    0.12    0.05
  -2   3   2    0.13    0.04
   2   3  -2    0.19    0.06
   2   3  -2    0.14    0.05
   1  -3  -2   49.56    3.91
  -1  -3   2   53.62    3.54
   1   3  -2   48.50    3.44
   1   3  -2   50.67    3.92
   1   3  -2   56.14    3.54
   0  -3   2   24.46    1.85
   0  -3   2   27.41    1.63
   0  -3   2   27.50    1.69
   0  -3  -2   24.44    1.89
   0   3  -2   27.09    1.86
   0   3  -2   21.33    1.68
   0   3   2   20.81    1.87
   0   3  -2   21.33    1.63
  -1  -3  -2   19.86    1.69
   1  -3   2   23.44    1.44
  -1   3  -2   23.09    1.64
   1   3   2   19.21    1.67
  -1   3  -2   20.88    1.43
  -1   3  -2   20.58    1.49
   2  -3   2    0.15    0.04
  -2  -3  -2    0.12    0.10
  -2   3  -2    0.16    0.06
  -2   3  -2    0.17    0.04
   2   3   2    0.23    0.10
   3  -3   2   24.72    1.53
  -3  -3  -2   22.12    1.82
  -3   3  -2   22.03    1.53
  -3   3  -2   21.25    1.58
   4  -3   2    1.03    0.12
  -4  -3  -2    0.80    0.21
  -4   3  -2    0.74    0.13
  -4   3  -2    1.01    0.12
  -5  -3  -2   47.69    4.00
  -5   3  -2   53.94    3.54
  -6  -3  -2    4.25    0.56
  -6   3  -2    5.43    0.44
  -7  -3  -2    7.84    0.82
  -7   3  -2    8.12    0.65
  -8  -3  -2   11.73    1.08
  -8   3  -2   10.38    0.84
  -9  -3  -2    1.07    0.31
  -9   3  -2    1.65    0.23
 -10  -3  -2    0.93    0.31
 -10   3  -2    0.69    0.17
 -11  -3  -2    1.57    0.43
 -11   3  -2    2.28    0.30
 -12  -3  -2    0.34    0.28
 -12   3  -2    0.25    0.14
  15   4  -2    0.62    0.18
  14   4  -2    0.19    0.15
  13   4  -2    1.54    0.25
  12   4  -2    0.27    0.14
 -12   4   2    0.50    0.12
 -11  -4   2   24.54    1.84
 -11   4   2   18.82    1.42
  11   4  -2   19.00    1.44
 -10  -4   2    1.97    0.39
 -10   4   2    2.33    0.24
  10   4  -2    2.93    0.32
  -9  -4   2   26.09    2.08
   9  -4  -2   24.54    1.63
   9   4  -2   23.23    1.71
  -9   4   2   24.30    1.72
   8  -4  -2    7.30    0.49
  -8  -4   2    7.16    0.75
   8   4  -2    7.24    0.58
  -8   4   2    7.22    0.55
  -7  -4   2   12.39    1.00
   7   4  -2   10.55    0.79
  -7   4   2    9.81    0.76
   7   4  -2   10.60    0.99
  -6  -4   2   30.82    2.34
  -6   4   2   27.61    2.00
   6   4  -2   30.41    2.35
   6   4  -2   27.95    1.98
  -5  -4   2   17.75    1.49
   5   4  -2   17.67    1.25
   5   4  -2   18.63    1.50
  -5   4   2   17.71    1.26
  -4  -4   2   42.67    3.88
   4   4  -2   58.70    3.40
  -4   4   2   49.80    3.33
  -3  -4   2   13.74    1.02
   3   4  -2   11.09    0.85
   3   4  -2   12.84    1.02
  -3   4   2   11.58    0.81
   2  -4  -2    7.79    0.61
  -2  -4   2    7.55    0.63
  -2   4   2    6.69    0.51
   2   4  -2    7.62    0.54
   2   4  -2    7.64    0.64
   2   4  -2    7.06    0.54
  -1  -4   2    0.00    0.04
   1  -4  -2    0.02    0.05
   1   4  -2   -0.05    0.05
   1   4  -2    0.09    0.04
   1   4  -2    0.05    0.04
   0  -4  -2   16.00    1.30
   0  -4   2   16.67    1.26
   0   4  -2   16.53    1.27
   0   4  -2   16.00    1.15
   0   4  -2   15.74    1.10
   1  -4   2    9.28    0.60
  -1  -4  -2    7.31    0.74
  -1   4  -2    8.39    0.60
  -1   4  -2    8.72    0.69
  -1   4  -2    8.31    0.63
   2  -4   2    2.53    0.20
  -2  -4  -2    1.90    0.30
  -2   4  -2    2.54    0.22
  -2   4  -2    2.76    0.24
  -2   4  -2    2.15    0.19
   3  -4   2    1.45    0.13
  -3  -4  -2    1.12    0.23
  -3   4  -2    1.22    0.14
  -3   4  -2    1.37    0.17
  -4  -4  -2   73.75    6.02
  -4   4  -2   82.65    5.38
  -4   4  -2   77.93    5.20
  -5  -4  -2    7.71    0.74
  -5   4  -2    6.68    0.56
  -5   4  -2    7.40    0.54
  -6  -4  -2    5.66    0.61
  -6   4  -2    4.88    0.44
  -7  -4  -2    3.16    0.49
  -7   4  -2    3.32    0.33
  -8  -4  -2    0.51    0.24
  -8   4  -2    0.19    0.09
  -9  -4  -2    5.65    0.72
  -9   4  -2    4.28    0.44
 -10  -4  -2    0.01    0.22
 -10   4  -2    0.02    0.10
 -11  -4  -2   -0.18    0.18
 -11   4  -2    0.24    0.12
 -12  -4  -2    0.34    0.29
 -12   4  -2    0.02    0.12
  14   4   2   -0.13    0.14
  15   5  -2    0.28    0.17
  14   5  -2    1.15    0.24
  13   5  -2    0.88    0.21
  12   5  -2    1.07    0.22
 -12   5   2    0.76    0.15
 -11  -5   2    5.90    0.77
  11   5  -2    5.64    0.53
 -11   5   2    6.16    0.50
 -10  -5   2    2.92    0.51
 -10   5   2    3.58    0.32
  10   5  -2    3.22    0.37
  -9  -5   2   20.84    1.81
   9   5  -2   21.78    1.50
  -9   5   2   19.92    1.47
  -8  -5   2   -0.09    0.13
   8   5  -2   -0.11    0.09
  -8   5   2    0.13    0.07
  -7  -5   2   23.33    1.94
  -7   5   2   22.40    1.62
   7   5  -2   23.73    1.63
  -6  -5   2    7.49    0.70
  -6   5   2    6.65    0.52
   6   5  -2    6.53    0.54
  -5  -5   2   37.86    2.63
   5   5  -2   30.18    2.23
  -5   5   2   32.53    2.27
  -5   5   2   32.67    2.17
   5   5  -2   31.26    2.61
  -4  -5   2   19.43    1.70
   4   5  -2   21.75    1.46
   4   5  -2   23.65    1.73
  -4   5   2   19.86    1.39
   3  -5  -2    1.25    0.17
  -3  -5   2    1.12    0.22
   3   5  -2    1.23    0.16
   3   5  -2    1.37    0.23
  -3   5   2    1.12    0.12
  -2  -5   2   -0.04    0.07
   2  -5  -2   -0.01    0.06
  -2   5   2   -0.09    0.04
   2   5  -2   -0.02    0.08
   2   5  -2   -0.11    0.04
   2   5  -2   -0.03    0.05
   1  -5  -2    2.29    0.28
  -1  -5   2    2.80    0.28
   1   5  -2    3.20    0.24
   1   5  -2    2.33    0.24
   1   5  -2    3.04    0.30
  -1   5   2    2.55    0.23
   0  -5   2    0.07    0.05
   0  -5  -2   -0.01    0.07
   0   5   2   -0.01    0.05
   0   5  -2    0.10    0.05
   0   5  -2    0.05    0.05
   0   5  -2   -0.01    0.05
  -1  -5  -2    3.07    0.38
  -1   5  -2    3.24    0.28
  -1   5  -2    3.06    0.25
  -1   5  -2    3.09    0.30
  -2  -5  -2   43.78    3.43
  -2   5  -2   45.71    3.35
  -2   5  -2   40.83    3.03
  -2   5  -2   44.93    2.93
  -3  -5  -2   66.05    5.10
  -3   5  -2   71.15    4.37
  -3   5  -2   59.81    4.51
  -4  -5  -2    1.39    0.29
  -4   5  -2    1.29    0.18
  -4   5  -2    1.27    0.15
  -5  -5  -2    2.66    0.42
  -5   5  -2    2.86    0.28
  -5   5  -2    2.86    0.25
  -6  -5  -2    7.32    0.82
  -6   5  -2    8.31    0.64
  -6   5  -2    7.76    0.59
  -7  -5  -2    3.01    0.50
  -7   5  -2    3.24    0.32
  -8  -5  -2    6.38    0.76
  -8   5  -2    4.20    0.43
  -9  -5  -2    0.07    0.20
  -9   5  -2    0.64    0.16
 -10  -5  -2    1.19    0.39
 -10   5  -2    1.79    0.27
 -11  -5  -2    0.99    0.36
 -11   5  -2    1.24    0.22
 -12  -5  -2    0.53    0.33
 -12   5  -2    0.36    0.15
  13   5   2    0.15    0.17
  14   6  -2   -0.14    0.11
  13   6  -2    0.10    0.14
 -12   6   2    1.53    0.22
  12   6  -2    1.61    0.28
 -11  -6   2    0.97    0.37
 -11   6   2    0.81    0.16
  11   6  -2    0.64    0.20
 -10  -6   2   13.21    1.19
 -10   6   2   10.70    0.86
  10   6  -2   11.50    0.90
  -9  -6   2    1.05    0.32
  -9   6   2    1.19    0.18
   9   6  -2    1.28    0.24
  -8  -6   2   11.40    1.05
  -8   6   2   10.48    0.78
   8   6  -2    9.68    0.81
  -7  -6   2   11.94    1.02
  -7   6   2   10.42    0.77
   7   6  -2    9.10    0.78
  -6  -6   2    8.86    0.81
  -6   6   2    7.72    0.54
   6   6  -2    7.71    0.63
  -6   6   2    7.81    0.60
  -5  -6   2    0.98    0.24
   5   6  -2    1.03    0.17
  -5   6   2    1.07    0.09
  -5   6   2    0.86    0.15
  -4  -6   2    7.65    0.72
  -4   6   2    7.44    0.53
   4   6  -2    8.19    0.60
  -4   6   2    7.52    0.59
  -3  -6   2    7.39    0.81
   3  -6  -2   10.59    0.80
   3   6  -2   10.24    0.71
  -3   6   2    9.36    0.66
  -2  -6   2    1.42    0.22
   2  -6  -2    1.09    0.18
  -2   6   2    1.37    0.15
   2   6  -2    1.43    0.18
   2   6  -2    0.96    0.15
   1  -6  -2    1.40    0.22
  -1  -6   2    1.65    0.22
  -1   6   2    1.73    0.19
   1   6  -2    1.52    0.19
   1   6  -2    1.81    0.19
   1   6  -2    1.83    0.26
   0  -6  -2    9.91    0.89
   0  -6   2   10.67    0.86
   0   6   2   11.09    0.76
   0   6  -2    9.47    0.87
   0   6  -2   10.48    0.74
   0   6  -2   10.51    0.78
   1  -6   2   10.53    0.86
  -1  -6  -2   10.96    0.93
   1   6   2   11.07    0.77
  -1   6  -2    9.18    0.73
  -1   6  -2   10.67    0.78
  -2  -6  -2   19.98    1.79
   2   6   2   20.73    1.52
  -2   6  -2   21.80    1.55
  -2   6  -2   23.81    1.49
  -3  -6  -2    2.48    0.40
  -3   6  -2    2.36    0.25
  -3   6  -2    2.62    0.22
  -4  -6  -2    0.04    0.14
  -4   6  -2    0.09    0.08
  -4   6  -2    0.07    0.05
  -5  -6  -2   11.87    1.11
  -5   6  -2   11.94    0.82
  -5   6  -2   10.87    0.87
  -6  -6  -2    0.13    0.19
  -6   6  -2    0.10    0.06
  -6   6  -2    0.05    0.08
  -7  -6  -2    0.91    0.28
  -7   6  -2    0.34    0.13
  -8  -6  -2    5.95    0.76
  -8   6  -2    5.03    0.48
  -9  -6  -2    1.25    0.41
  -9   6  -2    1.56    0.25
 -10  -6  -2    2.33    0.51
 -10   6  -2    1.66    0.27
 -11  -6  -2    0.07    0.22
 -11   6  -2   -0.01    0.11
  11   6   2    0.04    0.15
 -12   6  -2    3.27    0.40
  12   6   2    3.41    0.44
  13   6   2    1.78    0.34
  14   7  -2    1.03    0.26
  13   7  -2    0.92    0.23
 -12   7   2    0.39    0.13
  12   7  -2    0.12    0.15
  11   7  -2    1.04    0.24
 -11   7   2    1.41    0.21
 -10  -7   2    0.37    0.26
  10   7  -2    0.49    0.18
 -10   7   2    0.42    0.14
  -9  -7   2    7.51    0.81
  -9   7   2    6.73    0.56
   9   7  -2    6.47    0.60
  -8  -7   2    3.96    0.57
   8   7  -2    2.69    0.35
  -8   7   2    3.08    0.31
  -7  -7   2    6.16    0.70
  -7   7   2    4.66    0.35
  -7   7   2    4.98    0.42
  -6  -7   2    0.93    0.25
  -6   7   2    0.42    0.11
  -6   7   2    0.70    0.08
   6   7  -2    0.51    0.15
  -5  -7   2    0.10    0.13
  -5   7   2    0.30    0.10
  -5   7   2    0.26    0.05
   5   7  -2    0.25    0.10
  -4  -7   2   -0.15    0.08
   4   7  -2    0.04    0.08
  -4   7   2   -0.07    0.07
  -4   7   2    0.03    0.04
  -3  -7   2    3.19    0.40
   3  -7  -2    3.39    0.34
   3   7  -2    3.59    0.32
  -3   7   2    2.91    0.26
   3   7  -2    3.25    0.30
   2  -7  -2    5.81    0.55
  -2  -7   2    6.57    0.58
   2   7  -2    5.59    0.49
   2   7  -2    5.83    0.47
  -2   7   2    6.03    0.45
  -1  -7   2   13.04    1.03
   1  -7  -2   11.05    1.02
   1   7  -2   13.67    0.92
  -1   7   2   10.64    0.86
   1   7  -2   12.92    0.88
   0  -7  -2   24.80    2.19
   0  -7   2   26.41    2.16
   0   7  -2   28.90    1.89
   0   7   2   29.96    1.91
  -1  -7  -2    0.48    0.16
   1  -7   2    0.43    0.11
   1   7   2    0.63    0.13
  -1   7  -2    0.44    0.11
  -1   7  -2    0.40    0.09
  -2  -7  -2    6.15    0.67
   2   7   2    6.61    0.54
  -2   7  -2    6.61    0.54
  -2   7  -2    7.02    0.50
  -3  -7  -2   10.01    0.88
  -3   7  -2    8.57    0.68
   3   7   2    8.25    0.68
  -3   7  -2    8.52    0.63
  -4  -7  -2   26.19    2.04
  -4   7  -2   22.35    1.70
   4   7   2   22.83    1.69
  -4   7  -2   24.33    1.62
  -5  -7  -2    2.69    0.47
   5   7   2    2.99    0.36
  -5   7  -2    3.25    0.34
  -5   7  -2    4.11    0.30
  -6  -7  -2   27.29    2.28
  -6   7  -2   28.02    1.82
  -6   7  -2   27.86    1.91
   6   7   2   22.31    1.87
  -7  -7  -2    7.84    0.86
  -7   7  -2    6.92    0.61
  -7   7  -2    7.32    0.56
   7   7   2    6.60    0.62
  -8  -7  -2    7.40    0.88
  -8   7  -2    4.62    0.48
   8   7   2    5.58    0.53
  -9  -7  -2   -0.47    0.16
   9   7   2   -0.01    0.13
  -9   7  -2    0.11    0.11
 -10  -7  -2   -0.13    0.24
  10   7   2   -0.10    0.13
 -10   7  -2   -0.06    0.10
 -11  -7  -2    0.25    0.29
  11   7   2    0.25    0.17
 -11   7  -2    0.29    0.15
 -12   7  -2    0.34    0.17
  12   7   2    0.26    0.19
  13   8  -2    1.89    0.34
  12   8  -2    3.89    0.49
 -12   8   2    4.06    0.40
  11   8  -2    1.58    0.28
 -11   8   2    1.37    0.23
  10   8  -2   15.68    1.19
 -10   8   2   15.05    1.15
  -9  -8   2    0.41    0.28
  -9   8   2    0.23    0.12
   9   8  -2    0.42    0.16
  -8  -8   2   10.58    1.10
  -8   8   2   10.98    0.85
   8   8  -2   11.43    0.89
  -7  -8   2    7.04    0.77
  -7   8   2    6.39    0.47
   7   8  -2    6.72    0.59
  -7   8   2    6.93    0.56
  -6  -8   2   10.04    0.97
  -6   8   2    9.02    0.75
   6   8  -2    9.75    0.77
  -6   8   2    9.81    0.67
  -5  -8   2    0.00    0.13
  -5   8   2   -0.04    0.04
   5   8  -2   -0.03    0.09
  -5   8   2   -0.22    0.07
  -4  -8   2    0.45    0.19
  -4   8   2    0.58    0.09
  -4   8   2    0.63    0.14
   4   8  -2    0.47    0.14
   3  -8  -2    0.79    0.17
  -3  -8   2    0.82    0.21
   3   8  -2    0.85    0.16
  -3   8   2    0.60    0.11
   3   8  -2    0.70    0.15
   2  -8  -2    9.06    0.82
  -2  -8   2    8.23    0.83
  -2   8   2    9.54    0.69
   2   8  -2    9.59    0.74
   2   8  -2   10.27    0.72
  -1  -8   2    4.80    0.44
   1  -8  -2    4.05    0.44
   1   8  -2    3.61    0.37
   1   8  -2    3.79    0.35
  -1   8   2    3.97    0.35
   0  -8   2   13.80    1.19
   0  -8  -2   14.91    1.24
   0   8  -2   14.31    1.08
   0   8   2   15.27    1.05
   0   8  -2   13.94    1.03
   1  -8   2    5.96    0.51
  -1  -8  -2    5.70    0.57
  -1   8  -2    3.92    0.44
  -1   8  -2    5.02    0.41
   1   8   2    5.67    0.45
  -2  -8  -2    0.78    0.24
  -2   8  -2    0.59    0.15
  -2   8  -2    0.68    0.12
   2   8   2    0.87    0.17
  -3  -8  -2    1.31    0.31
   3   8   2    1.39    0.22
  -3   8  -2    1.78    0.23
  -3   8  -2    1.56    0.18
  -4  -8  -2   -0.03    0.16
  -4   8  -2   -0.04    0.06
  -4   8  -2   -0.05    0.09
   4   8   2   -0.07    0.10
  -5  -8  -2    4.38    0.66
  -5   8  -2    4.93    0.44
   5   8   2    4.47    0.49
  -5   8  -2    4.27    0.37
  -6  -8  -2    4.13    0.68
   6   8   2    4.24    0.51
  -6   8  -2    5.24    0.42
  -6   8  -2    5.79    0.49
  -7  -8  -2    0.80    0.35
   7   8   2    0.79    0.21
  -7   8  -2    1.00    0.16
  -7   8  -2    0.98    0.20
  -8  -8  -2    8.30    0.92
   8   8   2    4.43    0.54
  -8   8  -2    5.23    0.50
  -9  -8  -2    0.75    0.37
   9   8   2    0.72    0.22
  -9   8  -2    1.14    0.22
 -10  -8  -2    0.35    0.29
  10   8   2    0.23    0.17
 -10   8  -2    0.34    0.15
 -11   8  -2    0.01    0.11
  11   8   2   -0.19    0.12
  12   8   2    1.85    0.35
 -12   8  -2    2.24    0.34
 -12   9   2    0.30    0.15
  12   9  -2   -0.03    0.16
  11   9  -2    0.24    0.17
 -11   9   2    0.04    0.12
  10   9  -2    2.28    0.35
 -10   9   2    1.95    0.27
  -9   9   2   -0.09    0.11
   9   9  -2   -0.14    0.13
  -8  -9   2    2.10    0.42
  -8   9   2    1.42    0.23
   8   9  -2    1.70    0.28
  -7  -9   2    0.70    0.28
  -7   9   2    0.48    0.16
  -7   9   2    0.48    0.09
   7   9  -2    0.36    0.16
  -6  -9   2   13.09    1.16
   6   9  -2   11.93    0.92
  -6   9   2   11.67    0.91
  -6   9   2   11.18    0.81
  -5  -9   2    6.38    0.67
  -5   9   2    5.61    0.50
  -5   9   2    5.85    0.43
   5   9  -2    5.01    0.50
  -4  -9   2   17.69    1.47
   4   9  -2   15.74    1.25
  -4   9   2   16.47    1.25
  -4   9   2   17.93    1.16
   4   9  -2   15.76    1.22
  -3  -9   2   -0.03    0.11
   3  -9  -2   -0.03    0.09
   3   9  -2    0.04    0.10
  -3   9   2    0.07    0.07
   3   9  -2   -0.03    0.09
   2  -9  -2    4.52    0.45
  -2  -9   2    4.41    0.47
   2   9  -2    4.57    0.39
  -2   9   2    3.74    0.34
   2   9  -2    3.11    0.39
   1  -9  -2    0.17    0.13
  -1  -9   2    0.25    0.13
   1   9  -2    0.15    0.11
  -1   9   2    0.31    0.11
   1   9  -2    0.09    0.09
   0  -9  -2    3.83    0.51
   0  -9   2    4.30    0.45
   0   9   2    4.05    0.39
   0   9  -2    4.36    0.41
   0   9  -2    4.92    0.39
   1  -9   2    3.27    0.37
  -1  -9  -2    3.35    0.46
  -1   9  -2    3.62    0.31
   1   9   2    2.92    0.34
  -1   9  -2    2.76    0.35
  -2  -9  -2   52.28    4.25
   2   9   2   55.78    3.68
  -2   9  -2   56.12    3.63
  -2   9  -2   51.29    3.77
  -3  -9  -2   20.65    1.67
   3   9   2   17.26    1.36
  -3   9  -2   18.28    1.39
  -3   9  -2   19.21    1.31
  -4  -9  -2   36.13    2.92
  -4   9  -2   35.35    2.39
   4   9   2   36.24    2.47
  -4   9  -2   33.54    2.51
  -5  -9  -2   -0.02    0.21
   5   9   2    0.01    0.12
  -5   9  -2   -0.01    0.07
  -5   9  -2    0.12    0.12
  -6  -9  -2    2.86    0.53
  -6   9  -2    1.97    0.29
   6   9   2    1.98    0.31
  -6   9  -2    2.45    0.26
  -7  -9  -2    0.40    0.30
  -7   9  -2    0.46    0.12
  -7   9  -2    0.19    0.15
   7   9   2    0.16    0.16
  -8  -9  -2    2.25    0.53
   8   9   2    2.09    0.34
  -8   9  -2    2.55    0.34
  -9  -9  -2    0.16    0.30
   9   9   2   -0.02    0.13
  -9   9  -2    0.02    0.12
 -10  -9  -2    0.68    0.37
  10   9   2    0.47    0.20
 -10   9  -2    0.52    0.19
  11   9   2    0.23    0.18
 -11   9  -2    0.17    0.16
  12  10  -2    0.25    0.19
 -12  10   2    0.22    0.17
  11  10  -2    0.39    0.19
 -11  10   2    0.77    0.20
  10  10  -2    7.21    0.66
 -10  10   2    6.55    0.60
   9  10  -2    0.22    0.15
  -9  10   2    0.35    0.16
   8  10  -2    1.13    0.25
  -8  10   2    1.32    0.23
  -7 -10   2    1.17    0.35
   7  10  -2    1.08    0.23
  -7  10   2    1.20    0.22
  -6 -10   2    0.52    0.24
   6  10  -2    0.21    0.16
  -6  10   2    0.65    0.18
   6  10  -2    0.42    0.18
  -6  10   2    0.48    0.09
  -5 -10   2   15.73    1.38
  -5  10   2   14.82    1.05
   5  10  -2   15.90    1.17
  -5  10   2   13.81    1.14
   5  10  -2   15.43    1.14
  -4 -10   2    2.94    0.46
  -4  10   2    3.19    0.37
   4  10  -2    2.53    0.34
  -4  10   2    3.04    0.27
   4  10  -2    2.86    0.36
  -3 -10   2    0.70    0.22
   3 -10  -2    0.98    0.21
  -3  10   2    0.74    0.19
   3  10  -2    0.43    0.17
  -3  10   2    1.25    0.17
   3  10  -2    0.69    0.18
   2 -10  -2    3.58    0.44
  -2 -10   2    4.73    0.52
  -2  10   2    3.16    0.32
   2  10  -2    3.23    0.39
   2  10  -2    3.57    0.39
   1 -10  -2    1.29    0.26
  -1 -10   2    1.37    0.26
  -1  10   2    1.11    0.19
   1  10  -2    1.16    0.20
   1  10  -2    0.79    0.20
   0 -10  -2    0.41    0.19
   0 -10   2    0.32    0.14
   0  10  -2    0.15    0.13
   0  10  -2    0.31    0.12
   0  10   2    0.33    0.14
   1 -10   2    4.47    0.49
  -1 -10  -2    5.35    0.64
  -1  10  -2    5.01    0.42
   1  10   2    4.84    0.44
  -1  10  -2    4.00    0.44
  -2 -10  -2    1.25    0.30
  -2  10  -2    0.90    0.20
   2  10   2    1.11    0.22
  -2  10  -2    1.07    0.17
  -3 -10  -2    8.96    0.92
   3  10   2    9.02    0.72
  -3  10  -2    7.59    0.71
  -3  10  -2    8.78    0.65
  -4 -10  -2    0.92    0.31
  -4  10  -2    0.55    0.17
   4  10   2    0.44    0.18
  -4  10  -2    0.73    0.14
  -5 -10  -2    0.53    0.30
  -5  10  -2    0.34    0.16
  -5  10  -2    0.66    0.13
   5  10   2    0.42    0.18
  -6 -10  -2    3.26    0.59
   6  10   2    3.15    0.41
  -6  10  -2    2.84    0.28
  -6  10  -2    2.41    0.34
  -7 -10  -2   -0.40    0.18
  -7  10  -2    0.04    0.12
   7  10   2   -0.02    0.13
  -8 -10  -2    5.09    0.79
   8  10   2    3.90    0.50
  -8  10  -2    4.35    0.50
  -9 -10  -2    0.02    0.28
  -9  10  -2    0.14    0.15
   9  10   2    0.31    0.18
  10  10   2   -0.11    0.14
 -10  10  -2    0.42    0.17
  10  11  -2    0.20    0.15
  10  11  -2    0.03    0.15
 -10  11   2    0.14    0.14
   9  11  -2    0.32    0.18
   9  11  -2    0.63    0.20
  -9  11   2    0.57    0.19
   8  11  -2    1.24    0.27
  -8  11   2    1.34    0.24
   8  11  -2    1.27    0.25
   7  11  -2   -0.04    0.12
  -7  11   2   -0.03    0.11
   7  11  -2    0.03    0.12
  -6 -11   2    2.70    0.47
   6  11  -2    1.95    0.32
  -6  11   2    2.11    0.31
   6  11  -2    2.38    0.33
  -5 -11   2    0.70    0.25
   5  11  -2    0.47    0.18
   5  11  -2    0.16    0.15
  -5  11   2    0.48    0.10
  -5  11   2    0.18    0.15
  -4 -11   2    5.94    0.70
  -4  11   2    6.07    0.45
   4  11  -2    5.08    0.52
   4  11  -2    7.42    0.56
  -4  11   2    3.89    0.52
   3 -11  -2    1.53    0.28
  -3 -11   2    1.63    0.31
  -3  11   2    1.48    0.21
  -3  11   2    1.34    0.26
   3  11  -2    1.28    0.25
   3  11  -2    1.76    0.28
   2 -11  -2    1.41    0.29
  -2 -11   2    1.49    0.30
   2  11  -2    1.88    0.27
   2  11  -2    1.40    0.25
  -2  11   2    1.49    0.27
  -2  11   2    2.11    0.25
  -1 -11   2    0.66    0.21
   1 -11  -2    0.72    0.22
  -1  11   2    0.67    0.16
   1  11  -2    0.88    0.19
   1  11  -2    0.50    0.17
   0 -11   2   17.16    1.39
   0 -11  -2   16.71    1.42
   0  11   2   15.71    1.19
   0  11  -2   16.48    1.18
   0  11  -2   15.06    1.24
  -1 -11  -2    2.51    0.42
   1 -11   2    2.03    0.33
   1  11   2    2.67    0.33
  -1  11  -2    2.59    0.30
  -1  11  -2    1.97    0.32
  -2 -11  -2   21.95    1.87
  -2  11  -2   19.15    1.60
  -2  11  -2   22.78    1.52
   2  11   2   22.02    1.57
  -3 -11  -2    7.82    0.88
   3  11   2    7.10    0.62
  -3  11  -2    6.76    0.55
  -3  11  -2    6.11    0.61
  -4 -11  -2   12.27    1.15
   4  11   2    9.31    0.86
  -4  11  -2   10.55    0.80
  -4  11  -2   11.89    0.91
  -5 -11  -2    3.87    0.62
  -5  11  -2    3.35    0.42
  -5  11  -2    3.54    0.34
   5  11   2    4.22    0.48
  -6 -11  -2    7.38    0.93
  -6  11  -2    5.16    0.54
   6  11   2    5.17    0.59
  -7 -11  -2    1.18    0.39
  -7  11  -2    0.44    0.18
   7  11   2    0.48    0.20
  -8 -11  -2    0.45    0.34
  -8  11  -2    0.46    0.19
   8  11   2    0.35    0.18
   9  11   2    0.17    0.18
  -9  11  -2    0.35    0.19
   9  12  -2    1.17    0.25
  -9  12   2    1.21    0.26
   9  12  -2    0.85    0.24
  -8  12   2    2.69    0.38
   8  12  -2    3.13    0.42
   8  12  -2    2.83    0.39
  -7  12   2    4.48    0.49
   7  12  -2    3.99    0.49
  -6  12   2    3.62    0.44
   6  12  -2    3.51    0.45
   6  12  -2    3.61    0.45
   5  12  -2    5.83    0.58
  -5  12   2    5.70    0.56
   5  12  -2    6.32    0.58
  -4 -12   2    0.45    0.23
   4  12  -2    0.29    0.17
   4  12  -2    0.09    0.15
  -4  12   2    0.16    0.16
  -4  12   2    0.32    0.11
  -3 -12   2    5.54    0.70
   3 -12  -2    6.50    0.66
   3  12  -2    6.29    0.56
  -3  12   2    5.70    0.49
   3  12  -2    6.34    0.58
  -3  12   2    5.68    0.57
   2 -12  -2    0.18    0.16
  -2 -12   2    0.34    0.18
   2  12  -2    0.32    0.16
   2  12  -2    0.17    0.14
  -2  12   2    0.09    0.11
  -2  12   2    0.05    0.14
   1 -12  -2    1.26    0.28
  -1 -12   2    1.10    0.26
   1  12  -2    0.82    0.20
   1  12  -2    1.32    0.25
  -1  12   2    1.30    0.22
  -1  12   2    0.87    0.22
   0 -12   2    0.07    0.15
   0 -12  -2    0.07    0.16
   0  12   2   -0.11    0.10
   0  12  -2    0.12    0.12
   0  12  -2   -0.07    0.12
  -1 -12  -2    2.12    0.40
  -1  12  -2    1.71    0.26
   1  12   2    2.01    0.29
  -1  12  -2    2.24    0.33
  -2 -12  -2    1.51    0.37
  -2  12  -2    1.28    0.22
  -2  12  -2    1.32    0.27
   2  12   2    1.93    0.30
  -3 -12  -2    0.94    0.31
   3  12   2    1.04    0.24
  -3  12  -2    0.72    0.22
  -3  12  -2    0.78    0.17
  -4 -12  -2    0.23    0.24
  -4  12  -2    0.03    0.14
   4  12   2   -0.11    0.14
  -4  12  -2   -0.05    0.08
  -5 -12  -2   -0.05    0.23
  -5  12  -2    0.21    0.17
   5  12   2    0.19    0.18
  -5  12  -2    0.43    0.13
  -6 -12  -2    1.32    0.42
  -6  12  -2    1.34    0.28
   6  12   2    1.09    0.27
  -7 -12  -2   -0.21    0.24
   7  12   2   -0.03    0.16
  -7  12  -2   -0.17    0.12
  -8  12  -2   -0.20    0.12
   8  12   2    0.03    0.17
   7  13  -2    1.92    0.33
  -7  13   2    2.48    0.35
   7  13  -2    1.67    0.32
  -6  13   2   -0.17    0.12
   6  13  -2    0.05    0.14
   6  13  -2   -0.17    0.12
   5  13  -2    1.63    0.31
   5  13  -2    2.00    0.33
  -5  13   2    1.46    0.28
   4  13  -2    0.26    0.17
   4  13  -2    0.03    0.14
  -4  13   2    0.20    0.16
  -3  13   2    0.09    0.11
   3  13  -2    0.46    0.17
  -3  13   2    0.34    0.18
   3  13  -2    0.43    0.18
   2 -13  -2   -0.06    0.15
   2  13  -2    0.32    0.16
  -2  13   2    0.20    0.13
   2  13  -2    0.10    0.14
  -2  13   2    0.14    0.17
   1 -13  -2    2.09    0.38
  -1  13   2    2.32    0.36
   1  13  -2    2.14    0.34
   1  13  -2    2.02    0.31
  -1  13   2    2.36    0.31
   0 -13   2    1.86    0.34
   0 -13  -2    1.31    0.32
   0  13  -2    1.23    0.27
   0  13  -2    1.69    0.26
   0  13   2    0.89    0.25
   0  13   2    1.08    0.23
  -1 -13  -2   10.81    1.01
  -1  13  -2    8.56    0.84
   1  13   2    9.98    0.80
  -1  13  -2    9.62    0.77
  -2 -13  -2    0.87    0.30
  -2  13  -2    0.56    0.16
   2  13   2    0.25    0.17
  -2  13  -2    0.67    0.23
  -3 -13  -2    7.31    0.86
  -3  13  -2    6.49    0.53
   3  13   2    5.82    0.58
  -3  13  -2    5.66    0.60
  -4 -13  -2    0.52    0.30
   4  13   2    0.37    0.20
  -4  13  -2    0.29    0.13
  -4  13  -2    0.18    0.17
  -5 -13  -2    3.42    0.62
  -5  13  -2    3.03    0.44
   5  13   2    3.65    0.47
  -6 -13  -2    2.79    0.59
   6  13   2    3.08    0.44
  -6  13  -2    2.76    0.41
   5  14  -2    1.44    0.29
   5  14  -2    1.12    0.27
  -5  14   2    0.96    0.25
   4  14  -2    0.02    0.16
   4  14  -2   -0.10    0.14
  -4  14   2   -0.07    0.14
   3  14  -2    0.68    0.21
  -3  14   2    0.53    0.21
   3  14  -2    0.60    0.21
   2 -14  -2   -0.02    0.14
  -2  14   2   -0.10    0.12
  -2  14   2    0.19    0.18
   2  14  -2   -0.19    0.13
   2  14  -2    0.07    0.15
   1 -14  -2   -0.25    0.14
   1  14  -2    0.16    0.14
   1  14  -2    0.16    0.17
  -1  14   2    0.11    0.13
  -1  14   2    0.05    0.16
   0 -14  -2   -0.12    0.16
   0  14  -2    0.13    0.15
   0  14   2   -0.11    0.13
   0  14  -2    0.05    0.12
   0  14   2    0.04    0.15
  -1 -14  -2    0.18    0.20
   1  14   2   -0.05    0.14
  -1  14  -2   -0.03    0.11
  -1  14  -2    0.19    0.17
   1  14   2    0.11    0.17
  -2 -14  -2   -0.08    0.17
  -2  14  -2   -0.08    0.11
   2  14   2   -0.13    0.13
  -2  14  -2    0.05    0.17
  -3 -14  -2   -0.06    0.21
   3  14   2    0.12    0.15
  -3  14  -2   -0.02    0.10
  -3  14  -2    0.17    0.17
  -4  14  -2    0.15    0.19
  14   0  -3    0.06    0.09
  13   0  -3    0.67    0.14
 -12   0   3   -0.03    0.17
  12   0  -3    0.02    0.08
  11   0  -3   11.67    0.84
 -11   0   3   11.32    1.09
 -10   0   3    0.10    0.14
  10   0  -3   -0.05    0.06
  -9   0   3   21.30    1.73
   9   0  -3   20.41    1.42
   8   0  -3    0.04    0.05
  -8   0   3   -0.01    0.09
   7   0  -3    3.33    0.27
  -7   0   3    3.19    0.37
   6   0  -3   -0.05    0.04
  -6   0   3    0.01    0.07
   5   0  -3  170.08   12.06
  -5   0   3  196.31   13.74
  -4   0   3    0.09    0.06
   4   0  -3    0.05    0.03
  -4   0   3    0.01    0.03
   3   0  -3   88.59    6.07
  -3   0   3   98.94    6.25
   3   0  -3   86.21    6.25
  -3   0   3   94.85    6.91
   3   0  -3   94.32    6.92
  -3   0   3   89.51    6.07
   2   0  -3    0.03    0.03
   2   0  -3   -0.04    0.04
  -2   0   3    0.02    0.02
  -2   0   3    0.01    0.04
   2   0  -3    0.01    0.02
  -1   0   3   79.01    4.98
  -1   0   3   77.99    4.83
   1   0  -3   62.03    4.83
   0   0  -3   -0.06    0.03
   0   0   3   -0.04    0.03
   0   0  -3   -0.04    0.05
   0   0   3   -0.10    0.04
   1   0   3  110.82    7.77
  -1   0  -3  116.98    7.78
  -1   0  -3  124.95    8.02
  -2   0  -3   -0.05    0.05
   2   0   3    0.05    0.06
   2   0   3    0.01    0.04
  -3   0  -3   76.77    5.28
  -4   0  -3   -0.01    0.06
  -5   0  -3   35.66    2.52
  -6   0  -3    0.02    0.07
  -7   0  -3   12.29    0.96
  -8   0  -3    0.01    0.09
  -9   0  -3    7.56    0.66
 -10   0  -3   -0.16    0.08
 -11   0  -3    2.85    0.51
 -11   0  -3    1.84    0.30
 -12   0  -3    0.09    0.13
 -12   0  -3    0.03    0.18
  15   1  -3    2.43    0.29
  14  -1  -3    0.09    0.08
  14   1  -3    0.13    0.11
  13  -1  -3    0.61    0.12
  13   1  -3    0.60    0.14
 -12  -1   3    1.61    0.37
  12  -1  -3    1.30    0.17
  12   1  -3    1.45    0.20
  11  -1  -3    3.04    0.26
 -11  -1   3    2.71    0.45
  11   1  -3    3.03    0.29
 -11   1   3    2.78    0.44
  10  -1  -3    2.01    0.19
 -10  -1   3    2.61    0.40
 -10   1   3    1.87    0.34
  10   1  -3    2.05    0.23
   9  -1  -3   15.25    1.06
  -9  -1   3   16.88    1.35
   9   1  -3   14.81    1.08
  -8  -1   3    3.42    0.43
   8  -1  -3    3.29    0.26
   8   1  -3    3.40    0.29
  -7  -1   3   18.23    1.53
   7  -1  -3   18.51    1.26
   7   1  -3   19.17    1.29
  -6  -1   3    0.20    0.11
   6  -1  -3    0.25    0.05
   6   1  -3    0.19    0.06
  -6   1   3    0.20    0.04
  -5  -1   3    2.15    0.18
   5  -1  -3    2.05    0.15
  -5  -1   3    1.81    0.25
  -5   1   3    2.01    0.14
   5   1  -3    1.93    0.26
   5   1  -3    1.84    0.14
   5   1  -3    2.02    0.17
  -4  -1   3    1.71    0.15
  -4  -1   3    1.80    0.22
   4  -1  -3    2.13    0.13
  -4   1   3    1.67    0.13
   4   1  -3    1.98    0.23
   4   1  -3    1.62    0.15
   4   1  -3    1.37    0.13
  -3  -1   3   12.69    0.97
  -3  -1   3   12.16    0.85
  -3  -1   3   12.76    0.84
   3  -1  -3   11.67    0.83
  -3   1   3   13.33    0.87
   3   1  -3   12.43    0.98
  -3   1   3   12.27    0.83
   3   1  -3   11.58    0.86
   3   1  -3   12.61    0.84
  -2  -1   3   27.95    1.72
  -2  -1   3   26.29    1.89
   2  -1  -3   21.78    1.88
  -2  -1   3   25.95    1.67
   2  -1  -3   21.36    1.66
  -2   1   3   25.26    1.66
   2   1  -3   26.36    1.67
  -2   1   3   23.13    1.88
   2   1  -3   26.29    1.90
   2   1  -3   21.25    1.71
  -2   1   3   26.63    1.73
  -1  -1   3  113.21    6.78
   1  -1  -3  101.38    6.78
   1   1  -3  103.90    6.98
  -1   1   3   94.56    6.99
   1   1  -3   94.30    6.78
  -1   1   3  108.05    6.78
   0   1   3    4.92    0.36
   0   1  -3    5.06    0.35
   0   1   3    4.30    0.38
   0   1  -3    4.72    0.37
   1  -1   3    0.58    0.10
   1  -1   3    0.79    0.09
  -1  -1  -3    0.66    0.12
  -1   1  -3    0.48    0.10
  -1   1  -3    0.76    0.10
   1   1   3    0.47    0.11
   2  -1   3   -0.05    0.04
  -2  -1  -3    0.03    0.06
   2  -1   3    0.00    0.04
  -2   1  -3    0.00    0.04
   2   1   3   -0.06    0.05
  -2   1  -3    0.02    0.05
  -3  -1  -3    0.55    0.12
  -3   1  -3    0.54    0.11
  -4  -1  -3    0.19    0.10
  -4   1  -3    0.06    0.07
  -5  -1  -3    0.38    0.12
  -5   1  -3    0.42    0.12
  -6  -1  -3    0.05    0.08
  -6   1  -3    0.08    0.08
  -7  -1  -3   13.54    1.07
  -7   1  -3   14.20    1.07
  -8  -1  -3    0.35    0.14
  -8  -1  -3    0.28    0.18
  -8   1  -3    0.17    0.11
  -9  -1  -3    1.26    0.33
  -9  -1  -3    1.36    0.25
  -9   1  -3    1.37    0.24
 -10  -1  -3    0.03    0.17
 -10  -1  -3   -0.07    0.10
 -10   1  -3    0.04    0.12
 -11  -1  -3    0.34    0.24
 -11  -1  -3   -0.13    0.09
 -11   1  -3    0.02    0.12
 -12  -1  -3    0.80    0.30
 -12   1  -3    0.28    0.15
  16   2  -3    0.12    0.13
  15   2  -3    0.28    0.13
  14   2  -3    0.75    0.17
  13  -2  -3    0.59    0.11
  13   2  -3    0.54    0.15
 -12  -2   3    0.37    0.25
  12  -2  -3    0.83    0.12
  12   2  -3    0.80    0.16
 -11  -2   3   24.11    1.92
  11  -2  -3   21.08    1.50
 -11   2   3   20.61    1.54
  11   2  -3   24.70    1.57
  10  -2  -3   13.79    1.03
 -10  -2   3   17.26    1.37
 -10   2   3   14.30    1.06
  10   2  -3   16.46    1.09
  10   2  -3   15.56    1.05
   9  -2  -3   39.45    2.81
  -9  -2   3   43.72    3.35
   9   2  -3   45.06    2.89
  -9   2   3   40.58    2.89
   9   2  -3   42.83    2.86
   8  -2  -3   37.70    2.68
  -8  -2   3   41.99    3.19
   8   2  -3   44.75    2.77
  -8   2   3   38.16    2.76
   8   2  -3   39.63    2.72
   7  -2  -3  101.51    7.42
  -7  -2   3  117.59    8.56
   7   2  -3  125.50    7.66
  -7   2   3  114.17    7.64
   7   2  -3  104.89    7.46
  -6  -2   3    0.16    0.10
   6  -2  -3    0.14    0.03
  -6   2   3    0.15    0.04
   6   2  -3    0.15    0.04
   6   2  -3    0.23    0.07
   6   2  -3    0.16    0.13
  -5  -2   3   62.50    4.81
   5   2  -3   63.57    4.82
   5   2  -3   63.83    4.28
   5   2  -3   61.78    4.19
  -4  -2   3   67.91    5.45
   4   2  -3   72.46    4.78
   4   2  -3   72.03    4.89
   4   2  -3   75.57    5.47
  -3  -2   3  205.01   12.50
  -3  -2   3  172.16   13.82
  -3  -2   3  185.14   12.17
   3   2  -3  194.53   13.84
   3   2  -3  166.25   12.50
   3   2  -3  180.86   12.17
  -3   2   3  186.49   12.14
  -2  -2   3   57.48    4.44
  -2  -2   3   66.98    4.02
   2  -2  -3   55.34    4.43
  -2  -2   3   59.99    3.91
   2   2  -3   58.27    3.91
   2   2  -3   57.32    4.02
  -2   2   3   59.60    3.91
   2   2  -3   56.64    4.45
  -1  -2   3    3.27    0.23
   1  -2  -3    2.26    0.25
  -1  -2   3    2.88    0.24
   1   2  -3    2.95    0.23
   1   2  -3    2.58    0.22
  -1   2   3    2.33    0.25
   1   2  -3    3.03    0.25
   0  -2   3   27.79    1.75
   0  -2  -3   23.51    1.94
   0  -2   3   24.99    1.69
   0   2  -3   24.77    1.75
   0   2  -3   24.79    1.69
  -1  -2  -3    5.17    0.49
   1  -2   3    5.89    0.40
  -1   2  -3    5.55    0.43
   1   2   3    4.68    0.47
  -1   2  -3    5.79    0.40
  -2  -2  -3    0.81    0.16
   2  -2   3    0.75    0.09
  -2  -2  -3    0.74    0.13
  -2   2  -3    0.67    0.11
  -2   2  -3    0.65    0.09
  -3  -2  -3   10.51    0.86
  -3  -2  -3   12.07    0.98
  -3   2  -3   11.49    0.84
  -3   2  -3   11.46    0.80
  -4  -2  -3   18.82    1.40
  -4  -2  -3   18.19    1.57
  -4   2  -3   20.05    1.38
  -5  -2  -3   13.82    1.09
  -5  -2  -3   13.43    1.25
  -5   2  -3   15.99    1.09
  -6  -2  -3   22.72    2.07
  -6  -2  -3   27.32    1.84
  -6   2  -3   25.34    1.81
  -7  -2  -3   10.05    0.92
  -7  -2  -3    8.66    0.75
  -7   2  -3    8.99    0.74
  -8  -2  -3    4.35    0.60
  -8   2  -3    4.10    0.41
  -9  -2  -3    1.27    0.34
  -9   2  -3    1.79    0.27
 -10  -2  -3    3.19    0.54
 -10   2  -3    2.82    0.36
 -11  -2  -3    3.71    0.64
 -11   2  -3    3.74    0.44
 -12  -2  -3    0.16    0.23
 -12   2  -3    0.12    0.13
  16   3  -3   -0.01    0.12
  15   3  -3    0.87    0.19
  14   3  -3    0.06    0.11
  13   3  -3    0.11    0.11
  12  -3  -3    1.60    0.16
  12   3  -3    1.92    0.26
  11  -3  -3    0.82    0.11
 -11  -3   3    1.21    0.29
  11   3  -3    1.18    0.19
 -11   3   3    0.87    0.13
  10  -3  -3    0.88    0.11
  10  -3  -3    0.72    0.09
 -10  -3   3    1.13    0.28
 -10   3   3    0.61    0.11
  10   3  -3    1.06    0.14
  10   3  -3    0.87    0.16
  -9  -3   3   -0.09    0.12
   9  -3  -3   -0.01    0.03
   9  -3  -3    0.01    0.04
   9   3  -3   -0.08    0.07
  -9   3   3   -0.02    0.04
   9   3  -3   -0.04    0.07
   8  -3  -3   18.40    1.23
   8  -3  -3   15.88    1.22
  -8  -3   3   19.62    1.57
   8   3  -3   18.70    1.30
   8   3  -3   19.86    1.32
  -8   3   3   18.15    1.28
   8   3  -3   22.23    1.62
  -7  -3   3    1.07    0.22
   7   3  -3    0.82    0.14
   7   3  -3    1.39    0.26
  -7   3   3    0.89    0.11
  -6  -3   3    1.42    0.24
   6   3  -3    1.71    0.18
  -6   3   3    1.24    0.13
  -5  -3   3    2.49    0.35
   5   3  -3    3.40    0.28
   5   3  -3    3.35    0.37
   5   3  -3    3.36    0.25
  -4  -3   3    0.38    0.11
   4   3  -3    0.34    0.11
   4   3  -3    0.34    0.06
   4   3  -3    0.42    0.08
  -3  -3   3   49.24    3.66
   3   3  -3   46.52    3.67
   3   3  -3   49.88    3.29
   3   3  -3   46.27    3.21
  -2  -3   3   12.02    0.81
  -2  -3   3   10.51    0.90
   2   3  -3   12.12    0.81
   2   3  -3   10.91    0.92
   1  -3  -3   50.11    4.03
  -1  -3   3   54.74    4.01
  -1  -3   3   51.98    3.53
  -1  -3   3   58.01    3.64
   1   3  -3   50.39    4.02
   1   3  -3   53.24    3.64
   1   3  -3   53.39    3.54
   0  -3   3   36.19    2.28
   0  -3  -3   30.58    2.62
   0   3  -3   33.29    2.28
   0   3  -3   37.87    2.59
   0   3  -3   31.85    2.35
   1  -3   3   34.79    2.13
  -1  -3  -3   30.00    2.47
  -1   3  -3   29.79    2.13
  -1   3  -3   32.02    2.20
  -2  -3  -3    9.38    0.88
  -2   3  -3   10.49    0.76
  -2   3  -3   10.50    0.72
  -3  -3  -3    0.16    0.11
  -3   3  -3    0.40    0.10
  -3   3  -3    0.38    0.08
  -4  -3  -3   -0.15    0.07
  -4   3  -3    0.07    0.07
  -4   3  -3    0.04    0.05
  -5  -3  -3    5.73    0.58
  -5   3  -3    4.67    0.43
  -6  -3  -3    0.32    0.16
  -6   3  -3    0.31    0.11
  -7  -3  -3   10.45    1.02
  -7   3  -3   10.50    0.83
  -8  -3  -3   -0.02    0.16
  -8   3  -3    0.00    0.09
  -9  -3  -3   29.58    2.37
  -9   3  -3   26.05    1.99
 -10  -3  -3    9.09    0.95
 -10   3  -3    7.77    0.70
 -11  -3  -3    9.30    1.08
 -11   3  -3    7.95    0.72
 -12  -3  -3    0.07    0.24
 -12   3  -3   -0.04    0.11
  15   4  -3    0.16    0.14
  14   4  -3    2.47    0.32
  13   4  -3    0.35    0.15
  12   4  -3    0.46    0.15
 -12   4   3    0.52    0.12
  11  -4  -3    3.60    0.26
 -11  -4   3    4.18    0.58
  11   4  -3    3.80    0.37
 -11   4   3    3.34    0.31
 -10  -4   3    4.09    0.57
  10   4  -3    5.04    0.41
 -10   4   3    3.98    0.35
  -9  -4   3    1.91    0.36
   9   4  -3    1.69    0.36
  -9   4   3    1.77    0.18
   9   4  -3    2.13    0.25
  -8  -4   3    6.08    0.59
   8   4  -3    5.29    0.64
  -8   4   3    4.42    0.37
   8   4  -3    4.85    0.41
  -7  -4   3   19.06    1.64
  -7   4   3   19.51    1.37
   7   4  -3   20.16    1.67
   7   4  -3   19.60    1.38
  -6  -4   3    1.82    0.30
   6   4  -3    2.01    0.22
   6   4  -3    1.77    0.31
  -6   4   3    1.68    0.17
  -5  -4   3    7.04    0.63
   5   4  -3    6.12    0.50
   5   4  -3    6.26    0.49
   5   4  -3    7.63    0.66
  -4  -4   3    6.75    0.54
  -4   4   3    4.93    0.37
   4   4  -3    6.06    0.43
   4   4  -3    5.45    0.42
   4   4  -3    5.70    0.54
  -3  -4   3    5.16    0.50
   3  -4  -3    5.53    0.47
   3   4  -3    6.27    0.43
  -3   4   3    5.09    0.39
   3   4  -3    5.34    0.52
   3   4  -3    6.23    0.43
  -2  -4   3    0.64    0.12
   2  -4  -3    0.79    0.12
   2   4  -3    0.50    0.09
   2   4  -3    0.34    0.10
   2   4  -3    0.39    0.08
   1  -4  -3   13.06    1.01
  -1  -4   3   11.97    0.97
   1   4  -3   12.53    0.89
   1   4  -3   12.56    0.99
   1   4  -3   11.78    0.86
   0  -4  -3    0.34    0.11
   0   4  -3    0.27    0.06
   0   4  -3    0.27    0.07
   0   4  -3    0.34    0.08
  -1  -4  -3    0.97    0.20
  -1   4  -3    1.22    0.12
  -1   4  -3    1.06    0.14
  -1   4  -3    1.19    0.15
  -2  -4  -3   10.06    0.95
  -2   4  -3   10.98    0.76
  -2   4  -3   11.13    0.80
  -3  -4  -3    0.67    0.19
  -3   4  -3    0.76    0.11
  -4  -4  -3   34.80    2.75
  -4   4  -3   34.66    2.40
  -4   4  -3   33.24    2.31
  -5  -4  -3    0.63    0.20
  -5   4  -3    1.00    0.14
  -5   4  -3    0.91    0.16
  -6  -4  -3   14.27    1.25
  -6   4  -3   13.01    1.02
  -7  -4  -3    0.05    0.14
  -7   4  -3    0.09    0.09
  -8  -4  -3   10.07    0.94
  -8   4  -3    7.69    0.70
  -9  -4  -3    0.99    0.32
  -9   4  -3    0.96    0.20
 -10  -4  -3    0.58    0.30
 -10   4  -3    0.44    0.16
 -11  -4  -3    0.28    0.24
 -11   4  -3   -0.08    0.10
 -12  -4  -3   -0.08    0.20
 -12   4  -3    0.09    0.13
  15   5  -3    0.29    0.15
  14   5  -3    0.67    0.19
  13   5  -3    1.16    0.23
  12   5  -3    4.81    0.45
 -12   5   3    4.59    0.40
 -11  -5   3    9.65    1.01
  11   5  -3   10.48    0.79
 -11   5   3    9.45    0.74
 -10  -5   3    0.19    0.20
  10   5  -3    0.31    0.13
 -10   5   3    0.12    0.08
  -9  -5   3    9.93    0.88
  -9   5   3    7.31    0.60
   9   5  -3    8.04    0.65
  -8  -5   3    0.35    0.18
   8   5  -3    0.31    0.12
   8   5  -3    0.09    0.17
  -8   5   3    0.36    0.09
  -7  -5   3   34.34    2.64
  -7   5   3   30.06    2.26
   7   5  -3   34.51    2.66
   7   5  -3   33.24    2.25
  -6  -5   3   11.65    1.02
   6   5  -3   12.42    1.05
  -6   5   3   10.94    0.82
   6   5  -3   10.81    0.83
  -5  -5   3    8.34    0.73
   5   5  -3    8.42    0.60
  -5   5   3    6.64    0.52
   5   5  -3    8.47    0.75
   5   5  -3    8.88    0.59
  -4  -5   3   33.92    2.65
   4   5  -3   36.09    2.35
   4   5  -3   35.07    2.30
  -4   5   3   32.96    2.24
   4   5  -3   30.42    2.66
   3  -5  -3   38.85    2.86
  -3  -5   3   36.13    2.89
   3   5  -3   37.21    2.91
  -3   5   3   35.25    2.49
   3   5  -3   36.48    2.58
   3   5  -3   40.15    2.53
   2  -5  -3    0.08    0.07
  -2  -5   3    0.03    0.06
   2   5  -3    0.04    0.06
   2   5  -3   -0.01    0.07
   2   5  -3    0.00    0.05
  -2   5   3    0.01    0.05
  -1  -5   3    5.94    0.51
   1  -5  -3    5.46    0.53
   1   5  -3    6.20    0.45
   1   5  -3    5.80    0.46
   0  -5   3    0.58    0.11
   0  -5  -3    0.34    0.13
   0   5  -3    0.66    0.10
   0   5  -3    0.42    0.10
   0   5  -3    0.40    0.10
  -1  -5  -3    0.25    0.13
  -1   5  -3    0.40    0.09
  -1   5  -3    0.35    0.09
  -1   5  -3    0.39    0.08
  -2  -5  -3    2.77    0.40
  -2   5  -3    3.13    0.26
  -2   5  -3    3.18    0.31
  -2   5  -3    3.15    0.29
  -3  -5  -3    1.23    0.26
  -3   5  -3    0.92    0.15
  -3   5  -3    0.95    0.13
  -4  -5  -3    0.10    0.14
  -4   5  -3    0.37    0.10
  -4   5  -3    0.27    0.07
  -5  -5  -3    0.48    0.20
  -5   5  -3    0.57    0.10
  -5   5  -3    0.39    0.12
  -6  -5  -3    8.28    0.88
  -6   5  -3    8.98    0.65
  -6   5  -3    8.19    0.69
  -7  -5  -3    1.84    0.40
  -7   5  -3    1.96    0.27
  -8  -5  -3    0.55    0.28
  -8   5  -3    0.42    0.15
  -9  -5  -3    1.05    0.34
  -9   5  -3    0.49    0.17
 -10  -5  -3    0.35    0.28
 -10   5  -3    0.76    0.18
 -11  -5  -3    1.35    0.43
 -11   5  -3    1.07    0.23
 -12  -5  -3    1.21    0.43
 -12   5  -3    0.59    0.19
  15   6  -3    0.36    0.18
  14   6  -3    0.15    0.15
  13   6  -3    0.30    0.15
  12   6  -3    0.22    0.15
 -12   6   3    0.26    0.11
 -11   6   3    5.01    0.44
  11   6  -3    5.44    0.50
 -10  -6   3    0.51    0.25
  10   6  -3    0.45    0.18
 -10   6   3    0.49    0.12
  -9  -6   3   70.61    5.51
   9   6  -3   72.38    4.76
  -9   6   3   68.40    4.83
  -8  -6   3   21.21    1.78
  -8   6   3   20.31    1.47
   8   6  -3   20.61    1.48
  -7  -6   3   19.85    1.53
   7   6  -3   17.26    1.25
  -7   6   3   16.06    1.24
  -6  -6   3   41.13    3.32
  -6   6   3   43.19    2.92
   6   6  -3   37.34    3.33
   6   6  -3   45.18    2.87
  -5  -6   3    5.13    0.51
  -5   6   3    4.05    0.31
   5   6  -3    5.13    0.54
   5   6  -3    4.28    0.38
   5   6  -3    5.11    0.39
  -4  -6   3    0.37    0.14
   4   6  -3    0.30    0.09
  -4   6   3    0.38    0.07
   4   6  -3    0.27    0.16
   4   6  -3    0.20    0.08
  -3  -6   3   27.17    2.08
   3  -6  -3   23.80    2.03
   3   6  -3   24.23    1.80
   3   6  -3   25.92    1.84
   3   6  -3   29.68    2.12
  -3   6   3   26.97    1.76
  -2  -6   3    4.09    0.38
   2  -6  -3    3.49    0.37
   2   6  -3    4.16    0.33
   2   6  -3    3.82    0.32
  -2   6   3    3.14    0.29
   1  -6  -3    0.42    0.13
  -1  -6   3    0.38    0.10
   1   6  -3    0.38    0.10
   1   6  -3    0.15    0.09
   1   6  -3    0.44    0.10
  -1   6   3    0.58    0.11
   0  -6   3    6.87    0.58
   0  -6  -3    5.91    0.62
   0   6  -3    6.34    0.50
   0   6  -3    6.50    0.59
   0   6  -3    7.80    0.54
  -1  -6  -3   31.64    2.45
  -1   6  -3   30.03    2.37
  -1   6  -3   31.60    2.15
  -1   6  -3   29.26    2.06
  -2  -6  -3    0.77    0.20
  -2   6  -3    0.79    0.11
  -3  -6  -3    0.82    0.22
  -3   6  -3    0.26    0.10
  -3   6  -3    0.50    0.09
  -4  -6  -3    3.68    0.52
  -4   6  -3    3.27    0.28
  -4   6  -3    3.23    0.32
  -5  -6  -3    0.87    0.26
  -5   6  -3    1.04    0.15
  -5   6  -3    1.06    0.18
  -6  -6  -3    7.44    0.83
  -6   6  -3    7.07    0.62
  -6   6  -3    7.55    0.57
  -7  -6  -3    0.99    0.32
  -7   6  -3    0.79    0.18
  -8  -6  -3   12.35    1.15
  -8   6  -3    9.20    0.82
  -9  -6  -3    0.73    0.33
  -9   6  -3    0.36    0.15
 -10  -6  -3    0.31    0.30
 -10   6  -3    0.18    0.14
 -11  -6  -3    1.49    0.47
 -11   6  -3    0.88    0.21
 -12   6  -3   -0.19    0.11
  14   7  -3    0.18    0.18
  13   7  -3    0.13    0.16
  12   7  -3    0.71    0.20
 -12   7   3    0.52    0.14
  11   7  -3    1.48    0.26
 -11   7   3    0.93    0.17
 -10  -7   3    4.75    0.67
  10   7  -3    4.78    0.47
 -10   7   3    4.64    0.41
  -9  -7   3   10.11    0.96
  -9   7   3    8.33    0.68
   9   7  -3    8.53    0.72
  -8  -7   3    5.61    0.75
   8   7  -3    6.72    0.57
  -8   7   3    6.57    0.53
  -7  -7   3    0.96    0.27
   7   7  -3    1.20    0.21
  -7   7   3    0.84    0.15
  -6  -7   3    6.30    0.66
   6   7  -3    6.80    0.52
   6   7  -3    5.98    0.53
  -6   7   3    6.37    0.51
  -6   7   3    6.00    0.43
  -5  -7   3    0.89    0.23
   5   7  -3    0.47    0.13
  -5   7   3    0.69    0.08
   5   7  -3    0.71    0.15
  -4  -7   3    0.63    0.18
  -4   7   3    0.53    0.08
   4   7  -3    0.73    0.15
   4   7  -3    0.57    0.13
   3  -7  -3    3.85    0.41
  -3  -7   3    4.21    0.45
   3   7  -3    4.11    0.37
  -3   7   3    4.33    0.34
   3   7  -3    4.97    0.38
  -2  -7   3    2.02    0.26
   2  -7  -3    1.59    0.24
   2   7  -3    1.31    0.18
   2   7  -3    1.26    0.19
  -2   7   3    1.47    0.18
   1  -7  -3    1.03    0.20
  -1  -7   3    1.14    0.18
  -1   7   3    1.36    0.17
   1   7  -3    0.92    0.16
   1   7  -3    1.23    0.16
   0  -7  -3    0.71    0.19
   0  -7   3    0.66    0.14
   0   7  -3    0.77    0.12
   0   7  -3    0.80    0.15
   0   7   3    0.79    0.15
  -1  -7  -3    4.42    0.49
  -1   7  -3    3.99    0.33
  -1   7  -3    4.25    0.37
   1   7   3    3.91    0.37
  -2  -7  -3    2.66    0.40
  -2   7  -3    2.23    0.22
  -2   7  -3    2.96    0.28
  -3  -7  -3    6.61    0.68
  -3   7  -3    5.55    0.46
  -3   7  -3    6.19    0.51
  -4  -7  -3   11.24    1.10
  -4   7  -3   11.46    0.83
  -4   7  -3   11.66    0.89
  -5  -7  -3   30.70    2.68
  -5   7  -3   33.01    2.31
  -5   7  -3   32.69    2.21
  -6  -7  -3   27.67    2.23
  -6   7  -3   24.73    1.76
  -6   7  -3   24.85    1.84
  -7  -7  -3   37.45    3.22
  -7   7  -3   36.74    2.75
  -7   7  -3   41.20    2.65
  -8  -7  -3    7.12    0.90
  -8   7  -3    6.56    0.60
  -9  -7  -3    1.34    0.42
  -9   7  -3    1.50    0.27
 -10  -7  -3    2.83    0.60
 -10   7  -3    2.38    0.34
 -11  -7  -3    0.14    0.29
 -11   7  -3    0.13    0.14
  11   7   3    0.05    0.15
  12   7   3   -0.02    0.16
 -12   7  -3    0.12    0.15
  13   8  -3   -0.02    0.14
 -12   8   3    0.83    0.18
  12   8  -3    0.85    0.23
  11   8  -3   10.41    0.85
 -11   8   3   10.05    0.80
 -10   8   3    9.24    0.72
  10   8  -3    8.51    0.75
  -9  -8   3    8.29    0.84
   9   8  -3    6.73    0.62
  -9   8   3    6.91    0.59
  -8  -8   3   -0.02    0.18
   8   8  -3    0.19    0.15
  -8   8   3    0.08    0.12
  -7  -8   3   63.45    4.56
  -7   8   3   57.62    3.99
  -7   8   3   55.82    3.80
   7   8  -3   54.73    3.92
   7   8  -3   57.63    3.99
  -6  -8   3    2.75    0.43
   6   8  -3    1.60    0.27
  -6   8   3    2.55    0.30
   6   8  -3    2.29    0.29
  -6   8   3    2.63    0.20
  -5  -8   3   27.14    2.19
  -5   8   3   22.41    1.89
  -5   8   3   26.49    1.79
   5   8  -3   28.58    1.91
   5   8  -3   29.57    1.88
  -4  -8   3    0.48    0.17
   4   8  -3    0.39    0.13
   4   8  -3    0.54    0.14
  -4   8   3    0.67    0.10
  -3  -8   3    4.95    0.53
   3  -8  -3    5.41    0.51
   3   8  -3    5.38    0.46
  -3   8   3    4.96    0.40
   3   8  -3    5.43    0.45
  -2  -8   3    0.30    0.12
   2  -8  -3    0.34    0.14
   2   8  -3    0.35    0.11
   2   8  -3    0.33    0.12
  -2   8   3    0.15    0.09
  -1  -8   3   21.42    1.57
   1  -8  -3   19.33    1.59
   1   8  -3   19.06    1.36
  -1   8   3   19.34    1.36
   1   8  -3   17.49    1.40
   0  -8  -3    4.45    0.52
   0  -8   3    4.88    0.48
   0   8  -3    5.40    0.41
   0   8   3    5.37    0.43
   0   8  -3    4.53    0.43
  -1  -8  -3   11.75    1.08
  -1   8  -3   11.63    0.91
   1   8   3   11.61    0.89
  -1   8  -3   12.29    0.86
  -2  -8  -3    1.11    0.28
  -2   8  -3    0.93    0.18
  -2   8  -3    1.02    0.15
   2   8   3    1.20    0.20
  -3  -8  -3    2.62    0.44
  -3   8  -3    2.20    0.28
  -3   8  -3    2.46    0.23
   3   8   3    2.14    0.29
  -4  -8  -3   13.20    1.27
  -4   8  -3   13.83    1.03
  -4   8  -3   14.81    0.97
   4   8   3   11.30    1.01
  -5  -8  -3    4.12    0.64
  -5   8  -3    3.90    0.33
   5   8   3    3.35    0.40
  -5   8  -3    3.12    0.39
  -6  -8  -3    0.62    0.30
  -6   8  -3    0.50    0.13
  -6   8  -3    0.37    0.15
   6   8   3    0.55    0.18
  -7  -8  -3    0.09    0.23
  -7   8  -3    0.08    0.12
  -7   8  -3    0.06    0.09
   7   8   3    0.07    0.14
  -8  -8  -3    2.00    0.46
  -8   8  -3    1.47    0.26
   8   8   3    1.59    0.30
  -9  -8  -3    1.62    0.46
  -9   8  -3    0.89    0.22
   9   8   3    1.03    0.26
 -10  -8  -3   -0.06    0.25
  10   8   3    0.54    0.21
 -10   8  -3    0.52    0.18
 -11  -8  -3   -0.20    0.28
 -11   8  -3    0.22    0.15
  11   8   3    0.10    0.18
  13   9  -3    0.34    0.19
 -12   9   3    0.50    0.17
  12   9  -3    1.14    0.24
 -11   9   3    0.48    0.15
  11   9  -3    0.52    0.19
  11   9  -3    0.39    0.13
  10   9  -3   -0.14    0.10
 -10   9   3    0.00    0.11
  10   9  -3   -0.10    0.13
  -9   9   3    4.48    0.43
   9   9  -3    4.57    0.43
   9   9  -3    4.82    0.47
  -8  -9   3    0.20    0.21
   8   9  -3    0.08    0.14
   8   9  -3    0.04    0.11
  -8   9   3   -0.01    0.11
  -7  -9   3    0.67    0.26
  -7   9   3    0.63    0.16
   7   9  -3    0.65    0.17
   7   9  -3    0.48    0.17
  -6  -9   3    4.54    0.55
  -6   9   3    2.16    0.32
   6   9  -3    2.73    0.35
  -6   9   3    2.85    0.23
   6   9  -3    2.85    0.34
  -5  -9   3    0.10    0.17
  -5   9   3    0.10    0.06
   5   9  -3   -0.12    0.10
   5   9  -3    0.18    0.13
  -5   9   3   -0.09    0.11
  -4  -9   3    3.19    0.42
   4   9  -3    1.72    0.27
  -4   9   3    2.21    0.22
   4   9  -3    2.17    0.29
   3  -9  -3    0.04    0.10
  -3  -9   3    0.12    0.12
   3   9  -3   -0.02    0.09
  -3   9   3    0.01    0.07
   3   9  -3   -0.04    0.10
   2  -9  -3    2.74    0.37
  -2  -9   3    3.29    0.40
   2   9  -3    2.59    0.32
   2   9  -3    3.24    0.31
  -2   9   3    2.88    0.28
   1  -9  -3    0.04    0.11
  -1  -9   3    0.08    0.10
   1   9  -3    0.06    0.09
   1   9  -3   -0.06    0.10
  -1   9   3    0.08    0.09
   0  -9   3    0.19    0.11
   0  -9  -3    0.46    0.18
   0   9  -3    0.01    0.11
   0   9  -3    0.31    0.11
   0   9   3    0.48    0.14
  -1  -9  -3    2.01    0.37
   1   9   3    2.31    0.29
  -1   9  -3    2.55    0.26
  -1   9  -3    1.89    0.27
  -2  -9  -3   10.54    1.05
   2   9   3   10.42    0.85
  -2   9  -3   10.97    0.80
  -2   9  -3   11.60    0.88
  -3  -9  -3   12.22    1.17
  -3   9  -3   12.91    0.88
   3   9   3   11.29    0.93
  -3   9  -3   11.73    0.95
  -4  -9  -3    9.77    1.06
  -4   9  -3   10.47    0.84
   4   9   3    9.69    0.83
  -4   9  -3   10.78    0.77
  -5  -9  -3   19.91    1.70
  -5   9  -3   17.72    1.37
  -5   9  -3   18.73    1.28
   5   9   3   16.49    1.35
  -6  -9  -3    0.37    0.29
  -6   9  -3    0.15    0.09
  -6   9  -3    0.01    0.12
   6   9   3    0.18    0.15
  -7  -9  -3   17.37    1.55
   7   9   3   13.36    1.17
  -7   9  -3   16.08    1.11
  -7   9  -3   14.44    1.18
  -8  -9  -3    7.17    0.95
   8   9   3    5.09    0.59
  -8   9  -3    5.82    0.57
  -9  -9  -3    5.37    0.83
  -9   9  -3    4.02    0.50
   9   9   3    4.87    0.56
 -10  -9  -3    2.34    0.58
  10   9   3    1.71    0.34
 -10   9  -3    2.23    0.34
 -11   9  -3   -0.03    0.14
  12  10  -3    0.26    0.18
 -11  10   3    4.08    0.41
  11  10  -3    3.21    0.46
  11  10  -3    3.96    0.40
 -10  10   3    0.53    0.17
  10  10  -3    0.45    0.19
  10  10  -3    0.71    0.18
   9  10  -3    8.69    0.68
   9  10  -3    8.10    0.70
  -9  10   3    7.05    0.66
   8  10  -3   -0.06    0.11
   8  10  -3   -0.07    0.11
  -8  10   3   -0.07    0.10
  -7 -10   3    5.38    0.71
   7  10  -3    5.75    0.50
   7  10  -3    4.41    0.51
  -7  10   3    5.09    0.48
  -6 -10   3    0.99    0.29
   6  10  -3    0.72    0.20
   6  10  -3    0.94    0.21
  -6  10   3    0.98    0.22
  -6  10   3    1.22    0.14
  -5 -10   3   28.25    2.17
  -5  10   3   24.82    1.87
  -5  10   3   25.28    1.74
   5  10  -3   24.69    1.84
   5  10  -3   26.08    1.87
  -4 -10   3   -0.10    0.13
   4  10  -3   -0.15    0.12
  -4  10   3   -0.02    0.13
  -4  10   3    0.00    0.08
   4  10  -3   -0.02    0.14
  -3 -10   3    8.18    0.86
   3 -10  -3   10.80    0.88
   3  10  -3    7.92    0.75
   3  10  -3    9.59    0.75
  -3  10   3   10.08    0.70
  -2 -10   3    0.92    0.22
   2 -10  -3    1.10    0.23
   2  10  -3    0.92    0.20
   2  10  -3    0.87    0.20
  -2  10   3    0.78    0.16
   1 -10  -3    3.09    0.44
  -1 -10   3    3.43    0.42
  -1  10   3    3.96    0.35
   1  10  -3    3.17    0.36
   1  10  -3    3.36    0.39
   0 -10   3    6.01    0.60
   0 -10  -3    5.65    0.65
   0  10  -3    6.00    0.51
   0  10   3    7.16    0.54
   0  10  -3    5.78    0.55
  -1 -10  -3    5.48    0.68
  -1  10  -3    5.99    0.50
   1  10   3    6.28    0.53
  -1  10  -3    5.82    0.55
  -2 -10  -3    3.35    0.50
  -2  10  -3    2.97    0.37
  -2  10  -3    2.84    0.31
   2  10   3    2.70    0.35
  -3 -10  -3   18.67    1.64
  -3  10  -3   18.69    1.36
   3  10   3   17.50    1.33
  -3  10  -3   17.23    1.27
  -4 -10  -3    0.00    0.21
  -4  10  -3    0.04    0.14
   4  10   3    0.02    0.13
  -4  10  -3    0.23    0.10
  -5 -10  -3    5.28    0.75
  -5  10  -3    5.37    0.46
   5  10   3    5.84    0.54
  -5  10  -3    4.98    0.51
  -6 -10  -3    1.32    0.43
  -6  10  -3    0.98    0.23
   6  10   3    0.97    0.24
  -6  10  -3    1.02    0.18
  -7 -10  -3    1.46    0.40
   7  10   3    0.87    0.24
  -7  10  -3    1.33    0.26
  -8 -10  -3    0.41    0.33
   8  10   3    0.35    0.19
  -8  10  -3    0.49    0.19
  -9 -10  -3    0.57    0.39
  -9  10  -3    0.49    0.19
   9  10   3    0.85    0.24
 -10  10  -3    0.10    0.15
  10  10   3    0.21    0.18
  11  11  -3   -0.02    0.14
 -11  11   3    0.10    0.14
  11  11  -3    0.32    0.15
  10  11  -3   -0.14    0.12
 -10  11   3   -0.28    0.10
  10  11  -3   -0.06    0.13
   9  11  -3    2.04    0.34
   9  11  -3    2.65    0.34
  -9  11   3    2.19    0.32
   8  11  -3    0.27    0.17
  -8  11   3    0.23    0.15
   8  11  -3    0.28    0.18
   7  11  -3    0.81    0.19
  -7  11   3    0.63    0.18
   7  11  -3    0.81    0.22
   6  11  -3   -0.18    0.13
  -6  11   3   -0.07    0.12
   6  11  -3   -0.03    0.14
  -5 -11   3    1.03    0.28
  -5  11   3    0.66    0.12
   5  11  -3    0.75    0.20
  -5  11   3    0.34    0.17
   5  11  -3    0.68    0.20
  -4 -11   3    0.86    0.24
  -4  11   3    0.79    0.15
   4  11  -3    0.79    0.20
  -4  11   3    0.59    0.19
   4  11  -3    0.82    0.21
  -3 -11   3    7.24    0.73
   3 -11  -3    8.41    0.74
   3  11  -3    6.74    0.63
  -3  11   3    6.42    0.56
   3  11  -3    7.64    0.62
   2 -11  -3    0.06    0.13
  -2 -11   3   -0.02    0.11
   2  11  -3    0.07    0.12
   2  11  -3    0.01    0.13
  -2  11   3    0.04    0.10
   1 -11  -3    1.24    0.27
  -1 -11   3    1.15    0.25
   1  11  -3    1.30    0.22
   1  11  -3    1.03    0.22
  -1  11   3    1.29    0.22
   0 -11   3    0.13    0.12
   0 -11  -3    0.19    0.18
   0  11   3    0.24    0.14
   0  11  -3    0.33    0.12
   0  11  -3    0.04    0.15
  -1 -11  -3    0.20    0.21
   1  11   3    0.00    0.13
  -1  11  -3    0.37    0.17
  -1  11  -3    0.31    0.12
  -2 -11  -3   11.69    1.12
   2  11   3   12.31    0.92
  -2  11  -3   10.74    0.92
  -2  11  -3   10.95    0.85
  -3 -11  -3   20.28    1.79
   3  11   3   18.25    1.46
  -3  11  -3   20.62    1.51
  -3  11  -3   20.36    1.41
  -4 -11  -3    4.77    0.75
  -4  11  -3    6.53    0.60
   4  11   3    6.66    0.59
  -4  11  -3    5.96    0.50
  -5 -11  -3    3.16    0.60
   5  11   3    3.39    0.43
  -5  11  -3    3.96    0.35
  -5  11  -3    2.68    0.40
  -6 -11  -3    1.14    0.38
   6  11   3    0.08    0.17
  -6  11  -3    0.48    0.14
  -6  11  -3    0.31    0.17
  -7 -11  -3    5.86    0.85
  -7  11  -3    4.62    0.53
   7  11   3    4.02    0.52
  -8 -11  -3    0.69    0.36
  -8  11  -3    0.51    0.20
   8  11   3    0.39    0.20
  -9  11  -3    3.44    0.46
   9  12  -3    2.11    0.33
   9  12  -3    2.16    0.37
  -9  12   3    2.31    0.33
  -8  12   3    1.72    0.29
   8  12  -3    1.91    0.31
   8  12  -3    1.55    0.31
   7  12  -3    7.18    0.66
   7  12  -3    8.16    0.69
  -7  12   3    6.46    0.64
   6  12  -3    3.25    0.42
  -6  12   3    3.00    0.41
   6  12  -3    3.24    0.42
   5  12  -3    1.36    0.27
   5  12  -3    1.33    0.26
  -5  12   3    1.09    0.25
  -4  12   3    1.76    0.23
   4  12  -3    1.84    0.30
  -4  12   3    1.81    0.31
   4  12  -3    2.14    0.31
   3 -12  -3   -0.03    0.12
  -3  12   3   -0.11    0.09
   3  12  -3    0.08    0.13
   3  12  -3    0.12    0.14
  -3  12   3   -0.13    0.13
  -2 -12   3    1.06    0.26
   2 -12  -3    0.98    0.26
   2  12  -3    0.73    0.21
   2  12  -3    1.06    0.22
  -2  12   3    1.29    0.21
  -1 -12   3    0.09    0.14
   1 -12  -3   -0.03    0.13
   1  12  -3    0.25    0.14
   1  12  -3   -0.14    0.12
  -1  12   3    0.01    0.11
   0 -12  -3    2.60    0.42
   0 -12   3    2.22    0.35
   0  12  -3    1.97    0.32
   0  12   3    2.30    0.31
   0  12  -3    1.87    0.28
  -1 -12  -3    1.16    0.32
  -1  12  -3    1.57    0.29
   1  12   3    1.39    0.25
  -1  12  -3    1.51    0.24
  -2 -12  -3    5.49    0.69
   2  12   3    4.45    0.50
  -2  12  -3    4.23    0.50
  -2  12  -3    4.53    0.42
  -3 -12  -3    2.35    0.47
  -3  12  -3    2.28    0.34
  -3  12  -3    2.10    0.27
   3  12   3    2.06    0.34
  -4 -12  -3    4.62    0.73
  -4  12  -3    4.87    0.43
  -4  12  -3    4.13    0.51
   4  12   3    5.41    0.56
  -5 -12  -3    6.34    0.86
   5  12   3    4.89    0.57
  -5  12  -3    4.93    0.45
  -5  12  -3    4.46    0.54
  -6 -12  -3    1.93    0.52
  -6  12  -3    1.97    0.34
   6  12   3    2.54    0.38
  -7 -12  -3   -0.17    0.25
   7  12   3    0.30    0.20
  -7  12  -3   -0.10    0.14
   8  13  -3   -0.06    0.16
   8  13  -3   -0.11    0.16
  -8  13   3   -0.09    0.14
  -7  13   3    0.59    0.20
   7  13  -3    0.13    0.18
   7  13  -3    0.24    0.18
   6  13  -3    0.33    0.17
  -6  13   3    0.18    0.16
   6  13  -3   -0.07    0.14
  -5  13   3    0.29    0.17
   5  13  -3    0.12    0.16
   5  13  -3    0.50    0.20
   4  13  -3    0.41    0.19
   4  13  -3    0.44    0.19
  -4  13   3    0.37    0.18
   3 -13  -3    0.92    0.25
   3  13  -3    0.41    0.18
  -3  13   3    0.56    0.16
   3  13  -3    1.06    0.23
  -3  13   3    0.65    0.21
   2 -13  -3   -0.06    0.14
   2  13  -3    0.07    0.15
   2  13  -3   -0.09    0.12
  -2  13   3   -0.11    0.09
  -2  13   3    0.07    0.14
   1 -13  -3    0.85    0.26
  -1  13   3    0.22    0.14
   1  13  -3    0.35    0.18
   1  13  -3    0.41    0.17
   0 -13  -3    1.75    0.37
   0  13   3    2.09    0.30
   0  13  -3    1.33    0.29
   0  13  -3    2.23    0.30
  -1 -13  -3    0.61    0.26
  -1  13  -3    0.42    0.16
   1  13   3    0.37    0.18
  -1  13  -3    0.00    0.16
  -2 -13  -3    6.05    0.75
  -2  13  -3    5.30    0.48
   2  13   3    6.13    0.54
  -2  13  -3    3.89    0.54
  -3 -13  -3    0.42    0.29
   3  13   3    0.51    0.21
  -3  13  -3    0.54    0.15
  -3  13  -3    0.17    0.18
  -4 -13  -3    4.46    0.71
   4  13   3    4.41    0.52
  -4  13  -3    4.83    0.43
  -4  13  -3    3.54    0.50
  -5 -13  -3    4.23    0.70
  -5  13  -3    3.78    0.49
   5  13   3    4.08    0.50
   5  14  -3    0.08    0.17
   5  14  -3   -0.02    0.15
  -5  14   3   -0.22    0.14
   4  14  -3    2.08    0.36
   4  14  -3    2.12    0.34
   3 -14  -3    0.06    0.18
   3  14  -3   -0.05    0.13
   3  14  -3   -0.11    0.14
  -3  14   3   -0.03    0.15
   2 -14  -3    0.41    0.22
   2  14  -3    0.32    0.19
   2  14  -3    0.26    0.16
  -2  14   3    0.26    0.18
  -2  14   3    0.10    0.13
   1 -14  -3    0.14    0.21
   1  14  -3    0.44    0.17
  -1  14   3    0.19    0.15
   1  14  -3    0.17    0.18
  -1  14   3    0.18    0.17
   0 -14  -3    0.41    0.22
   0  14  -3    0.08    0.16
   0  14   3    0.66    0.19
   0  14  -3    0.17    0.14
  -1 -14  -3    0.54    0.26
   1  14   3    0.05    0.14
  -1  14  -3    0.28    0.20
  -1  14  -3    0.19    0.13
  -2 -14  -3    2.66    0.50
  -2  14  -3    3.27    0.37
  -2  14  -3    2.45    0.40
   2  14   3    3.43    0.43
  -3 -14  -3   -0.07    0.23
  -3  14  -3   -0.15    0.10
  -3  14  -3    0.14    0.18
   3  14   3    0.08    0.16
  14   0  -4    0.48    0.13
  13   0  -4    0.00    0.08
  12   0  -4    5.32    0.43
 -11   0   4   -0.04    0.13
  11   0  -4   -0.04    0.06
 -10   0   4   16.15    1.33
  10   0  -4   14.47    1.05
  -9   0   4    0.14    0.12
   9   0  -4   -0.07    0.05
   8   0  -4    0.30    0.07
  -8   0   4    0.44    0.15
  -7   0   4   -0.07    0.07
   7   0  -4    0.03    0.04
   6   0  -4   30.29    2.24
  -6   0   4   36.40    2.26
  -6   0   4   34.58    2.61
   5   0  -4    0.03    0.03
  -5   0   4   -0.05    0.05
  -5   0   4    0.01    0.02
  -5   0   4    0.02    0.03
   4   0  -4    4.80    0.36
   4   0  -4    4.98    0.44
  -4   0   4    5.90    0.37
  -4   0   4    5.07    0.36
   4   0  -4    4.98    0.38
  -4   0   4    4.68    0.43
  -3   0   4   -0.01    0.02
   3   0  -4   -0.04    0.02
  -3   0   4    0.10    0.03
  -3   0   4   -0.01    0.04
   3   0  -4    0.00    0.04
   3   0  -4    0.03    0.05
   2   0  -4  973.49   64.95
   2   0  -4 1000.00   66.88
  -2   0   4  978.15   64.92
  -1   0   4   -0.13    0.03
   1   0  -4   -0.12    0.04
   1   0  -4   -0.05    0.07
  -1   0   4   -0.21    0.05
   0   0   4   81.16    5.10
   0   0  -4   70.53    5.10
   0   0   4   84.74    5.27
   0   0  -4   70.79    5.26
   1   0   4   -0.01    0.03
  -1   0  -4    0.01    0.04
  -1   0  -4    0.03    0.06
  -2   0  -4    1.09    0.17
  -3   0  -4   -0.02    0.07
  -4   0  -4   29.41    2.11
  -5   0  -4   -0.04    0.07
  -6   0  -4   32.23    2.32
  -7   0  -4   -0.03    0.10
  -8   0  -4   22.97    1.71
  -9   0  -4   -0.22    0.10
 -10   0  -4    0.29    0.15
 -11   0  -4    0.12    0.13
 -11   0  -4    0.11    0.20
 -12   0  -4    0.11    0.15
 -12   0  -4    0.03    0.24
  15   1  -4    0.03    0.09
  14  -1  -4    1.72    0.22
  14   1  -4    2.01    0.25
  13  -1  -4    0.34    0.10
  13   1  -4    0.23    0.11
  12  -1  -4    5.99    0.46
  12   1  -4    6.12    0.49
 -11  -1   4   -0.10    0.14
  11  -1  -4    0.05    0.06
  11   1  -4   -0.03    0.06
 -11   1   4    0.06    0.14
  10  -1  -4    1.67    0.16
 -10  -1   4    1.25    0.28
 -10   1   4    1.57    0.30
  10   1  -4    1.81    0.20
   9  -1  -4    0.14    0.05
  -9  -1   4    0.03    0.11
  -9   1   4    0.03    0.10
   9   1  -4    0.17    0.08
   8  -1  -4   30.12    2.01
  -8  -1   4   31.51    2.40
  -8   1   4   27.59    2.36
   8   1  -4   30.55    2.03
  -7  -1   4    0.09    0.09
   7  -1  -4    0.07    0.04
   7   1  -4    0.20    0.06
  -6  -1   4   37.69    2.86
   6  -1  -4   35.01    2.45
  -6   1   4   37.62    2.52
  -6   1   4   34.88    2.51
   6   1  -4   38.38    2.47
   6   1  -4   38.99    2.89
  -5  -1   4    2.13    0.16
   5  -1  -4    2.08    0.16
  -5  -1   4    2.38    0.24
  -5  -1   4    2.22    0.18
  -5   1   4    2.19    0.16
   5   1  -4    2.05    0.16
   5   1  -4    1.95    0.17
  -5   1   4    1.85    0.17
   5   1  -4    1.91    0.26
  -4  -1   4   99.36    6.35
   4  -1  -4   81.63    6.33
  -4  -1   4   92.23    7.22
  -4  -1   4  104.86    6.52
  -4   1   4  101.31    7.21
  -4   1   4   92.97    6.33
  -4   1   4   99.50    6.53
   4   1  -4   93.82    6.35
   4   1  -4   90.07    7.23
   4   1  -4  104.06    6.53
  -3  -1   4   42.20    2.91
  -3  -1   4   41.66    2.64
   3  -1  -4   33.20    2.56
  -3  -1   4   39.41    2.57
   3  -1  -4   35.28    2.66
  -3   1   4   38.75    2.56
  -3   1   4   36.22    2.89
   3   1  -4   41.45    2.65
   3   1  -4   39.72    2.57
  -3   1   4   39.90    2.66
   3   1  -4   39.62    2.93
  -3   1   4   36.61    2.90
  -2  -1   4   12.77    0.76
   2  -1  -4    9.49    0.77
   2  -1  -4   10.20    0.72
   2  -1  -4    9.46    0.79
  -2  -1   4   10.98    0.72
   2   1  -4   10.06    0.75
  -2   1   4   10.84    0.72
  -2   1   4   10.40    0.77
   2   1  -4   10.17    0.72
   2   1  -4   10.63    0.80
   1  -1  -4  103.49    6.98
  -1  -1   4  112.61    6.97
   1  -1  -4   95.00    7.20
   1   1  -4   97.01    6.97
  -1   1   4  111.60    6.97
   1   1  -4  103.72    7.19
  -1   1   4  114.16    7.20
   0  -1   4   50.20    3.14
   0   1   4   51.96    3.05
   0   1  -4   42.06    3.14
   0   1   4   41.34    3.15
   0   1  -4   41.83    3.03
  -1  -1  -4   38.11    2.63
  -1   1  -4   39.30    2.62
  -1   1  -4   35.35    2.52
  -2  -1  -4   23.94    1.63
  -2   1  -4   23.04    1.55
  -2   1  -4   20.84    1.60
  -3  -1  -4   41.02    2.81
  -3   1  -4   38.67    2.79
  -4  -1  -4   54.79    3.95
  -4   1  -4   58.52    3.95
  -5  -1  -4    0.93    0.18
  -5   1  -4    0.62    0.15
  -6  -1  -4   15.15    1.11
  -6   1  -4   13.27    1.09
  -7  -1  -4    2.26    0.31
  -7   1  -4    1.80    0.28
  -8  -1  -4    1.30    0.33
  -8  -1  -4    1.19    0.25
  -8   1  -4    0.84    0.22
  -9  -1  -4    5.37    0.56
  -9  -1  -4    6.52    0.80
  -9   1  -4    6.01    0.57
 -10  -1  -4    0.13    0.21
 -10  -1  -4    0.12    0.13
 -10   1  -4    0.09    0.13
 -11  -1  -4    0.04    0.13
 -11  -1  -4    0.13    0.22
 -11   1  -4   -0.10    0.10
 -12  -1  -4    3.56    0.64
 -12   1  -4    3.59    0.46
  16   2  -4   -0.03    0.10
  15   2  -4    0.31    0.14
  14   2  -4    0.42    0.13
  13  -2  -4   -0.04    0.06
  13   2  -4   -0.13    0.08
  12  -2  -4    0.08    0.06
  12   2  -4   -0.09    0.08
 -11  -2   4   -0.05    0.13
  11  -2  -4    0.01    0.05
  11   2  -4    0.00    0.08
 -10  -2   4    4.27    0.51
  10  -2  -4    3.48    0.27
  10   2  -4    3.48    0.32
  -9  -2   4    1.62    0.31
   9  -2  -4    1.80    0.15
  -9   2   4    1.85    0.16
   9   2  -4    2.42    0.23
  -8  -2   4    0.23    0.13
   8  -2  -4    0.29    0.05
   8   2  -4    0.25    0.06
  -8   2   4    0.38    0.05
   8   2  -4    0.37    0.04
   8   2  -4    0.36    0.09
   7  -2  -4    0.77    0.07
  -7  -2   4    0.55    0.16
   7   2  -4    0.79    0.13
   7   2  -4    0.79    0.20
   7   2  -4    0.75    0.07
  -7   2   4    0.75    0.08
   6  -2  -4    3.68    0.27
  -6  -2   4    4.50    0.42
   6   2  -4    3.75    0.31
   6   2  -4    4.19    0.29
   6   2  -4    4.49    0.45
   5  -2  -4   12.90    0.89
  -5  -2   4   13.73    1.08
   5   2  -4   13.21    0.92
   5   2  -4   12.34    1.09
  -5   2   4   13.74    0.88
   5   2  -4   13.28    0.92
  -4  -2   4   25.19    1.83
   4  -2  -4   21.07    1.57
  -4  -2   4   25.05    1.62
  -4   2   4   23.59    1.56
   4   2  -4   25.08    1.63
   4   2  -4   21.90    1.59
   4   2  -4   23.55    1.85
  -3  -2   4   26.74    2.14
   3  -2  -4   25.82    2.12
  -3  -2   4   32.81    1.94
   3   2  -4   25.11    1.89
   3   2  -4   28.76    1.94
  -3   2   4   29.76    1.88
   3   2  -4   28.17    2.17
  -2  -2   4    3.24    0.26
   2  -2  -4    2.84    0.26
  -2  -2   4    3.58    0.25
  -2  -2   4    3.20    0.24
   2   2  -4    2.87    0.27
  -2   2   4    3.21    0.24
   2   2  -4    2.82    0.25
   2   2  -4    2.62    0.24
  -1  -2   4   16.52    0.98
   1  -2  -4   11.27    1.06
   1   2  -4   12.36    0.97
  -1   2   4   13.25    1.06
   1   2  -4   14.81    0.94
   1   2  -4   14.05    1.05
   0  -2  -4   14.53    1.40
   0  -2  -4   18.91    1.31
   0   2  -4   18.60    1.28
   0   2  -4   20.20    1.24
  -1  -2  -4    0.01    0.06
  -1  -2  -4    0.00    0.05
  -1   2  -4    0.13    0.06
  -1   2  -4    0.15    0.05
  -2  -2  -4    7.18    0.60
  -2  -2  -4    6.43    0.64
  -2   2  -4    7.73    0.54
  -2   2  -4    7.26    0.57
  -3  -2  -4   11.07    0.97
  -3  -2  -4   10.60    0.86
  -3   2  -4   10.60    0.79
  -3   2  -4   12.07    0.85
  -4  -2  -4   53.91    3.81
  -4  -2  -4   53.39    4.23
  -4   2  -4   56.06    3.80
  -5  -2  -4   21.83    1.97
  -5  -2  -4   24.69    1.77
  -5   2  -4   25.34    1.75
  -6  -2  -4    6.07    0.69
  -6  -2  -4    5.94    0.53
  -6   2  -4    5.07    0.50
  -7  -2  -4   13.34    1.25
  -7  -2  -4   13.64    1.07
  -7   2  -4   13.48    1.05
  -8  -2  -4   27.12    2.13
  -8  -2  -4   24.11    1.82
  -8   2  -4   22.99    1.80
  -9  -2  -4    0.07    0.14
  -9  -2  -4    0.10    0.21
  -9   2  -4   -0.06    0.12
 -10  -2  -4    5.87    0.77
 -10   2  -4    5.31    0.54
 -11  -2  -4    0.88    0.36
 -11   2  -4    1.00    0.23
 -12  -2  -4    0.00    0.23
 -12   2  -4    0.03    0.14
  16   3  -4    3.26    0.38
  15   3  -4    2.35    0.31
  14   3  -4    0.77    0.18
  13   3  -4    0.09    0.11
  12   3  -4    0.87    0.18
  11  -3  -4    0.07    0.04
 -11  -3   4    0.37    0.20
  11   3  -4    0.09    0.09
  11   3  -4    0.10    0.04
 -11   3   4    0.10    0.06
  10  -3  -4    0.39    0.05
 -10  -3   4    0.10    0.16
  10  -3  -4    0.47    0.07
 -10   3   4    0.40    0.08
  10   3  -4    0.52    0.10
  10   3  -4    0.53    0.07
  10   3  -4    0.67    0.14
  -9  -3   4   20.48    1.61
   9   3  -4   17.11    1.29
   9   3  -4   20.74    1.34
  -9   3   4   18.31    1.31
   9   3  -4   18.85    1.33
  -8  -3   4   -0.11    0.09
   8   3  -4    0.01    0.06
   8   3  -4   -0.07    0.11
  -8   3   4   -0.02    0.03
   8   3  -4    0.09    0.04
  -7  -3   4   25.23    2.00
   7   3  -4   22.80    1.70
  -7   3   4   23.83    1.71
   7   3  -4   29.20    2.06
   7   3  -4   25.69    1.71
  -6  -3   4    1.80    0.27
   6   3  -4    1.60    0.27
   6   3  -4    1.78    0.15
   6   3  -4    1.67    0.19
  -5  -3   4   50.45    4.00
   5   3  -4   57.17    4.04
   5   3  -4   52.50    3.50
   5   3  -4   49.87    3.57
  -4  -3   4   32.59    2.45
   4   3  -4   33.08    2.14
   4   3  -4   32.75    2.47
   4   3  -4   29.51    2.18
  -4   3   4   31.15    2.10
  -3  -3   4   34.48    2.62
   3  -3  -4   31.94    2.60
  -3  -3   4   37.29    2.37
   3   3  -4   30.78    2.36
   3   3  -4   36.40    2.65
  -3   3   4   35.54    2.29
   3   3  -4   34.59    2.31
  -2  -3   4    0.72    0.10
   2  -3  -4    0.52    0.10
   2   3  -4    0.66    0.11
   2   3  -4    0.50    0.08
   2   3  -4    0.72    0.10
   1  -3  -4   64.23    5.67
   1   3  -4   77.66    5.14
   1   3  -4   77.47    5.65
   1   3  -4   80.65    4.99
   0  -3  -4    0.96    0.16
   0   3  -4    1.00    0.11
   0   3  -4    1.13    0.14
   0   3  -4    0.77    0.11
  -1  -3  -4    7.89    0.77
  -1   3  -4    9.04    0.67
  -1   3  -4    9.41    0.64
  -2  -3  -4   20.34    1.64
  -2   3  -4   19.72    1.38
  -2   3  -4   20.55    1.45
  -3  -3  -4   11.13    0.93
  -3   3  -4    9.08    0.73
  -3   3  -4   11.23    0.79
  -4  -3  -4    0.45    0.16
  -4   3  -4    0.64    0.11
  -4   3  -4    0.50    0.13
  -5  -3  -4    0.02    0.11
  -5   3  -4   -0.08    0.06
  -6  -3  -4    3.10    0.47
  -6   3  -4    2.62    0.33
  -7  -3  -4   -0.11    0.13
  -7   3  -4    0.04    0.10
  -8  -3  -4   17.84    1.70
  -8   3  -4   19.81    1.44
  -9  -3  -4    3.79    0.60
  -9   3  -4    3.95    0.45
 -10  -3  -4    0.48    0.28
 -10   3  -4    0.52    0.17
 -11  -3  -4    0.30    0.27
 -11   3  -4    0.08    0.13
 -12  -3  -4    0.23    0.28
 -12   3  -4    0.25    0.16
  16   4  -4    0.15    0.13
  15   4  -4    0.09    0.12
  14   4  -4    0.26    0.14
  13   4  -4    0.72    0.18
  12   4  -4    3.87    0.38
 -11  -4   4    1.71    0.36
 -11   4   4    1.54    0.17
  11   4  -4    1.12    0.22
  11   4  -4    1.41    0.15
 -10  -4   4    8.77    0.80
  10   4  -4    7.44    0.59
  10   4  -4    8.38    0.59
 -10   4   4    6.60    0.54
  10   4  -4    6.75    0.53
  -9  -4   4   10.17    0.96
   9   4  -4   10.65    0.77
  -9   4   4    9.75    0.73
   9   4  -4    9.54    0.72
   9   4  -4   12.17    1.03
  -8  -4   4    0.30    0.15
   8   4  -4    0.28    0.10
   8   4  -4    0.35    0.07
   8   4  -4    0.29    0.17
  -8   4   4    0.29    0.07
  -7  -4   4    0.07    0.11
   7   4  -4    0.07    0.13
   7   4  -4    0.08    0.05
  -7   4   4    0.03    0.05
   7   4  -4    0.11    0.08
  -6  -4   4    0.51    0.16
   6   4  -4    0.53    0.11
   6   4  -4    0.56    0.09
   6   4  -4    0.40    0.16
  -5  -4   4    0.11    0.09
   5   4  -4    0.05    0.11
   5   4  -4    0.41    0.09
   5   4  -4   -0.01    0.05
  -4  -4   4    9.70    0.81
   4   4  -4    9.06    0.70
   4   4  -4    9.52    0.70
   4   4  -4   10.49    0.85
  -3  -4   4   15.16    1.13
   3  -4  -4   12.66    1.10
   3   4  -4   13.41    1.00
   3   4  -4   15.76    1.16
  -2  -4   4    0.28    0.07
   2  -4  -4    0.27    0.08
   2   4  -4    0.29    0.07
   2   4  -4    0.24    0.07
   2   4  -4    0.36    0.10
   1  -4  -4    7.23    0.69
  -1  -4   4    8.49    0.67
   1   4  -4    9.44    0.60
   1   4  -4    7.96    0.61
   1   4  -4    7.79    0.67
   0  -4  -4    1.73    0.26
   0   4  -4    2.41    0.22
   0   4  -4    2.08    0.19
   0   4  -4    2.01    0.21
  -1  -4  -4    0.30    0.13
  -1   4  -4    0.35    0.07
  -1   4  -4    0.17    0.06
  -1   4  -4    0.26    0.08
  -2  -4  -4   27.30    2.04
  -2   4  -4   24.14    1.70
  -2   4  -4   24.41    1.78
  -3  -4  -4    6.02    0.68
  -3   4  -4    7.49    0.58
  -3   4  -4    7.47    0.54
  -4  -4  -4    0.14    0.13
  -4   4  -4    0.10    0.06
  -4   4  -4    0.12    0.08
  -5  -4  -4    8.37    0.82
  -5   4  -4    7.29    0.65
  -5   4  -4    8.38    0.61
  -6  -4  -4    0.64    0.22
  -6   4  -4    0.78    0.16
  -7  -4  -4   14.92    1.35
  -7   4  -4   13.86    1.10
  -8  -4  -4   10.12    1.07
  -8   4  -4   10.53    0.86
  -9  -4  -4    1.70    0.40
  -9   4  -4    1.56    0.27
 -10  -4  -4    0.99    0.36
 -10   4  -4    0.95    0.22
 -11  -4  -4    6.10    0.87
 -11   4  -4    6.10    0.59
 -12  -4  -4   -0.01    0.25
 -12   4  -4    0.10    0.15
  15   5  -4    0.31    0.15
  14   5  -4    1.89    0.29
  13   5  -4    2.16    0.31
  12   5  -4    0.34    0.15
  11   5  -4    0.64    0.10
  11   5  -4    0.33    0.15
 -11   5   4    0.42    0.10
 -10  -5   4    4.02    0.58
  10   5  -4    4.35    0.35
 -10   5   4    3.97    0.35
  10   5  -4    4.84    0.42
  -9  -5   4   13.82    1.21
  -9   5   4   12.27    0.95
   9   5  -4   13.03    0.95
   9   5  -4   14.62    1.26
   9   5  -4   13.66    0.99
  -8  -5   4    2.74    0.41
   8   5  -4    2.68    0.29
   8   5  -4    2.23    0.22
  -8   5   4    2.49    0.23
  -7  -5   4   69.21    5.34
   7   5  -4   69.35    4.73
   7   5  -4   73.40    5.38
   7   5  -4   67.80    4.64
  -7   5   4   66.84    4.73
  -6  -5   4   -0.17    0.08
   6   5  -4    0.01    0.06
   6   5  -4   -0.04    0.07
   6   5  -4    0.36    0.16
  -5  -5   4   54.06    4.44
  -5   5   4   52.47    3.81
   5   5  -4   57.36    3.88
   5   5  -4   60.76    3.97
   5   5  -4   66.83    4.50
  -4  -5   4    2.52    0.31
   4  -5  -4    2.81    0.27
  -4   5   4    2.27    0.20
   4   5  -4    2.98    0.25
   4   5  -4    2.64    0.25
   4   5  -4    2.83    0.36
   3  -5  -4   64.58    5.11
  -3  -5   4   66.87    5.13
   3   5  -4   66.48    4.51
   3   5  -4   69.03    5.16
   3   5  -4   70.56    4.63
   2  -5  -4    6.45    0.61
  -2  -5   4    6.54    0.60
   2   5  -4    7.37    0.54
   2   5  -4    7.79    0.53
   2   5  -4    7.19    0.63
   1  -5  -4    0.13    0.09
  -1  -5   4    0.39    0.09
   1   5  -4    0.02    0.06
   1   5  -4    0.24    0.07
   1   5  -4    0.10    0.07
   0  -5  -4    6.24    0.60
   0   5  -4    6.24    0.47
   0   5  -4    7.14    0.51
   0   5  -4    5.89    0.54
  -1  -5  -4   11.77    1.15
  -1   5  -4   14.63    0.95
  -1   5  -4   12.63    0.99
  -1   5  -4   14.41    1.09
  -2  -5  -4    1.53    0.29
  -2   5  -4    1.16    0.18
  -2   5  -4    1.34    0.16
  -2   5  -4    1.71    0.20
  -3  -5  -4    4.31    0.55
  -3   5  -4    4.51    0.39
  -3   5  -4    4.11    0.35
  -4  -5  -4    1.94    0.37
  -4   5  -4    2.22    0.27
  -4   5  -4    1.95    0.22
  -5  -5  -4    0.80    0.25
  -5   5  -4    0.72    0.13
  -5   5  -4    0.54    0.14
  -6  -5  -4    1.69    0.37
  -6   5  -4    1.13    0.18
  -6   5  -4    0.86    0.19
  -7  -5  -4    1.99    0.41
  -7   5  -4    2.09    0.30
  -8  -5  -4    4.05    0.61
  -8   5  -4    2.26    0.34
  -9  -5  -4    6.44    0.85
  -9   5  -4    6.11    0.58
 -10  -5  -4    0.51    0.30
 -10   5  -4    0.42    0.17
 -11  -5  -4    0.24    0.26
 -11   5  -4   -0.09    0.10
 -12  -5  -4    1.06    0.41
 -12   5  -4    0.30    0.18
  15   6  -4    0.01    0.13
  14   6  -4   -0.26    0.11
  13   6  -4   -0.13    0.10
 -12   6   4    2.89    0.29
  12   6  -4    3.04    0.37
  11   6  -4    7.72    0.60
  11   6  -4    7.84    0.66
 -11   6   4    7.93    0.61
 -10  -6   4    0.02    0.20
  10   6  -4   -0.21    0.07
  10   6  -4    0.01    0.12
 -10   6   4    0.00    0.08
  -9  -6   4   21.38    1.78
   9   6  -4   20.15    1.47
   9   6  -4   20.41    1.45
  -9   6   4   20.09    1.45
  -8  -6   4    3.30    0.46
   8   6  -4    2.27    0.28
  -8   6   4    2.35    0.25
   8   6  -4    2.67    0.46
   8   6  -4    2.58    0.25
  -7  -6   4    3.15    0.43
  -7   6   4    2.45    0.26
   7   6  -4    2.85    0.26
   7   6  -4    2.54    0.42
   7   6  -4    2.67    0.30
  -6  -6   4    0.16    0.13
   6   6  -4    0.27    0.10
   6   6  -4    0.38    0.18
   6   6  -4    0.26    0.09
  -5  -6   4   16.38    1.46
   5   6  -4   19.10    1.52
   5   6  -4   19.27    1.27
  -5   6   4   16.15    1.18
   5   6  -4   18.84    1.26
   4  -6  -4    3.43    0.35
  -4  -6   4    4.16    0.40
   4   6  -4    3.91    0.33
   4   6  -4    3.26    0.44
  -4   6   4    3.37    0.28
   4   6  -4    4.00    0.33
  -3  -6   4    1.77    0.25
   3  -6  -4    1.94    0.24
   3   6  -4    2.07    0.23
   3   6  -4    1.95    0.22
  -3   6   4    2.04    0.19
   2  -6  -4    0.16    0.09
  -2  -6   4    0.10    0.07
   2   6  -4    0.28    0.09
   2   6  -4    0.12    0.07
   2   6  -4    0.15    0.10
  -1  -6   4    0.30    0.09
   1  -6  -4    0.46    0.13
   1   6  -4    0.50    0.10
   1   6  -4    0.43    0.11
   1   6  -4    0.34    0.10
   0  -6  -4    5.48    0.54
   0   6  -4    5.20    0.44
   0   6  -4    5.47    0.41
   0   6  -4    4.99    0.48
  -1  -6  -4    0.46    0.16
  -1   6  -4    0.50    0.11
  -1   6  -4    0.38    0.10
  -1   6  -4    0.40    0.09
  -2  -6  -4   -0.08    0.10
  -2   6  -4    0.01    0.06
  -2   6  -4   -0.10    0.06
  -2   6  -4   -0.03    0.04
  -3  -6  -4   17.17    1.46
  -3   6  -4   16.93    1.22
  -3   6  -4   15.67    1.15
  -4  -6  -4    1.37    0.32
  -4   6  -4    1.51    0.18
  -4   6  -4    1.40    0.22
  -5  -6  -4   37.24    3.03
  -5   6  -4   38.99    2.63
  -5   6  -4   34.93    2.51
  -6  -6  -4    1.32    0.35
  -6   6  -4    1.63    0.22
  -6   6  -4    1.48    0.25
  -7  -6  -4   40.15    3.21
  -7   6  -4   37.22    2.74
  -8  -6  -4    0.19    0.26
  -8   6  -4    0.13    0.13
  -9  -6  -4   15.82    1.48
  -9   6  -4   13.75    1.14
 -10  -6  -4    0.74    0.37
 -10   6  -4    0.76    0.21
 -11  -6  -4    5.89    0.89
 -11   6  -4    4.43    0.53
 -12   6  -4    0.30    0.17
  14   7  -4    3.53    0.44
  13   7  -4    2.77    0.37
 -12   7   4    2.49    0.29
  12   7  -4    2.91    0.36
  11   7  -4    0.46    0.17
  11   7  -4    0.71    0.14
 -11   7   4    0.55    0.13
  10   7  -4    0.05    0.13
  10   7  -4    0.06    0.10
 -10   7   4    0.11    0.09
  -9  -7   4    1.52    0.34
   9   7  -4    1.48    0.24
  -9   7   4    1.21    0.19
   9   7  -4    1.46    0.20
  -8  -7   4   14.61    1.21
  -8   7   4   11.98    0.94
   8   7  -4   11.79    0.96
   8   7  -4   13.10    0.94
  -7  -7   4    8.08    0.91
   7   7  -4   10.89    0.75
  -7   7   4    9.75    0.75
   7   7  -4    9.74    0.76
  -6  -7   4   29.42    2.40
  -6   7   4   28.27    1.96
   6   7  -4   29.79    2.09
   6   7  -4   29.39    2.06
   6   7  -4   33.03    2.46
  -5  -7   4    6.65    0.63
  -5   7   4    5.86    0.44
   5   7  -4    6.31    0.66
   5   7  -4    6.41    0.51
   5   7  -4    6.17    0.51
  -4  -7   4    8.51    0.80
   4  -7  -4    8.98    0.77
   4   7  -4    7.78    0.83
  -4   7   4    9.63    0.64
   4   7  -4    8.35    0.68
   4   7  -4    9.31    0.69
   3  -7  -4    4.97    0.47
  -3  -7   4    4.59    0.47
   3   7  -4    4.81    0.41
   3   7  -4    5.18    0.42
  -3   7   4    4.47    0.37
   2  -7  -4    1.13    0.20
  -2  -7   4    0.81    0.16
   2   7  -4    0.95    0.16
  -2   7   4    0.88    0.14
  -1  -7   4    0.15    0.09
   1  -7  -4    0.10    0.10
   1   7  -4    0.12    0.10
  -1   7   4    0.10    0.08
   1   7  -4    0.12    0.07
   1   7  -4    0.14    0.08
   0  -7  -4    5.47    0.57
   0   7  -4    5.89    0.44
   0   7  -4    5.01    0.46
   0   7  -4    5.20    0.51
  -1  -7  -4    1.43    0.28
  -1   7  -4    1.66    0.22
  -1   7  -4    1.63    0.19
  -2  -7  -4    2.89    0.45
  -2   7  -4    3.32    0.33
  -2   7  -4    3.27    0.28
  -3  -7  -4    0.10    0.15
  -3   7  -4    0.01    0.06
  -3   7  -4   -0.05    0.08
  -4  -7  -4    0.45    0.24
  -4   7  -4    0.53    0.11
  -4   7  -4    0.68    0.16
  -5  -7  -4    7.44    0.89
  -5   7  -4    6.49    0.61
  -5   7  -4    7.69    0.57
  -6  -7  -4    4.29    0.66
  -6   7  -4    3.88    0.44
  -6   7  -4    3.94    0.36
  -7  -7  -4    0.21    0.25
  -7   7  -4    0.05    0.10
  -7   7  -4    0.16    0.13
  -8  -7  -4    4.10    0.67
  -8   7  -4    3.58    0.43
  -9  -7  -4    0.54    0.30
  -9   7  -4    0.21    0.15
 -10  -7  -4   -0.27    0.23
 -10   7  -4   -0.05    0.12
 -11  -7  -4    1.59    0.54
 -11   7  -4    1.58    0.30
  14   8  -4    0.38    0.19
  13   8  -4    0.22    0.17
 -12   8   4    0.14    0.11
  12   8  -4   -0.12    0.12
  11   8  -4    0.64    0.15
 -11   8   4    0.54    0.14
  11   8  -4    0.47    0.20
 -10   8   4    0.04    0.11
  10   8  -4   -0.03    0.12
  10   8  -4    0.26    0.11
   9   8  -4    0.40    0.16
  -9   8   4    0.58    0.14
   9   8  -4    0.38    0.12
  -8  -8   4   13.88    1.31
  -8   8   4   14.43    1.07
   8   8  -4   13.90    1.08
   8   8  -4   14.72    1.07
  -7  -8   4   -0.18    0.15
   7   8  -4    0.25    0.14
  -7   8   4    0.15    0.13
   7   8  -4    0.05    0.13
  -6  -8   4   15.76    1.44
  -6   8   4   15.68    1.23
   6   8  -4   17.68    1.24
  -6   8   4   16.34    1.13
   6   8  -4   18.54    1.25
  -5  -8   4    7.54    0.74
  -5   8   4    7.19    0.54
   5   8  -4    8.67    0.63
   5   8  -4    7.52    0.61
   4  -8  -4   21.79    1.80
  -4  -8   4   20.98    1.83
   4   8  -4   25.20    1.64
  -4   8   4   22.18    1.54
  -3  -8   4    3.24    0.37
   3  -8  -4    3.02    0.38
   3   8  -4    3.34    0.32
  -3   8   4    3.21    0.28
   3   8  -4    3.14    0.32
   2  -8  -4    4.47    0.50
  -2  -8   4    5.77    0.50
   2   8  -4    5.18    0.43
   2   8  -4    4.70    0.44
  -2   8   4    5.10    0.41
   1  -8  -4    3.18    0.42
  -1  -8   4    4.15    0.37
  -1   8   4    2.90    0.32
   1   8  -4    2.90    0.34
   1   8  -4    3.09    0.30
   0  -8  -4    0.52    0.19
   0   8  -4    0.58    0.14
   0   8   4    0.79    0.15
   0   8  -4    0.68    0.13
  -1  -8  -4    9.39    0.85
  -1   8  -4    7.83    0.63
   1   8   4    8.37    0.67
  -1   8  -4    8.57    0.69
  -2  -8  -4   11.40    1.10
  -2   8  -4   10.95    0.84
  -2   8  -4   12.97    0.92
  -3  -8  -4    0.25    0.20
  -3   8  -4    0.20    0.12
  -3   8  -4    0.13    0.08
  -4  -8  -4    1.04    0.33
  -4   8  -4    0.58    0.17
  -4   8  -4    0.70    0.14
  -5  -8  -4    1.67    0.42
  -5   8  -4    2.16    0.25
  -5   8  -4    1.64    0.27
  -6  -8  -4    3.03    0.56
  -6   8  -4    3.45    0.32
  -6   8  -4    2.97    0.39
  -7  -8  -4   14.77    1.42
  -7   8  -4   13.77    1.03
  -7   8  -4   13.40    1.10
  -8  -8  -4    4.92    0.75
  -8   8  -4    4.27    0.49
  -9  -8  -4    1.30    0.43
  -9   8  -4    1.62    0.29
 -10  -8  -4    7.88    1.01
 -10   8  -4    4.96    0.58
  10   8   4    5.09    0.60
 -11  -8  -4    1.46    0.50
  11   8   4    0.84    0.26
 -11   8  -4    0.80    0.24
  13   9  -4    0.06    0.15
 -12   9   4    0.16    0.13
  12   9  -4   -0.09    0.13
  11   9  -4   -0.19    0.08
  11   9  -4   -0.02    0.13
 -11   9   4   -0.07    0.10
  10   9  -4    3.89    0.44
  10   9  -4    3.52    0.35
 -10   9   4    3.01    0.36
   9   9  -4    1.23    0.20
   9   9  -4    0.66    0.20
  -9   9   4    0.89    0.19
   8   9  -4    6.75    0.56
   8   9  -4    6.23    0.57
  -8   9   4    6.11    0.54
  -7  -9   4    0.52    0.23
   7   9  -4    0.51    0.18
  -7   9   4    0.40    0.15
   7   9  -4    0.30    0.14
  -6  -9   4   17.12    1.61
  -6   9   4   18.31    1.28
   6   9  -4   19.56    1.39
   6   9  -4   22.47    1.41
  -6   9   4   17.32    1.39
  -5  -9   4    0.50    0.20
  -5   9   4    0.28    0.08
   5   9  -4    0.26    0.13
   5   9  -4    0.02    0.12
   4  -9  -4    5.85    0.60
  -4  -9   4    6.25    0.63
   4   9  -4    6.25    0.54
  -4   9   4    6.38    0.48
  -3  -9   4    0.52    0.17
   3  -9  -4    0.88    0.20
   3   9  -4    0.81    0.18
  -3   9   4    1.04    0.16
   3   9  -4    0.39    0.16
   2  -9  -4    0.49    0.17
  -2  -9   4    0.50    0.15
   2   9  -4    0.10    0.12
  -2   9   4    0.50    0.13
   2   9  -4    0.48    0.13
   1  -9  -4   -0.12    0.11
  -1  -9   4    0.06    0.10
  -1   9   4   -0.05    0.08
   1   9  -4   -0.10    0.07
   1   9  -4   -0.17    0.10
   0  -9  -4    1.52    0.30
   0   9  -4    1.37    0.23
   0   9   4    1.44    0.22
   0   9  -4    1.48    0.21
  -1  -9  -4    0.19    0.17
   1   9   4    0.16    0.13
  -1   9  -4    0.03    0.08
  -1   9  -4    0.13    0.12
  -2  -9  -4   16.96    1.59
   2   9   4   17.60    1.33
  -2   9  -4   17.53    1.36
  -2   9  -4   19.60    1.29
  -3  -9  -4    2.39    0.46
  -3   9  -4    1.81    0.23
   3   9   4    1.71    0.29
  -3   9  -4    1.95    0.28
  -4  -9  -4    2.61    0.49
   4   9   4    2.22    0.34
  -4   9  -4    3.11    0.28
  -4   9  -4    1.84    0.31
  -5  -9  -4    0.08    0.22
   5   9   4    0.19    0.15
  -5   9  -4    0.39    0.12
  -5   9  -4    0.05    0.13
  -6  -9  -4   -0.39    0.19
   6   9   4   -0.04    0.12
  -6   9  -4    0.09    0.13
  -6   9  -4    0.10    0.10
  -7  -9  -4    0.87    0.36
  -7   9  -4    0.28    0.13
   7   9   4    0.45    0.19
  -7   9  -4    0.27    0.16
  -8  -9  -4    2.73    0.58
   8   9   4    1.43    0.31
  -8   9  -4    1.95    0.32
  -9  -9  -4    0.65    0.36
  -9   9  -4    0.64    0.21
   9   9   4    0.25    0.19
 -10  -9  -4    0.70    0.41
  10   9   4    0.78    0.27
 -10   9  -4    0.93    0.25
  12  10  -4   -0.02    0.14
 -11  10   4    0.24    0.15
  11  10  -4    0.67    0.17
  11  10  -4    0.22    0.18
  10  10  -4    0.23    0.14
  10  10  -4    0.56    0.19
 -10  10   4    0.53    0.16
  -9  10   4    0.71    0.19
   9  10  -4    1.10    0.24
   9  10  -4    0.56    0.17
  -8  10   4    2.70    0.32
   8  10  -4    2.30    0.30
   8  10  -4    2.40    0.34
   7  10  -4    0.01    0.11
   7  10  -4   -0.12    0.11
  -7  10   4    0.14    0.13
  -6 -10   4   26.05    2.07
   6  10  -4   24.98    1.76
  -6  10   4   24.07    1.78
  -6  10   4   23.42    1.65
  -5 -10   4    1.53    0.33
  -5  10   4    1.62    0.19
   5  10  -4    1.47    0.25
   5  10  -4    1.71    0.26
  -4 -10   4   30.45    2.49
   4 -10  -4   31.29    2.47
   4  10  -4   32.44    2.18
  -4  10   4   31.04    2.11
   4  10  -4   29.32    2.22
  -3 -10   4    0.12    0.14
   3 -10  -4   -0.04    0.12
  -3  10   4    0.08    0.10
   3  10  -4   -0.11    0.10
   3  10  -4   -0.08    0.13
  -2 -10   4   12.53    1.12
   2 -10  -4   13.57    1.16
   2  10  -4   13.32    1.02
  -2  10   4   12.63    0.96
   2  10  -4   13.34    0.99
  -1 -10   4    0.35    0.16
   1 -10  -4    0.23    0.16
   1  10  -4    0.34    0.16
   1  10  -4    0.31    0.13
  -1  10   4    0.33    0.13
   0 -10  -4    4.90    0.60
   0  10  -4    4.07    0.40
   0  10   4    4.54    0.43
   0  10  -4    4.81    0.46
  -1 -10  -4   -0.11    0.14
   1  10   4   -0.05    0.11
  -1  10  -4   -0.02    0.12
  -1  10  -4   -0.04    0.08
  -2 -10  -4   12.52    1.17
  -2  10  -4   12.22    0.88
  -2  10  -4   12.33    0.96
   2  10   4   10.71    0.92
  -3 -10  -4    0.07    0.21
  -3  10  -4    0.09    0.09
   3  10   4   -0.05    0.12
  -3  10  -4    0.02    0.13
  -4 -10  -4   26.29    2.34
   4  10   4   26.33    1.95
  -4  10  -4   27.47    1.99
  -4  10  -4   27.37    1.88
  -5 -10  -4    0.08    0.23
  -5  10  -4   -0.04    0.08
  -5  10  -4    0.14    0.14
   5  10   4   -0.03    0.13
  -6 -10  -4   11.52    1.23
   6  10   4   10.90    0.93
  -6  10  -4   10.83    0.94
  -6  10  -4   11.93    0.87
  -7 -10  -4    0.24    0.27
   7  10   4    0.04    0.16
  -7  10  -4    0.12    0.15
  -7  10  -4    0.07    0.11
  -8 -10  -4   19.92    1.70
   8  10   4   14.76    1.24
  -8  10  -4   14.65    1.25
  -9 -10  -4   -0.37    0.27
  -9  10  -4   -0.09    0.13
   9  10   4   -0.01    0.16
 -11  11   4   -0.04    0.13
  11  11  -4    0.04    0.16
  11  11  -4    0.15    0.14
  10  11  -4    1.30    0.24
  10  11  -4    1.05    0.25
 -10  11   4    1.21    0.24
   9  11  -4   -0.20    0.12
  -9  11   4   -0.01    0.12
   9  11  -4    0.07    0.15
  -8  11   4    1.84    0.30
   8  11  -4    2.25    0.31
   8  11  -4    1.63    0.30
   7  11  -4    0.20    0.14
   7  11  -4    0.05    0.13
  -7  11   4   -0.04    0.11
   6  11  -4    3.77    0.44
  -6  11   4    3.80    0.44
   6  11  -4    3.78    0.43
  -5  11   4    3.07    0.41
   5  11  -4    3.60    0.41
  -5  11   4    3.47    0.31
   5  11  -4    3.78    0.42
   4 -11  -4    3.00    0.42
  -4 -11   4    3.16    0.44
   4  11  -4    2.77    0.36
   4  11  -4    2.41    0.34
  -4  11   4    2.91    0.28
  -3 -11   4    0.05    0.14
   3 -11  -4   -0.04    0.12
  -3  11   4   -0.12    0.10
   3  11  -4   -0.27    0.10
   3  11  -4   -0.22    0.12
  -2 -11   4    1.99    0.33
   2 -11  -4    2.37    0.37
   2  11  -4    1.96    0.30
  -2  11   4    2.39    0.28
   2  11  -4    1.43    0.26
  -1 -11   4    3.42    0.44
   1 -11  -4    3.04    0.44
   1  11  -4    2.75    0.38
   1  11  -4    3.29    0.37
  -1  11   4    3.24    0.37
   0 -11  -4    0.53    0.23
   0  11  -4    0.62    0.18
   0  11   4    0.57    0.16
   0  11  -4    0.82    0.17
  -1 -11  -4    6.63    0.75
  -1  11  -4    6.75    0.55
  -1  11  -4    7.09    0.62
   1  11   4    5.81    0.57
  -2 -11  -4    1.22    0.35
  -2  11  -4    1.20    0.26
  -2  11  -4    1.67    0.23
   2  11   4    1.83    0.29
  -3 -11  -4    6.06    0.79
   3  11   4    5.68    0.55
  -3  11  -4    6.19    0.50
  -3  11  -4    5.42    0.57
  -4 -11  -4   -0.09    0.24
  -4  11  -4    0.11    0.11
   4  11   4    0.18    0.16
  -4  11  -4    0.46    0.18
  -5 -11  -4    3.55    0.64
  -5  11  -4    2.97    0.41
   5  11   4    2.64    0.40
  -5  11  -4    3.29    0.35
  -6 -11  -4    0.13    0.27
  -6  11  -4    0.09    0.16
   6  11   4    0.19    0.16
  -6  11  -4    0.18    0.13
  -7 -11  -4    0.14    0.32
  -7  11  -4    0.05    0.14
   7  11   4    0.12    0.16
  -8 -11  -4    0.22    0.31
  -8  11  -4    0.42    0.20
   8  11   4    0.12    0.18
   9  12  -4    0.75    0.21
   9  12  -4    0.54    0.22
  -9  12   4    0.65    0.21
   8  12  -4    0.19    0.16
   8  12  -4    0.11    0.15
  -8  12   4    0.00    0.14
   7  12  -4    0.81    0.22
   7  12  -4    0.40    0.19
  -7  12   4    0.15    0.17
   6  12  -4    5.52    0.55
  -6  12   4    5.32    0.55
   6  12  -4    5.85    0.55
   5  12  -4    7.20    0.62
  -5  12   4    5.45    0.59
   5  12  -4    6.43    0.60
   4 -12  -4    0.39    0.19
   4  12  -4    0.72    0.20
  -4  12   4    0.21    0.16
   4  12  -4    0.22    0.16
  -4  12   4    0.09    0.10
   3 -12  -4    0.48    0.19
  -3  12   4    0.53    0.15
   3  12  -4    0.73    0.21
   3  12  -4    0.32    0.16
   2 -12  -4    0.08    0.16
  -2  12   4    0.29    0.13
   2  12  -4    0.27    0.17
   2  12  -4    0.27    0.14
   1 -12  -4    1.94    0.36
  -1  12   4    1.98    0.28
   1  12  -4    2.16    0.33
   1  12  -4    1.74    0.27
   0 -12  -4    0.38    0.21
   0  12   4    0.23    0.15
   0  12  -4    0.36    0.18
   0  12  -4    0.44    0.15
  -1 -12  -4   -0.01    0.19
  -1  12  -4   -0.05    0.09
  -1  12  -4    0.20    0.16
   1  12   4   -0.07    0.13
  -2 -12  -4    2.81    0.48
  -2  12  -4    1.87    0.32
  -2  12  -4    2.12    0.28
   2  12   4    2.80    0.36
  -3 -12  -4    2.25    0.49
  -3  12  -4    2.62    0.32
   3  12   4    3.05    0.39
  -3  12  -4    2.63    0.38
  -4 -12  -4    5.21    0.80
  -4  12  -4    5.69    0.59
   4  12   4    5.64    0.57
  -4  12  -4    6.18    0.52
  -5 -12  -4    8.16    0.99
  -5  12  -4    6.06    0.64
   5  12   4    5.79    0.61
  -5  12  -4    6.41    0.55
  -6 -12  -4    1.53    0.46
  -6  12  -4    1.33    0.29
   6  12   4    1.30    0.30
  -7 -12  -4    2.10    0.55
  -7  12  -4    2.49    0.41
   7  12   4    3.26    0.46
   8  13  -4    2.59    0.38
  -8  13   4    2.51    0.37
   8  13  -4    3.39    0.45
   7  13  -4    2.07    0.36
   7  13  -4    3.31    0.41
  -7  13   4    2.33    0.36
   6  13  -4    0.28    0.18
   6  13  -4    0.25    0.17
  -6  13   4   -0.10    0.14
   5  13  -4    1.30    0.28
   5  13  -4    1.52    0.28
  -5  13   4    1.06    0.25
   4  13  -4    2.10    0.34
  -4  13   4    2.30    0.35
   4  13  -4    1.96    0.33
   3 -13  -4    0.52    0.21
   3  13  -4    0.28    0.18
  -3  13   4    0.42    0.14
   3  13  -4    0.34    0.17
  -3  13   4    0.50    0.20
   2 -13  -4   -0.09    0.15
   2  13  -4   -0.16    0.10
  -2  13   4   -0.22    0.10
   2  13  -4   -0.15    0.13
   1 -13  -4    2.17    0.39
  -1  13   4    2.29    0.31
   1  13  -4    1.84    0.30
   1  13  -4    1.65    0.31
   0 -13  -4    1.47    0.35
   0  13  -4    1.31    0.24
   0  13   4    1.35    0.26
   0  13  -4    1.12    0.27
  -1 -13  -4    0.17    0.22
  -1  13  -4   -0.03    0.14
  -1  13  -4    0.06    0.12
   1  13   4    0.07    0.15
  -2 -13  -4    0.01    0.19
  -2  13  -4    0.03    0.17
   2  13   4   -0.10    0.15
  -2  13  -4   -0.13    0.09
  -3 -13  -4    4.81    0.71
  -3  13  -4    5.52    0.47
  -3  13  -4    4.00    0.55
   3  13   4    4.83    0.55
  -4 -13  -4    0.34    0.29
  -4  13  -4    0.19    0.13
  -4  13  -4    0.20    0.18
   4  13   4    0.28    0.19
  -5 -13  -4    0.56    0.36
  -5  13  -4    0.57    0.24
   5  13   4    0.43    0.22
   5  14  -4    6.63    0.63
   5  14  -4    6.06    0.62
  -5  14   4    5.98    0.62
   4  14  -4    0.12    0.16
  -4  14   4    0.12    0.16
   4  14  -4    0.27    0.19
   3 -14  -4    2.41    0.39
   3  14  -4    1.83    0.32
   3  14  -4    1.44    0.28
  -3  14   4    1.20    0.28
   2 -14  -4   -0.22    0.14
   2  14  -4   -0.03    0.15
  -2  14   4    0.14    0.13
   2  14  -4    0.01    0.13
  -2  14   4    0.12    0.16
   1 -14  -4    0.64    0.24
  -1  14   4    0.77    0.20
   1  14  -4    0.03    0.16
   1  14  -4    0.76    0.21
   0 -14  -4    2.17    0.42
   0  14  -4    2.06    0.30
   0  14  -4    1.13    0.29
   0  14   4    1.79    0.29
  -1 -14  -4    0.87    0.31
  -1  14  -4    1.11    0.22
   1  14   4    1.10    0.26
  -1  14  -4    0.99    0.27
  -2 -14  -4    0.08    0.23
  -2  14  -4   -0.22    0.14
  -2  14  -4    0.04    0.12
   2  14   4    0.06    0.14
  14   0  -5   -0.12    0.07
  13   0  -5    3.09    0.28
  12   0  -5   -0.22    0.06
 -11   0   5   -0.16    0.10
  11   0  -5   -0.01    0.05
 -10   0   5   -0.01    0.11
  10   0  -5   -0.07    0.05
   9   0  -5   84.24    5.77
  -9   0   5   90.30    6.65
   8   0  -5   -0.07    0.04
  -8   0   5    0.08    0.09
  -7   0   5   21.83    1.75
   7   0  -5   19.61    1.48
  -7   0   5   24.83    1.50
  -6   0   5    0.04    0.04
  -6   0   5   -0.05    0.06
   6   0  -5    0.00    0.03
  -5   0   5   61.02    4.80
  -5   0   5   70.25    4.33
   5   0  -5   67.23    4.34
  -5   0   5   55.69    4.21
  -4   0   5   -0.05    0.03
  -4   0   5   -0.03    0.03
   4   0  -5   -0.03    0.03
  -4   0   5   -0.02    0.04
   4   0  -5   -0.04    0.05
   4   0  -5    0.06    0.06
   3   0  -5   30.82    2.30
  -3   0   5   33.80    2.13
  -3   0   5   31.35    2.04
   3   0  -5   30.02    2.13
   3   0  -5   27.10    2.05
   2   0  -5   -0.07    0.06
  -2   0   5   -0.09    0.05
   2   0  -5   -0.14    0.03
  -2   0   5   -0.09    0.03
   1   0  -5  114.86    8.65
  -1   0   5  140.61    8.39
  -1   0   5  126.33    8.65
   1   0  -5  124.54    8.39
   0   0  -5    0.23    0.09
   0   0  -5    0.14    0.06
  -1   0  -5    0.47    0.12
  -1   0  -5    0.33    0.09
  -2   0  -5   -0.04    0.07
  -3   0  -5   11.88    0.93
  -4   0  -5   -0.02    0.08
  -5   0  -5   23.09    1.71
  -6   0  -5   -0.02    0.09
  -7   0  -5   74.08    5.18
  -8   0  -5    0.21    0.14
  -9   0  -5    7.21    0.68
 -10   0  -5    0.10    0.13
 -11   0  -5    5.52    0.58
 -11   0  -5    6.05    0.80
 -12   0  -5    0.04    0.14
 -12   0  -5    0.14    0.24
  15   1  -5    0.40    0.12
  14   1  -5    2.86    0.29
  13  -1  -5    3.25    0.27
  13   1  -5    2.81    0.29
  12  -1  -5    0.18    0.07
  12   1  -5    0.23    0.09
  11  -1  -5    0.08    0.06
 -11  -1   5    0.37    0.17
 -11   1   5    0.12    0.14
  11   1  -5   -0.03    0.06
  10  -1  -5   10.78    0.77
 -10  -1   5   10.93    1.00
  10   1  -5   11.13    0.80
 -10   1   5   12.02    1.01
  -9  -1   5    7.80    0.68
   9  -1  -5    6.72    0.49
   9   1  -5    6.34    0.50
  -9   1   5    7.07    0.66
   8  -1  -5   -0.02    0.04
  -8  -1   5    0.04    0.09
   8   1  -5    0.00    0.05
  -8   1   5   -0.05    0.07
  -7  -1   5    7.24    0.65
   7  -1  -5    6.95    0.50
   7   1  -5    6.19    0.52
  -7   1   5    8.18    0.52
  -7   1   5    6.84    0.64
  -7   1   5    7.64    0.51
  -6  -1   5    1.15    0.09
   6  -1  -5    1.29    0.11
  -6  -1   5    1.22    0.18
   6   1  -5    1.61    0.23
   6   1  -5    1.00    0.11
  -6   1   5    1.04    0.10
   6   1  -5    1.12    0.13
  -6   1   5    1.08    0.17
  -6   1   5    1.15    0.12
  -5  -1   5    2.40    0.18
   5  -1  -5    2.32    0.18
  -5  -1   5    2.55    0.24
   5   1  -5    2.46    0.26
   5   1  -5    2.13    0.19
   5   1  -5    2.00    0.19
  -5   1   5    2.74    0.20
  -5   1   5    1.97    0.17
  -5   1   5    2.39    0.23
   4  -1  -5   82.00    5.58
  -4  -1   5   84.09    5.58
  -4  -1   5   91.64    5.74
  -4  -1   5   80.44    6.32
   4   1  -5   86.92    6.36
   4   1  -5   81.80    5.75
  -4   1   5   91.56    5.76
  -4   1   5   83.13    5.57
  -4   1   5   84.30    6.31
   4   1  -5   77.60    5.58
  -3  -1   5  512.54   31.63
   3  -1  -5  455.90   31.65
  -3  -1   5  472.99   30.74
  -3   1   5  484.43   30.73
   3   1  -5  453.65   30.74
  -3   1   5  460.68   31.64
   3   1  -5  394.68   31.63
   3   1  -5  497.56   34.88
  -2  -1   5    9.86    0.67
  -2  -1   5    9.56    0.63
   2  -1  -5    7.98    0.69
   2  -1  -5    8.55    0.64
   2   1  -5    8.54    0.69
  -2   1   5    9.72    0.63
   2   1  -5    9.30    0.64
   2   1  -5    9.01    0.68
  -2   1   5    8.59    0.68
   1  -1  -5   60.80    4.74
   1  -1  -5   71.38    4.59
   1   1  -5   67.89    4.73
   1   1  -5   64.56    4.57
  -1   1   5   78.83    4.58
   0  -1  -5   33.56    2.52
   0   1  -5   39.48    2.42
   0   1  -5   33.95    2.50
  -1  -1  -5    5.82    0.48
  -1   1  -5    5.09    0.45
  -1   1  -5    5.47    0.42
  -2  -1  -5    6.41    0.56
  -2   1  -5    6.54    0.55
  -2   1  -5    6.67    0.51
  -3  -1  -5    6.84    0.58
  -3   1  -5    6.17    0.55
  -4  -1  -5    0.90    0.18
  -4   1  -5    0.56    0.15
  -5  -1  -5   25.57    1.91
  -5   1  -5   26.48    1.91
  -6  -1  -5   10.42    0.82
  -6   1  -5    8.89    0.79
  -7  -1  -5   27.49    2.04
  -7   1  -5   27.50    2.03
  -8  -1  -5    0.12    0.17
  -8  -1  -5    0.02    0.11
  -8   1  -5   -0.01    0.11
  -9  -1  -5    1.16    0.35
  -9  -1  -5    1.54    0.29
  -9   1  -5    1.04    0.26
 -10  -1  -5   -0.08    0.11
 -10  -1  -5    0.12    0.22
 -10   1  -5    0.09    0.13
 -11  -1  -5    0.20    0.26
 -11  -1  -5    0.32    0.20
 -11   1  -5    0.39    0.19
 -12  -1  -5    0.07    0.23
 -12   1  -5    0.55    0.21
  16   2  -5    0.26    0.13
  15   2  -5    2.99    0.33
  14   2  -5    3.57    0.35
  13   2  -5   14.69    1.07
  12  -2  -5    2.81    0.23
  12   2  -5    3.04    0.31
 -11  -2   5    0.03    0.13
  11  -2  -5    0.09    0.05
  11   2  -5    0.12    0.09
 -11   2   5    0.14    0.14
  10  -2  -5    3.15    0.25
 -10  -2   5    3.36    0.44
  10   2  -5    3.50    0.30
  -9  -2   5    9.30    0.82
   9  -2  -5    8.82    0.59
  -9   2   5    8.24    0.61
  -9   2   5    8.70    0.60
   9   2  -5    8.16    0.63
  -8  -2   5   -0.03    0.09
   8  -2  -5    0.03    0.03
   8   2  -5    0.00    0.11
  -8   2   5    0.09    0.03
   8   2  -5    0.04    0.06
  -8   2   5    0.09    0.05
   8   2  -5    0.07    0.03
   7  -2  -5   14.46    1.03
  -7  -2   5   15.93    1.27
   7   2  -5   15.68    1.07
   7   2  -5   15.70    1.06
  -7   2   5   14.62    1.08
   7   2  -5   16.45    1.31
   6  -2  -5   40.47    2.76
  -6  -2   5   38.17    3.20
   6   2  -5   42.60    3.24
  -6   2   5   42.95    2.76
   6   2  -5   43.63    2.80
  -6   2   5   41.19    2.86
   6   2  -5   42.15    2.85
  -5  -2   5   48.77    3.73
   5  -2  -5   43.43    3.25
  -5  -2   5   52.78    3.34
  -5   2   5   48.21    3.37
   5   2  -5   49.49    3.35
   5   2  -5   50.59    3.77
  -5   2   5   48.17    3.24
   5   2  -5   51.20    3.28
   4  -2  -5   10.93    0.81
  -4  -2   5   12.86    0.84
  -4  -2   5   10.67    0.93
   4   2  -5   11.44    0.82
   4   2  -5   12.12    0.97
  -4   2   5   12.47    0.87
  -4   2   5   12.14    0.80
   4   2  -5   12.29    0.85
   3  -2  -5    1.61    0.14
  -3  -2   5    1.56    0.15
  -3  -2   5    1.65    0.14
  -3   2   5    1.61    0.13
  -3   2   5    1.44    0.18
   3   2  -5    1.53    0.14
   3   2  -5    1.37    0.17
   3   2  -5    1.08    0.15
   2   2  -5   47.38    3.29
  -2   2   5   50.27    3.30
   2   2  -5   48.58    3.72
   2   2  -5   51.65    3.41
   1  -2  -5    1.91    0.21
   1  -2  -5    1.60    0.23
  -1   2   5    2.23    0.19
   1   2  -5    2.35    0.21
   1   2  -5    1.85    0.18
   0  -2  -5   17.17    1.52
   0  -2  -5   21.17    1.43
   0   2  -5   19.59    1.39
   0   2  -5   20.01    1.33
  -1  -2  -5   19.08    1.43
  -1  -2  -5   18.17    1.54
  -1   2  -5   20.96    1.34
  -1   2  -5   19.05    1.40
  -2  -2  -5    6.84    0.58
  -2  -2  -5    6.25    0.62
  -2   2  -5    7.36    0.56
  -2   2  -5    6.47    0.51
  -3  -2  -5    5.02    0.56
  -3  -2  -5    4.98    0.50
  -3   2  -5    6.03    0.50
  -3   2  -5    6.08    0.45
  -4  -2  -5    0.02    0.09
  -4  -2  -5    0.19    0.10
  -4   2  -5    0.06    0.08
  -5  -2  -5    1.42    0.29
  -5  -2  -5    0.99    0.21
  -5   2  -5    1.16    0.21
  -6  -2  -5    1.79    0.29
  -6  -2  -5    1.95    0.35
  -6   2  -5    1.97    0.29
  -7  -2  -5    5.06    0.67
  -7  -2  -5    5.01    0.55
  -7   2  -5    4.75    0.52
  -8  -2  -5    0.04    0.13
  -8  -2  -5    0.15    0.18
  -8   2  -5   -0.14    0.10
  -9  -2  -5   17.05    1.37
  -9  -2  -5   18.76    1.64
  -9   2  -5   16.94    1.36
 -10  -2  -5    0.15    0.22
 -10   2  -5    0.07    0.13
 -11  -2  -5    1.07    0.37
 -11   2  -5    1.05    0.25
 -12  -2  -5   -0.05    0.23
 -12   2  -5   -0.09    0.13
  16   3  -5    3.00    0.35
  15   3  -5    0.45    0.15
  14   3  -5    0.02    0.10
  13   3  -5    9.57    0.74
  12   3  -5    8.49    0.67
  11  -3  -5    0.40    0.05
 -11  -3   5    0.26    0.19
  11   3  -5    0.31    0.12
 -11   3   5    0.51    0.08
 -10  -3   5    0.13    0.15
  10   3  -5    0.16    0.04
 -10   3   5    0.08    0.04
  10   3  -5    0.10    0.09
  10   3  -5    0.15    0.07
  -9  -3   5   -0.08    0.11
   9   3  -5    0.04    0.07
   9   3  -5    0.04    0.04
   9   3  -5    0.02    0.12
  -9   3   5   -0.04    0.04
  -8  -3   5    1.01    0.21
   8   3  -5    0.89    0.23
   8   3  -5    1.10    0.15
  -8   3   5    0.78    0.10
   8   3  -5    1.01    0.10
  -7  -3   5   10.52    0.84
   7   3  -5    9.08    0.66
   7   3  -5    8.84    0.68
   7   3  -5    8.89    0.85
  -6  -3   5    1.04    0.19
   6   3  -5    1.04    0.21
   6   3  -5    0.95    0.12
   6   3  -5    1.25    0.15
  -5  -3   5   33.27    2.53
  -5   3   5   32.10    2.16
   5   3  -5   34.04    2.22
   5   3  -5   30.94    2.25
   5   3  -5   33.76    2.56
  -4  -3   5   24.17    1.45
  -4  -3   5   20.38    1.60
   4   3  -5   17.66    1.43
  -4   3   5   20.78    1.38
   4   3  -5   20.97    1.41
   4   3  -5   19.56    1.63
   3  -3  -5   38.22    3.25
  -3  -3   5   45.13    3.25
   3   3  -5   40.45    2.96
  -3   3   5   45.17    2.87
   3   3  -5   46.07    3.29
   3   3  -5   43.28    2.88
   2  -3  -5    0.12    0.06
   2   3  -5    0.01    0.04
   2   3  -5    0.06    0.05
   2   3  -5    0.02    0.04
  -2   3   5   -0.02    0.04
   1  -3  -5    1.48    0.20
   1   3  -5    1.42    0.16
   1   3  -5    1.53    0.15
   1   3  -5    1.47    0.18
   0  -3  -5    8.74    0.79
   0   3  -5    8.74    0.70
   0   3  -5   10.17    0.67
  -1  -3  -5    3.13    0.37
  -1   3  -5    3.70    0.29
  -1   3  -5    3.23    0.31
  -2  -3  -5    2.15    0.32
  -2   3  -5    3.24    0.30
  -2   3  -5    2.66    0.24
  -3  -3  -5   15.72    1.24
  -3   3  -5   13.64    1.07
  -3   3  -5   13.70    1.01
  -4  -3  -5    4.30    0.52
  -4   3  -5    3.79    0.38
  -4   3  -5    3.95    0.35
  -5  -3  -5    7.30    0.76
  -5   3  -5    7.60    0.64
  -6  -3  -5    2.07    0.39
  -6   3  -5    2.04    0.28
  -7  -3  -5    3.96    0.58
  -7   3  -5    2.95    0.39
  -8  -3  -5    2.84    0.53
  -8   3  -5    2.79    0.38
  -9  -3  -5    5.33    0.75
  -9   3  -5    4.97    0.52
 -10  -3  -5   -0.10    0.19
 -10   3  -5    0.15    0.14
 -11  -3  -5    0.58    0.33
 -11   3  -5    0.90    0.23
 -12  -3  -5    0.08    0.27
 -12   3  -5    0.54    0.21
  16   4  -5    3.20    0.38
  15   4  -5    0.40    0.15
  14   4  -5    3.28    0.37
  13   4  -5   -0.08    0.10
  12   4  -5    0.83    0.18
 -11  -4   5   21.84    1.72
 -11   4   5   18.82    1.36
  11   4  -5   19.17    1.34
  11   4  -5   19.15    1.39
 -10  -4   5    0.91    0.26
  10   4  -5    1.25    0.32
 -10   4   5    0.98    0.12
  10   4  -5    0.97    0.11
  10   4  -5    1.06    0.18
  -9  -4   5   -0.02    0.12
   9   4  -5    0.09    0.05
   9   4  -5    0.17    0.09
   9   4  -5    0.08    0.15
  -9   4   5    0.06    0.05
  -8  -4   5    3.80    0.48
   8   4  -5    3.89    0.34
  -8   4   5    3.91    0.31
   8   4  -5    3.84    0.30
   8   4  -5    3.58    0.51
  -7  -4   5   10.28    0.92
   7   4  -5   10.50    0.77
   7   4  -5   10.62    0.96
   7   4  -5   10.44    0.75
  -6  -4   5    1.30    0.22
   6   4  -5    1.41    0.26
   6   4  -5    1.11    0.17
   6   4  -5    1.58    0.15
  -5  -4   5    3.94    0.41
   5   4  -5    3.98    0.34
   5   4  -5    4.00    0.33
   5   4  -5    4.41    0.45
  -5   4   5    4.37    0.29
   4  -4  -5   42.04    3.74
  -4  -4   5   47.30    3.77
   4   4  -5   50.29    3.40
  -4   4   5   51.12    3.29
   4   4  -5   54.04    3.82
   4   4  -5   53.02    3.33
  -3  -4   5    5.88    0.45
   3  -4  -5    4.80    0.45
   3   4  -5    4.95    0.41
   3   4  -5    5.03    0.48
   3   4  -5    5.20    0.40
  -2  -4   5   36.61    2.76
   2   4  -5   35.23    2.78
   2   4  -5   37.31    2.52
   2   4  -5   36.05    2.45
   1  -4  -5   15.17    1.24
   1   4  -5   14.61    1.20
   1   4  -5   15.44    1.06
   1   4  -5   15.89    1.11
   0  -4  -5    0.50    0.15
   0   4  -5    0.41    0.09
   0   4  -5    0.44    0.09
   0   4  -5    0.49    0.11
  -1  -4  -5   34.88    2.88
  -1   4  -5   35.56    2.57
  -1   4  -5   38.84    2.47
  -2  -4  -5    1.29    0.26
  -2   4  -5    1.88    0.23
  -2   4  -5    1.64    0.19
  -3  -4  -5    6.12    0.63
  -3   4  -5    5.98    0.47
  -3   4  -5    5.83    0.51
  -4  -4  -5    5.37    0.59
  -4   4  -5    5.02    0.42
  -4   4  -5    5.07    0.46
  -5  -4  -5    0.47    0.20
  -5   4  -5    0.77    0.14
  -5   4  -5    0.79    0.17
  -6  -4  -5    3.23    0.48
  -6   4  -5    2.22    0.31
  -7  -4  -5    7.09    0.87
  -7   4  -5    7.00    0.64
  -8  -4  -5   14.96    1.35
  -8   4  -5   12.53    1.06
  -9  -4  -5    4.63    0.71
  -9   4  -5    3.72    0.46
 -10  -4  -5    9.53    1.12
 -10   4  -5    8.06    0.75
 -11  -4  -5    0.69    0.35
 -11   4  -5    1.02    0.25
 -12  -4  -5    2.60    0.59
 -12   4  -5    2.20    0.37
  15   5  -5    0.57    0.18
  14   5  -5    1.48    0.25
  13   5  -5   -0.24    0.08
  12   5  -5   -0.04    0.11
  11   5  -5    2.34    0.29
 -11   5   5    2.41    0.23
  11   5  -5    2.49    0.22
 -10  -5   5   12.61    1.18
 -10   5   5   13.74    0.93
  10   5  -5   12.83    0.92
  10   5  -5   11.82    0.96
  -9  -5   5    1.17    0.26
   9   5  -5    0.74    0.16
  -9   5   5    0.65    0.11
   9   5  -5    1.02    0.28
   9   5  -5    0.70    0.11
  -8  -5   5   14.35    1.23
   8   5  -5   14.20    1.00
  -8   5   5   13.35    1.00
   8   5  -5   13.43    1.01
   8   5  -5   15.23    1.28
  -7  -5   5   27.05    2.01
   7   5  -5   21.90    1.71
   7   5  -5   25.63    2.04
   7   5  -5   25.50    1.72
  -6  -5   5   38.23    2.92
   6   5  -5   36.62    2.57
   6   5  -5   35.93    2.53
   6   5  -5   38.62    2.97
  -5  -5   5   -0.02    0.07
   5   5  -5    0.10    0.07
  -5   5   5    0.09    0.04
   5   5  -5    0.15    0.08
   5   5  -5    0.24    0.14
  -5   5   5    0.11    0.04
   4  -5  -5  113.63    9.30
  -4  -5   5  124.10    9.33
   4   5  -5  126.34    9.38
   4   5  -5  127.00    8.22
   4   5  -5  127.68    8.43
   3  -5  -5    1.21    0.18
  -3  -5   5    1.41    0.18
   3   5  -5    1.06    0.15
   3   5  -5    1.20    0.16
   3   5  -5    1.06    0.20
   2  -5  -5   -0.05    0.06
  -2  -5   5   -0.01    0.05
   2   5  -5    0.03    0.06
   2   5  -5    0.07    0.06
   2   5  -5   -0.04    0.06
   1  -5  -5    4.55    0.46
   1   5  -5    4.79    0.37
   1   5  -5    4.84    0.43
   1   5  -5    4.33    0.39
   0  -5  -5   21.58    2.00
   0   5  -5   25.16    1.79
   0   5  -5   26.87    1.95
   0   5  -5   26.12    1.72
  -1  -5  -5    0.04    0.10
  -1   5  -5    0.05    0.07
  -1   5  -5    0.06    0.05
  -1   5  -5    0.01    0.05
  -2  -5  -5    2.32    0.38
  -2   5  -5    3.15    0.26
  -2   5  -5    2.52    0.30
  -3  -5  -5    0.10    0.14
  -3   5  -5    0.30    0.11
  -3   5  -5    0.19    0.08
  -4  -5  -5    0.50    0.21
  -4   5  -5    0.48    0.10
  -4   5  -5    0.47    0.14
  -5  -5  -5    2.76    0.45
  -5   5  -5    1.75    0.27
  -5   5  -5    2.23    0.26
  -6  -5  -5   11.50    1.11
  -6   5  -5    9.43    0.87
  -6   5  -5   12.12    0.84
  -7  -5  -5    1.08    0.34
  -7   5  -5    0.61    0.19
  -8  -5  -5    1.11    0.36
  -8   5  -5    1.36    0.25
  -9  -5  -5    1.09    0.37
  -9   5  -5    1.18    0.24
 -10  -5  -5    2.72    0.60
 -10   5  -5    2.32    0.36
 -11  -5  -5    0.71    0.35
 -11   5  -5    0.17    0.15
 -12  -5  -5   -0.12    0.28
 -12   5  -5   -0.01    0.15
  15   6  -5    0.32    0.16
  14   6  -5    8.58    0.73
  13   6  -5    0.16    0.14
 -12   6   5    3.19    0.32
  12   6  -5    3.35    0.39
  11   6  -5    0.25    0.16
  11   6  -5    0.24    0.10
 -11   6   5    0.36    0.10
 -10  -6   5   29.74    2.39
  10   6  -5   28.78    1.95
 -10   6   5   26.48    1.93
  10   6  -5   26.93    1.93
  -9  -6   5   22.17    1.79
   9   6  -5   18.85    1.49
   9   6  -5   22.08    1.48
  -9   6   5   20.57    1.48
  -8  -6   5    0.34    0.18
   8   6  -5    0.90    0.25
   8   6  -5    0.40    0.13
  -8   6   5    0.18    0.10
   8   6  -5    0.52    0.11
  -7  -6   5    0.91    0.22
   7   6  -5    0.81    0.16
   7   6  -5    0.64    0.23
   7   6  -5    0.50    0.12
  -6  -6   5    0.18    0.12
   6   6  -5    0.09    0.08
   6   6  -5    0.02    0.14
   6   6  -5    0.17    0.07
  -5  -6   5    0.13    0.10
   5   6  -5    0.07    0.07
   5   6  -5   -0.01    0.12
   5   6  -5   -0.06    0.07
  -5   6   5    0.01    0.04
  -4  -6   5   37.02    2.71
   4  -6  -5   31.93    2.67
   4   6  -5   38.15    2.76
   4   6  -5   33.38    2.42
   4   6  -5   33.15    2.37
  -4   6   5   35.53    2.33
   3  -6  -5    4.30    0.42
  -3  -6   5    4.29    0.42
   3   6  -5    4.60    0.38
   3   6  -5    4.24    0.46
   3   6  -5    4.56    0.38
   2  -6  -5    0.00    0.08
  -2  -6   5    0.09    0.07
   2   6  -5    0.12    0.10
   2   6  -5    0.19    0.09
   2   6  -5    0.08    0.06
   1  -6  -5    0.80    0.18
   1   6  -5    0.92    0.15
   1   6  -5    0.91    0.14
   1   6  -5    1.16    0.19
   0  -6  -5    4.83    0.54
   0   6  -5    5.29    0.46
   0   6  -5    5.28    0.49
   0   6  -5    5.81    0.43
  -1  -6  -5    0.02    0.12
  -1   6  -5    0.29    0.09
  -1   6  -5    0.37    0.09
  -1   6  -5    0.39    0.11
  -2  -6  -5    0.28    0.16
  -2   6  -5    0.40    0.11
  -2   6  -5    0.28    0.09
  -2   6  -5    0.32    0.11
  -3  -6  -5    0.99    0.27
  -3   6  -5    1.06    0.15
  -3   6  -5    1.15    0.18
  -3   6  -5    0.97    0.18
  -4  -6  -5    0.01    0.15
  -4   6  -5    0.13    0.10
  -4   6  -5    0.00    0.06
  -5  -6  -5    1.62    0.37
  -5   6  -5    1.26    0.23
  -5   6  -5    1.30    0.19
  -6  -6  -5    4.84    0.72
  -6   6  -5    5.24    0.46
  -6   6  -5    5.54    0.52
  -7  -6  -5    1.17    0.38
  -7   6  -5    1.20    0.25
  -8  -6  -5    2.21    0.50
  -8   6  -5    1.44    0.27
  -9  -6  -5   -0.02    0.23
  -9   6  -5    0.14    0.16
 -10  -6  -5    4.63    0.78
 -10   6  -5    5.15    0.57
 -11  -6  -5    0.01    0.28
 -11   6  -5   -0.04    0.14
  14   7  -5    3.16    0.40
  13   7  -5    5.42    0.52
 -12   7   5    1.12    0.18
  12   7  -5    1.21    0.24
 -11   7   5   -0.06    0.08
  11   7  -5   -0.23    0.10
  11   7  -5   -0.07    0.08
  10   7  -5    0.06    0.13
  10   7  -5    0.03    0.09
 -10   7   5    0.01    0.08
  -9  -7   5    7.60    0.79
  -9   7   5    6.94    0.59
   9   7  -5    7.30    0.58
   9   7  -5    8.49    0.64
  -8  -7   5   11.94    1.13
   8   7  -5   12.62    0.92
  -8   7   5   12.17    0.93
   8   7  -5   12.92    0.95
  -7  -7   5    9.36    0.99
   7   7  -5   12.74    1.11
   7   7  -5   11.09    0.84
   7   7  -5   11.96    0.87
  -6  -7   5   21.86    1.71
   6   7  -5   22.67    1.78
   6   7  -5   20.96    1.48
  -6   7   5   19.03    1.37
  -5  -7   5   34.74    2.66
   5   7  -5   34.08    2.36
   5   7  -5   35.79    2.33
   5   7  -5   32.94    2.71
  -5   7   5   31.44    2.25
   4  -7  -5   11.79    1.02
  -4  -7   5   11.50    1.03
   4   7  -5   13.18    0.92
  -4   7   5   12.28    0.86
   4   7  -5   12.50    0.92
   3  -7  -5   14.54    1.31
  -3  -7   5   15.01    1.30
   3   7  -5   17.49    1.19
  -3   7   5   15.49    1.13
   3   7  -5   16.60    1.16
   3   7  -5   18.74    1.39
  -2  -7   5   18.83    1.40
   2  -7  -5   16.94    1.42
   2   7  -5   16.45    1.26
   2   7  -5   16.31    1.43
   2   7  -5   17.80    1.23
   1  -7  -5   -0.02    0.10
   1   7  -5   -0.11    0.07
   1   7  -5    0.01    0.08
   1   7  -5    0.15    0.08
   0  -7  -5   28.26    2.16
   0   7  -5   23.94    2.08
   0   7  -5   26.38    1.82
   0   7  -5   27.69    1.90
  -1  -7  -5    0.64    0.21
  -1   7  -5    0.67    0.14
  -1   7  -5    0.52    0.14
  -1   7  -5    0.58    0.12
  -2  -7  -5    0.33    0.19
  -2   7  -5    0.29    0.09
  -2   7  -5    0.46    0.13
  -3  -7  -5    1.41    0.33
  -3   7  -5    1.64    0.20
  -3   7  -5    1.21    0.21
  -4  -7  -5    1.70    0.40
  -4   7  -5    2.63    0.33
  -4   7  -5    2.76    0.28
  -5  -7  -5   20.08    1.85
  -5   7  -5   20.67    1.55
  -5   7  -5   20.92    1.47
  -6  -7  -5    5.56    0.80
  -6   7  -5    6.02    0.57
  -6   7  -5    5.99    0.51
  -7  -7  -5    2.03    0.47
  -7   7  -5    1.78    0.31
  -7   7  -5    2.24    0.28
  -8  -7  -5    8.21    1.01
  -8   7  -5    7.36    0.70
  -9  -7  -5    5.79    0.83
  -9   7  -5    4.42    0.53
 -10  -7  -5    3.10    0.65
 -10   7  -5    1.69    0.32
 -11  -7  -5    0.44    0.34
 -11   7  -5    0.13    0.16
  14   8  -5    0.82    0.24
  13   8  -5    0.08    0.15
 -12   8   5   -0.15    0.09
  12   8  -5   -0.24    0.11
 -11   8   5    1.01    0.18
  11   8  -5    0.66    0.20
  11   8  -5    1.03    0.17
  10   8  -5   -0.05    0.08
 -10   8   5   -0.04    0.09
  10   8  -5    0.03    0.12
   9   8  -5   -0.11    0.10
  -9   8   5   -0.06    0.08
   9   8  -5   -0.08    0.07
  -8  -8   5    3.71    0.53
  -8   8   5    3.57    0.36
   8   8  -5    3.87    0.43
   8   8  -5    3.99    0.36
  -7  -8   5    3.97    0.52
   7   8  -5    4.12    0.37
  -7   8   5    3.38    0.39
  -6  -8   5    1.84    0.31
  -6   8   5    1.51    0.14
   6   8  -5    1.63    0.22
   6   8  -5    1.27    0.23
  -5  -8   5    2.26    0.32
   5   8  -5    1.49    0.23
   5   8  -5    1.91    0.24
   5   8  -5    2.18    0.38
  -5   8   5    1.73    0.17
   4  -8  -5    2.87    0.35
  -4  -8   5    3.37    0.35
   4   8  -5    2.55    0.30
   4   8  -5    2.29    0.29
   4   8  -5    3.03    0.44
  -4   8   5    2.28    0.23
   3  -8  -5    3.06    0.40
  -3  -8   5    3.54    0.37
   3   8  -5    3.70    0.33
  -3   8   5    3.04    0.29
   3   8  -5    3.83    0.48
   3   8  -5    3.26    0.33
  -2  -8   5   12.33    1.04
   2  -8  -5   12.86    1.08
   2   8  -5   12.89    0.92
  -2   8   5   12.96    0.92
   2   8  -5   10.79    1.07
   2   8  -5   12.80    0.96
   1  -8  -5    1.47    0.27
  -1  -8   5    1.63    0.24
  -1   8   5    2.06    0.24
   1   8  -5    1.52    0.23
   1   8  -5    1.47    0.21
   0  -8  -5    3.71    0.51
   0   8  -5    4.57    0.38
   0   8  -5    4.12    0.40
  -1  -8  -5    5.73    0.70
  -1   8  -5    5.30    0.51
  -1   8  -5    6.23    0.47
  -2  -8  -5    4.13    0.57
  -2   8  -5    3.79    0.39
  -2   8  -5    3.72    0.34
  -3  -8  -5    0.07    0.20
  -3   8  -5    0.15    0.11
  -3   8  -5    0.21    0.09
  -4  -8  -5    1.52    0.38
  -4   8  -5    1.29    0.19
  -4   8  -5    0.75    0.20
  -5  -8  -5    8.57    0.97
  -5   8  -5    7.57    0.73
  -5   8  -5    9.58    0.69
  -6  -8  -5    1.94    0.44
  -6   8  -5    1.57    0.28
  -6   8  -5    2.21    0.28
  -7  -8  -5    0.57    0.32
  -7   8  -5    1.12    0.20
  -7   8  -5    0.63    0.21
  -8  -8  -5    3.33    0.64
  -8   8  -5    3.35    0.44
  -9  -8  -5    4.10    0.74
  -9   8  -5    5.10    0.56
 -10  -8  -5    5.33    0.84
 -10   8  -5    2.74    0.43
  13   9  -5    0.25    0.17
  12   9  -5    0.15    0.15
  11   9  -5    0.21    0.11
 -11   9   5    0.22    0.12
  11   9  -5   -0.06    0.12
  10   9  -5   -0.11    0.08
  10   9  -5   -0.07    0.13
 -10   9   5   -0.12    0.10
  -9   9   5   -0.04    0.09
   9   9  -5    0.15    0.11
   9   9  -5    0.13    0.13
   8   9  -5   -0.01    0.12
  -8   9   5   -0.06    0.10
   8   9  -5   -0.09    0.10
  -7  -9   5   23.42    2.01
   7   9  -5   22.59    1.68
   7   9  -5   23.11    1.69
  -7   9   5   24.28    1.71
  -6  -9   5    0.16    0.16
  -6   9   5   -0.05    0.06
   6   9  -5   -0.09    0.10
   6   9  -5    0.06    0.12
  -5  -9   5   18.32    1.71
   5   9  -5   22.78    1.51
   5   9  -5   22.78    1.53
  -5   9   5   19.77    1.42
   4  -9  -5   15.00    1.21
  -4  -9   5   14.29    1.21
   4   9  -5   14.28    1.07
  -4   9   5   13.59    0.99
   4   9  -5   13.39    1.05
  -3  -9   5   73.00    5.32
   3  -9  -5   66.21    5.32
   3   9  -5   72.48    4.68
   3   9  -5   62.91    4.80
  -3   9   5   71.78    4.64
   2  -9  -5    4.86    0.54
  -2  -9   5    4.86    0.51
   2   9  -5    3.99    0.43
   2   9  -5    5.93    0.48
  -2   9   5    5.63    0.44
  -1  -9   5   38.88    3.06
   1  -9  -5   41.93    3.13
  -1   9   5   37.21    2.69
   1   9  -5   39.80    2.79
   1   9  -5   38.96    2.69
   0  -9  -5    7.63    0.77
   0   9  -5    7.50    0.65
   0   9   5    7.43    0.62
   0   9  -5    7.62    0.60
  -1  -9  -5    0.01    0.16
  -1   9  -5    0.06    0.09
   1   9   5    0.09    0.12
  -1   9  -5   -0.02    0.12
  -2  -9  -5   10.93    1.14
  -2   9  -5   11.93    0.96
  -2   9  -5   12.66    0.90
  -3  -9  -5    1.03    0.31
  -3   9  -5    1.06    0.18
  -3   9  -5    0.90    0.21
  -4  -9  -5    3.58    0.61
  -4   9  -5    4.01    0.38
  -4   9  -5    4.49    0.49
  -5  -9  -5    5.92    0.79
  -5   9  -5    3.94    0.47
  -5   9  -5    3.99    0.39
  -6  -9  -5    5.31    0.80
  -6   9  -5    5.40    0.57
  -6   9  -5    6.47    0.53
  -7  -9  -5    6.93    0.99
  -7   9  -5    9.38    0.67
  -7   9  -5    6.49    0.70
  -8  -9  -5    3.61    0.66
  -8   9  -5    2.51    0.39
  -9  -9  -5    3.79    0.70
   9   9   5    3.03    0.45
  -9   9  -5    3.88    0.48
  12  10  -5    0.63    0.23
 -11  10   5   -0.06    0.11
  11  10  -5    0.05    0.11
  11  10  -5   -0.01    0.14
  10  10  -5    1.36    0.27
  10  10  -5    1.46    0.24
 -10  10   5    1.75    0.26
   9  10  -5    0.28    0.16
   9  10  -5    0.33    0.14
  -9  10   5    0.31    0.15
   8  10  -5    1.32    0.26
  -8  10   5    1.27    0.22
   8  10  -5    1.26    0.23
   7  10  -5    0.29    0.15
   7  10  -5    0.08    0.11
  -7  10   5    0.22    0.14
  -6  10   5   -0.18    0.06
   6  10  -5   -0.11    0.13
   6  10  -5   -0.13    0.13
  -5 -10   5    2.96    0.41
  -5  10   5    2.08    0.24
   5  10  -5    2.27    0.31
   5  10  -5    2.69    0.31
  -4 -10   5    3.86    0.45
   4 -10  -5    2.99    0.41
   4  10  -5    2.75    0.36
  -4  10   5    3.03    0.29
   4  10  -5    3.28    0.38
   3 -10  -5    6.11    0.64
  -3 -10   5    5.88    0.62
   3  10  -5    6.15    0.56
  -3  10   5    6.60    0.52
   3  10  -5    6.56    0.56
   2 -10  -5    0.39    0.19
  -2 -10   5    0.34    0.16
  -2  10   5    0.43    0.15
   2  10  -5    0.27    0.16
   2  10  -5    0.21    0.13
   1 -10  -5   20.16    1.68
  -1  10   5   21.03    1.43
   1  10  -5   17.57    1.47
   1  10  -5   20.09    1.42
   0 -10  -5    0.11    0.18
   0  10   5    0.24    0.14
   0  10  -5    0.29    0.15
   0  10  -5    0.03    0.10
  -1 -10  -5    3.50    0.52
  -1  10  -5    3.40    0.41
   1  10   5    3.49    0.40
  -1  10  -5    3.43    0.34
  -2 -10  -5    2.79    0.50
  -2  10  -5    2.55    0.35
   2  10   5    2.59    0.36
  -2  10  -5    2.91    0.31
  -3 -10  -5    0.67    0.27
   3  10   5    0.91    0.23
  -3  10  -5    0.41    0.13
  -3  10  -5    0.41    0.17
  -4 -10  -5    0.13    0.22
  -4  10  -5    0.06    0.09
  -4  10  -5   -0.04    0.13
   4  10   5   -0.07    0.13
  -5 -10  -5    2.97    0.57
  -5  10  -5    2.38    0.29
  -5  10  -5    2.11    0.33
   5  10   5    2.24    0.37
  -6 -10  -5    0.40    0.30
   6  10   5    0.36    0.19
  -6  10  -5    0.10    0.14
  -6  10  -5    0.08    0.11
  -7 -10  -5    4.21    0.71
  -7  10  -5    3.35    0.45
  -7  10  -5    4.12    0.43
   7  10   5    3.07    0.45
  -8 -10  -5    0.09    0.31
   8  10   5   -0.13    0.13
  -8  10  -5    0.10    0.15
  11  11  -5    1.09    0.28
  11  11  -5    1.13    0.23
 -11  11   5    1.51    0.26
 -10  11   5    0.44    0.17
  10  11  -5    0.29    0.17
  10  11  -5    0.18    0.15
   9  11  -5    0.18    0.15
   9  11  -5    0.23    0.17
  -9  11   5    0.27    0.15
   8  11  -5    5.25    0.48
  -8  11   5    4.29    0.45
   8  11  -5    4.52    0.53
   7  11  -5    1.77    0.30
   7  11  -5    1.42    0.25
  -7  11   5    1.57    0.27
   6  11  -5    7.30    0.65
  -6  11   5    6.63    0.64
   6  11  -5    8.22    0.66
   5  11  -5   10.32    0.89
   5  11  -5   12.55    0.91
  -5  11   5   10.84    0.80
   4 -11  -5   -0.16    0.13
   4  11  -5    0.18    0.14
  -4  11   5    0.09    0.10
   4  11  -5    0.17    0.14
   3 -11  -5   22.88    1.99
   3  11  -5   23.37    1.74
   3  11  -5   25.81    1.80
  -3  11   5   24.72    1.70
   2 -11  -5    0.13    0.17
   2  11  -5   -0.11    0.13
  -2  11   5    0.05    0.12
   2  11  -5   -0.11    0.11
   1 -11  -5   15.88    1.33
  -1  11   5   14.59    1.10
   1  11  -5   12.92    1.15
   1  11  -5   15.95    1.11
   0 -11  -5    1.04    0.28
   0  11  -5    0.70    0.17
   0  11   5    0.88    0.20
   0  11  -5    0.65    0.20
  -1 -11  -5    2.00    0.40
  -1  11  -5    1.75    0.25
   1  11   5    2.27    0.31
  -1  11  -5    1.69    0.30
  -2 -11  -5    0.06    0.21
  -2  11  -5    0.34    0.13
  -2  11  -5    0.33    0.18
   2  11   5    0.21    0.15
  -3 -11  -5    3.28    0.57
   3  11   5    4.24    0.48
  -3  11  -5    3.64    0.46
  -3  11  -5    3.59    0.39
  -4 -11  -5    0.11    0.25
   4  11   5   -0.14    0.12
  -4  11  -5    0.17    0.16
  -4  11  -5    0.05    0.10
  -5 -11  -5    0.18    0.27
   5  11   5    0.37    0.19
  -5  11  -5    0.51    0.15
  -5  11  -5    0.32    0.18
  -6 -11  -5    0.34    0.31
   6  11   5    0.15    0.17
  -6  11  -5   -0.04    0.09
  -6  11  -5   -0.14    0.13
  -7 -11  -5    5.33    0.83
  -7  11  -5    3.84    0.52
   7  11   5    3.95    0.53
   9  12  -5    2.11    0.32
  -9  12   5    1.63    0.29
   9  12  -5    2.22    0.34
   8  12  -5    1.60    0.28
  -8  12   5    1.70    0.28
   8  12  -5    1.51    0.29
   7  12  -5    0.87    0.22
  -7  12   5    0.77    0.22
   7  12  -5    0.64    0.20
   6  12  -5    0.29    0.17
   6  12  -5    0.26    0.18
  -6  12   5    0.19    0.17
  -5  12   5   -0.19    0.12
   5  12  -5   -0.17    0.12
   5  12  -5    0.03    0.15
   4 -12  -5    3.08    0.44
  -4  12   5    2.82    0.31
   4  12  -5    2.85    0.38
   4  12  -5    2.66    0.36
   3 -12  -5    1.52    0.31
  -3  12   5    1.29    0.21
   3  12  -5    1.14    0.24
   3  12  -5    1.16    0.25
   2 -12  -5    0.10    0.15
  -2  12   5   -0.08    0.10
   2  12  -5    0.00    0.12
   2  12  -5   -0.04    0.13
   1 -12  -5    1.57    0.32
   1  12  -5    1.38    0.24
   1  12  -5    1.08    0.25
  -1  12   5    0.99    0.22
   0 -12  -5   -0.06    0.18
   0  12  -5   -0.18    0.12
   0  12   5    0.27    0.16
   0  12  -5    0.09    0.13
  -1 -12  -5    1.25    0.35
  -1  12  -5    1.81    0.31
   1  12   5    2.14    0.32
  -1  12  -5    1.99    0.27
  -2 -12  -5    0.21    0.23
   2  12   5    0.23    0.17
  -2  12  -5   -0.05    0.09
  -2  12  -5    0.19    0.17
  -3 -12  -5    0.51    0.30
  -3  12  -5    0.47    0.15
  -3  12  -5    0.60    0.21
   3  12   5    0.38    0.19
  -4 -12  -5    1.00    0.37
  -4  12  -5    1.24    0.21
   4  12   5    1.06    0.26
  -4  12  -5    0.41    0.21
  -5 -12  -5   -0.21    0.22
   5  12   5   -0.02    0.15
  -5  12  -5   -0.08    0.14
  -5  12  -5   -0.05    0.09
  -6 -12  -5    2.03    0.53
   6  12   5    1.66    0.33
  -6  12  -5    1.41    0.31
  -8  13   5    1.54    0.29
   8  13  -5    1.92    0.33
   8  13  -5    2.32    0.36
   7  13  -5    2.50    0.36
   7  13  -5    2.26    0.35
  -7  13   5    1.83    0.31
  -6  13   5    3.09    0.43
   6  13  -5    3.91    0.47
   6  13  -5    3.56    0.45
   5  13  -5    0.01    0.14
   5  13  -5   -0.03    0.14
  -5  13   5    0.00    0.13
   4 -13  -5    3.93    0.53
   4  13  -5    3.86    0.47
   4  13  -5    3.23    0.43
   3 -13  -5    0.25    0.20
   3  13  -5    0.36    0.19
  -3  13   5    0.53    0.15
   3  13  -5    0.39    0.17
   2 -13  -5    6.23    0.67
  -2  13   5    6.17    0.52
   2  13  -5    5.75    0.54
   2  13  -5    4.63    0.57
   1 -13  -5   -0.02    0.15
   1  13  -5   -0.16    0.10
  -1  13   5    0.10    0.14
   1  13  -5   -0.12    0.13
   0 -13  -5    2.95    0.48
   0  13  -5    2.06    0.36
   0  13   5    2.40    0.35
   0  13  -5    2.16    0.31
  -1 -13  -5   -0.25    0.16
  -1  13  -5    0.13    0.12
  -1  13  -5    0.02    0.16
   1  13   5   -0.02    0.14
  -2 -13  -5    1.86    0.41
  -2  13  -5    1.43    0.24
   2  13   5    1.42    0.28
  -2  13  -5    1.23    0.29
  -3 -13  -5    0.42    0.30
   3  13   5    0.05    0.16
  -3  13  -5    0.37    0.14
  -3  13  -5    0.08    0.18
  -4 -13  -5    0.40    0.32
  -4  13  -5    0.43    0.22
  -4  13  -5    0.71    0.19
   4  13   5    0.26    0.21
   4  14  -5   -0.31    0.13
   4  14  -5   -0.16    0.12
  -4  14   5    0.03    0.16
   3 -14  -5    0.09    0.19
   3  14  -5   -0.05    0.15
   3  14  -5   -0.14    0.12
   2 -14  -5    0.70    0.26
  -2  14   5    0.24    0.15
   2  14  -5    0.40    0.19
   2  14  -5   -0.02    0.15
   1 -14  -5    0.49    0.23
   1  14  -5    0.04    0.16
  -1  14   5    0.34    0.16
   1  14  -5    0.05    0.14
   0 -14  -5    0.37    0.24
   0  14   5    0.25    0.16
   0  14  -5    0.08    0.18
   0  14  -5    0.44    0.17
  -1 -14  -5    0.18    0.24
  -1  14  -5    0.32    0.15
   1  14   5    0.25    0.17
  -1  14  -5    0.08    0.19
  14   0  -6   30.45    2.08
  13   0  -6   -0.07    0.07
  12   0  -6   41.26    2.78
 -11   0   6   -0.09    0.12
  11   0  -6   -0.06    0.06
  10   0  -6   32.24    2.27
 -10   0   6   35.78    2.68
  -9   0   6    0.03    0.09
   9   0  -6    0.00    0.05
   8   0  -6    0.15    0.06
  -8   0   6    0.08    0.09
   7   0  -6    0.07    0.05
  -7   0   6    0.00    0.02
  -7   0   6    0.01    0.06
   6   0  -6    2.81    0.22
  -6   0   6    2.80    0.20
   6   0  -6    2.03    0.20
  -6   0   6    2.16    0.24
   5   0  -6   -0.03    0.06
  -5   0   6    0.00    0.03
   5   0  -6   -0.01    0.03
  -5   0   6   -0.03    0.03
   5   0  -6    0.08    0.06
  -5   0   6   -0.04    0.04
   4   0  -6    4.82    0.37
   4   0  -6    5.10    0.42
   4   0  -6    5.89    0.42
  -4   0   6    4.64    0.36
  -3   0   6    0.11    0.06
   3   0  -6    0.01    0.06
   3   0  -6    0.00    0.04
   2   0  -6   58.26    4.03
   2   0  -6   58.08    3.88
   1   0  -6    0.04    0.04
   1   0  -6    0.05    0.08
   0   0  -6   27.29    1.87
  -1   0  -6    0.02    0.06
  -1   0  -6    0.00    0.07
  -2   0  -6    7.88    0.66
  -3   0  -6    0.06    0.09
  -4   0  -6    4.73    0.47
  -5   0  -6   -0.16    0.09
  -6   0  -6    5.57    0.56
  -7   0  -6    0.07    0.14
  -8   0  -6    0.14    0.16
  -9   0  -6   -0.12    0.10
 -10   0  -6    0.91    0.30
 -11   0  -6    0.03    0.15
 -11   0  -6   -0.20    0.17
 -12   0  -6    2.98    0.61
 -12   0  -6    2.33    0.40
  15   1  -6    1.21    0.19
  14   1  -6    0.23    0.11
  13  -1  -6    0.24    0.09
  13   1  -6    0.20    0.10
  12  -1  -6    0.09    0.06
  12   1  -6    0.04    0.08
  11  -1  -6    1.48    0.16
 -11  -1   6    2.26    0.35
  11   1  -6    1.81    0.20
 -11   1   6    1.43    0.30
  10  -1  -6   10.03    0.70
 -10  -1   6    9.76    0.91
  10   1  -6    9.99    0.73
 -10   1   6   10.35    0.91
  -9  -1   6    1.67    0.27
   9  -1  -6    1.11    0.13
  -9   1   6    1.36    0.24
   9   1  -6    1.30    0.15
  -8  -1   6   16.77    1.39
   8  -1  -6   16.92    1.16
  -8   1   6   16.87    1.38
   8   1  -6   16.87    1.18
  -8   1   6   17.68    1.17
  -7  -1   6    1.17    0.19
  -7  -1   6    0.83    0.08
   7  -1  -6    0.88    0.10
  -7   1   6    0.68    0.15
  -7   1   6    1.15    0.11
   7   1  -6    1.07    0.21
  -7   1   6    0.94    0.11
   7   1  -6    0.98    0.11
   7   1  -6    1.01    0.13
  -6  -1   6    2.59    0.19
  -6  -1   6    2.62    0.25
   6  -1  -6    2.05    0.19
  -6   1   6    2.44    0.21
   6   1  -6    2.80    0.30
   6   1  -6    2.32    0.21
  -6   1   6    2.00    0.18
  -6   1   6    2.50    0.24
   6   1  -6    2.88    0.22
   5  -1  -6   10.76    0.86
  -5  -1   6   14.16    0.89
  -5  -1   6   12.48    0.97
   5   1  -6   12.72    0.90
   5   1  -6   11.71    0.87
  -5   1   6   12.07    0.85
  -5   1   6   13.84    0.91
   5   1  -6   12.91    1.02
   4  -1  -6   13.72    1.06
  -4  -1   6   16.88    1.10
  -4  -1   6   15.52    1.16
   4  -1  -6   14.67    1.12
   4   1  -6   16.33    1.21
  -4   1   6   15.44    1.04
   4   1  -6   15.00    1.06
   4   1  -6   14.93    1.10
  -4   1   6   16.18    1.11
  -3  -1   6   49.09    2.96
   3  -1  -6   41.03    2.87
   3  -1  -6   39.23    2.98
   3   1  -6   41.41    2.96
   3   1  -6   45.10    3.22
  -3   1   6   45.15    2.86
   3   1  -6   36.74    2.86
  -3   1   6   44.43    2.97
   2  -1  -6  183.68   10.72
   2  -1  -6  165.58   11.06
   2   1  -6  158.69   10.71
   2   1  -6  140.07   11.02
   1  -1  -6   17.47    1.30
   1  -1  -6   17.60    1.24
   1   1  -6   18.31    1.29
   1   1  -6   17.42    1.22
   0  -1  -6   66.54    4.50
   0   1  -6   64.41    4.32
   0   1  -6   62.78    4.47
  -1  -1  -6    0.03    0.08
  -1   1  -6    0.11    0.08
  -1   1  -6    0.06    0.06
  -2  -1  -6   27.68    1.84
  -2   1  -6   24.81    1.80
  -2   1  -6   22.73    1.71
  -3  -1  -6    0.63    0.16
  -3   1  -6    0.93    0.18
  -4  -1  -6    3.38    0.41
  -4   1  -6    3.66    0.41
  -5  -1  -6   15.12    1.21
  -5   1  -6   15.77    1.21
  -6  -1  -6   20.59    1.65
  -6   1  -6   23.02    1.66
  -7  -1  -6    5.48    0.60
  -7   1  -6    5.55    0.56
  -8  -1  -6    6.48    0.81
  -8  -1  -6    6.05    0.60
  -8   1  -6    5.18    0.60
  -9  -1  -6    0.30    0.17
  -9  -1  -6    0.32    0.23
  -9   1  -6    0.55    0.19
 -10  -1  -6   11.01    1.02
 -10  -1  -6   13.56    1.29
 -10   1  -6   12.33    1.04
 -11  -1  -6    1.66    0.43
 -11  -1  -6    1.56    0.32
 -11   1  -6    1.63    0.32
 -12  -1  -6    2.38    0.41
 -12  -1  -6    2.70    0.59
 -12   1  -6    2.11    0.38
  16   2  -6    3.53    0.35
  15   2  -6    1.34    0.20
  14   2  -6   13.27    0.98
  13   2  -6    2.72    0.30
  12  -2  -6   14.34    0.98
  12   2  -6   14.16    1.03
  11  -2  -6    2.09    0.19
 -11  -2   6    3.08    0.42
  11   2  -6    2.66    0.27
 -11   2   6    2.23    0.36
 -10  -2   6    0.70    0.21
  10  -2  -6    0.93    0.10
  10   2  -6    0.93    0.15
 -10   2   6    0.71    0.20
  -9  -2   6    0.40    0.16
   9  -2  -6    0.44    0.06
  -9   2   6    0.49    0.15
  -9   2   6    0.52    0.07
  -9   2   6    0.47    0.05
   9   2  -6    0.51    0.11
  -8  -2   6    0.88    0.19
   8  -2  -6    0.95    0.09
  -8   2   6    1.13    0.19
   8   2  -6    1.02    0.11
   8   2  -6    0.97    0.23
  -8   2   6    0.87    0.11
   8   2  -6    0.82    0.13
   7  -2  -6    7.37    0.58
  -7  -2   6    8.20    0.73
   7   2  -6    8.57    0.61
   7   2  -6    8.61    0.78
  -7   2   6    9.38    0.63
   7   2  -6    8.88    0.62
  -7   2   6    8.88    0.72
  -7   2   6    8.33    0.58
   6  -2  -6   21.13    1.42
  -6  -2   6   22.81    1.66
  -6  -2   6   21.56    1.46
   6   2  -6   19.79    1.47
  -6   2   6   19.70    1.48
  -6   2   6   20.59    1.41
   6   2  -6   22.79    1.70
   6   2  -6   21.17    1.45
  -6   2   6   21.08    1.64
   5  -2  -6   21.05    1.56
  -5  -2   6   24.87    1.60
  -5  -2   6   23.32    1.78
  -5   2   6   23.28    1.76
  -5   2   6   24.22    1.64
   5   2  -6   21.90    1.61
   5   2  -6   24.82    1.83
  -5   2   6   23.27    1.54
   5   2  -6   21.68    1.57
  -4  -2   6  219.44   16.40
  -4  -2   6  230.55   14.88
   4  -2  -6  191.20   14.47
  -4   2   6  212.66   14.45
   4   2  -6  215.18   14.90
   4   2  -6  240.96   16.45
   4   2  -6  225.32   14.48
   3  -2  -6    8.68    0.75
   3  -2  -6   10.93    0.83
   3   2  -6   11.44    0.85
  -3   2   6   11.50    0.74
   3   2  -6   10.73    0.79
   3   2  -6   10.39    0.75
   2  -2  -6   23.16    2.03
   2  -2  -6   26.76    1.91
   2   2  -6   28.64    1.81
   2   2  -6   24.91    2.02
   2   2  -6   31.07    1.89
   1  -2  -6    9.14    0.67
   1  -2  -6    7.00    0.64
   1   2  -6    7.99    0.61
   1   2  -6    7.80    0.58
   0  -2  -6    5.40    0.49
   0  -2  -6    5.45    0.48
   0   2  -6    5.30    0.41
   0   2  -6    4.83    0.44
  -1  -2  -6    3.63    0.41
  -1  -2  -6    2.93    0.36
  -1   2  -6    3.55    0.34
  -1   2  -6    3.97    0.31
  -2  -2  -6   10.96    1.00
  -2  -2  -6   11.14    0.93
  -2   2  -6   12.60    0.91
  -2   2  -6   11.68    0.85
  -3  -2  -6    7.53    0.63
  -3  -2  -6    7.21    0.68
  -3   2  -6    6.61    0.59
  -3   2  -6    6.54    0.54
  -4  -2  -6    3.42    0.48
  -4  -2  -6    5.07    0.47
  -4   2  -6    4.37    0.42
  -5  -2  -6    5.52    0.61
  -5  -2  -6    5.00    0.52
  -5   2  -6    5.46    0.52
  -6  -2  -6    0.24    0.16
  -6  -2  -6    0.44    0.19
  -6   2  -6    0.02    0.12
  -7  -2  -6   -0.01    0.13
  -7  -2  -6   -0.08    0.15
  -7   2  -6   -0.14    0.11
  -8  -2  -6    9.50    0.96
  -8  -2  -6    7.54    0.76
  -8   2  -6    8.91    0.78
  -9  -2  -6    0.40    0.19
  -9  -2  -6    0.16    0.20
  -9   2  -6    0.45    0.18
 -10  -2  -6   -0.09    0.17
 -10  -2  -6    0.21    0.24
 -10   2  -6   -0.09    0.13
 -11  -2  -6    0.21    0.28
 -11   2  -6    0.22    0.16
 -12  -2  -6    0.17    0.29
 -12   2  -6    0.69    0.23
  16   3  -6   -0.12    0.11
  15   3  -6    2.76    0.32
  14   3  -6    1.05    0.19
  13   3  -6   -0.05    0.10
  12   3  -6    3.17    0.32
 -11  -3   6    0.46    0.21
 -11   3   6    0.55    0.07
  11   3  -6    0.65    0.15
 -10  -3   6    1.98    0.33
 -10   3   6    1.50    0.18
 -10   3   6    1.76    0.15
  10   3  -6    1.70    0.22
  10   3  -6    1.67    0.15
  10   3  -6    1.88    0.17
  -9  -3   6    0.47    0.16
  -9   3   6    0.32    0.06
   9   3  -6    0.67    0.20
   9   3  -6    0.35    0.10
  -9   3   6    0.24    0.08
   9   3  -6    0.44    0.07
  -8  -3   6    0.27    0.12
   8   3  -6    0.32    0.10
   8   3  -6    0.43    0.07
   8   3  -6    0.32    0.16
  -7  -3   6    0.26    0.12
  -7   3   6    0.55    0.11
  -7   3   6    0.52    0.06
   7   3  -6    0.64    0.11
   7   3  -6    0.49    0.08
   7   3  -6    0.71    0.18
  -6  -3   6   10.82    0.95
  -6  -3   6   12.15    0.83
   6   3  -6   12.20    0.84
  -6   3   6   11.76    0.78
   6   3  -6   12.03    1.01
   6   3  -6   10.86    0.83
  -5  -3   6   38.02    2.86
   5   3  -6   35.02    2.58
  -5   3   6   36.53    2.48
   5   3  -6   36.82    2.52
   5   3  -6   41.50    2.92
  -4  -3   6   34.04    2.52
   4  -3  -6   29.57    2.50
  -4   3   6   35.10    2.21
   4   3  -6   33.60    2.56
   4   3  -6   33.75    2.30
   4   3  -6   32.78    2.24
  -3  -3   6   18.72    1.38
   3  -3  -6   19.50    1.40
   3   3  -6   16.22    1.24
   3   3  -6   15.94    1.28
  -3   3   6   20.92    1.24
   3   3  -6   16.57    1.41
   2  -3  -6    6.60    0.53
   2   3  -6    5.75    0.49
   2   3  -6    5.37    0.46
   2   3  -6    6.59    0.51
   1  -3  -6   13.62    1.23
   1   3  -6   16.60    1.08
   1   3  -6   14.65    1.12
   1   3  -6   16.24    1.20
   0  -3  -6    0.79    0.16
   0   3  -6    0.46    0.12
   0   3  -6    0.60    0.10
  -1  -3  -6    6.87    0.72
  -1  -3  -6    8.11    0.69
  -1   3  -6    8.83    0.61
  -1   3  -6    8.01    0.65
  -2  -3  -6    1.58    0.26
  -2  -3  -6    1.33    0.25
  -2   3  -6    1.78    0.24
  -2   3  -6    1.75    0.20
  -3  -3  -6    0.69    0.18
  -3  -3  -6    0.34    0.14
  -3   3  -6    0.29    0.09
  -3   3  -6    0.40    0.13
  -4  -3  -6    0.11    0.12
  -4  -3  -6    0.08    0.11
  -4   3  -6    0.25    0.09
  -4   3  -6    0.10    0.10
  -5  -3  -6    2.34    0.34
  -5  -3  -6    2.25    0.40
  -5   3  -6    2.21    0.30
  -6  -3  -6    0.71    0.21
  -6  -3  -6    0.90    0.26
  -6   3  -6    0.61    0.18
  -7  -3  -6   25.30    2.20
  -7   3  -6   25.62    1.90
  -8  -3  -6   28.50    2.43
  -8   3  -6   27.77    2.09
  -9  -3  -6   -0.11    0.18
  -9   3  -6    0.59    0.20
 -10  -3  -6    4.16    0.67
 -10   3  -6    4.14    0.52
 -11  -3  -6    4.19    0.71
 -11   3  -6    4.33    0.54
 -12  -3  -6    1.54    0.49
 -12   3  -6    1.69    0.33
  16   4  -6    0.07    0.12
  15   4  -6    0.97    0.19
  14   4  -6    2.36    0.30
  13   4  -6    7.34    0.60
  12   4  -6    1.95    0.26
  11   4  -6   43.79    3.08
  11   4  -6   46.95    3.08
 -10  -4   6    0.30    0.16
  10   4  -6    0.22    0.11
 -10   4   6    0.37    0.08
  10   4  -6    0.40    0.08
  10   4  -6    0.33    0.21
  -9  -4   6    2.77    0.38
   9   4  -6    2.58    0.22
  -9   4   6    2.42    0.22
   9   4  -6    2.79    0.29
   9   4  -6    2.91    0.44
  -8  -4   6    0.96    0.21
   8   4  -6    1.13    0.13
   8   4  -6    1.04    0.25
   8   4  -6    0.81    0.15
  -7  -4   6   12.32    1.01
   7   4  -6   11.71    0.84
   7   4  -6   12.19    1.06
   7   4  -6   11.09    0.85
  -6  -4   6   33.07    2.58
   6   4  -6   34.19    2.64
   6   4  -6   35.44    2.27
  -6   4   6   32.40    2.20
   6   4  -6   31.79    2.30
  -5  -4   6   12.69    1.01
   5   4  -6   13.50    0.90
   5   4  -6   13.40    1.07
  -5   4   6   11.92    0.84
   5   4  -6   11.47    0.90
  -4  -4   6   25.72    1.95
   4  -4  -6   22.45    1.94
  -4   4   6   24.77    1.71
   4   4  -6   26.24    1.78
   4   4  -6   28.67    2.02
   4   4  -6   25.48    1.74
  -3  -4   6   36.55    2.79
   3  -4  -6   35.17    2.81
   3   4  -6   36.30    2.55
   3   4  -6   38.81    2.83
   3   4  -6   36.65    2.48
   2  -4  -6   36.23    3.28
   2   4  -6   43.63    3.28
   2   4  -6   48.42    3.00
   2   4  -6   44.02    2.89
   1  -4  -6   20.26    1.58
   1   4  -6   18.91    1.53
   1   4  -6   20.29    1.36
   1   4  -6   19.36    1.42
   0  -4  -6   10.89    1.02
   0   4  -6   12.67    0.96
   0   4  -6   11.99    0.86
   0   4  -6   12.01    0.91
  -1  -4  -6    0.36    0.14
  -1   4  -6    0.62    0.14
  -1   4  -6    0.43    0.10
  -2  -4  -6   22.72    2.05
  -2   4  -6   26.17    1.83
  -2   4  -6   26.52    1.75
  -3  -4  -6    0.25    0.14
  -3   4  -6    0.28    0.08
  -3   4  -6    0.10    0.09
  -4  -4  -6    0.26    0.16
  -4   4  -6    0.42    0.14
  -4   4  -6    0.36    0.10
  -5  -4  -6   -0.05    0.12
  -5   4  -6    0.04    0.09
  -5   4  -6    0.00    0.07
  -6  -4  -6    0.71    0.27
  -6   4  -6    0.86    0.20
  -7  -4  -6    0.12    0.21
  -7   4  -6    0.06    0.12
  -8  -4  -6    0.85    0.32
  -8   4  -6    0.82    0.22
  -9  -4  -6   -0.05    0.22
  -9   4  -6   -0.08    0.12
 -10  -4  -6   -0.15    0.21
 -10   4  -6   -0.02    0.13
 -11  -4  -6    0.64    0.36
 -11   4  -6    0.63    0.23
 -12  -4  -6    0.00    0.25
 -12   4  -6    0.04    0.15
  15   5  -6    1.01    0.21
  14   5  -6   -0.21    0.10
  13   5  -6    0.84    0.19
  12   5  -6    0.27    0.12
 -11   5   6    0.05    0.07
  11   5  -6    0.22    0.08
  11   5  -6    0.01    0.11
 -10  -5   6    1.62    0.33
  10   5  -6    1.54    0.16
  10   5  -6    1.28    0.21
 -10   5   6    1.19    0.16
  -9  -5   6    0.37    0.16
   9   5  -6    0.38    0.09
   9   5  -6    0.14    0.19
   9   5  -6    0.37    0.13
  -9   5   6    0.37    0.09
  -8  -5   6   -0.01    0.11
   8   5  -6    0.11    0.07
   8   5  -6   -0.07    0.08
   8   5  -6   -0.03    0.12
  -7  -5   6    1.44    0.26
   7   5  -6    1.47    0.21
   7   5  -6    1.41    0.30
   7   5  -6    1.83    0.18
  -6  -5   6    3.76    0.38
  -6   5   6    3.32    0.25
   6   5  -6    3.70    0.31
   6   5  -6    3.80    0.33
   6   5  -6    4.35    0.46
  -5  -5   6   29.97    2.35
   5   5  -6   31.56    2.08
   5   5  -6   29.69    2.11
  -5   5   6   28.70    2.02
   5   5  -6   32.00    2.42
   4  -5  -6    0.21    0.08
  -4  -5   6    0.26    0.09
  -4   5   6    0.26    0.07
   4   5  -6    0.07    0.10
   4   5  -6    0.14    0.07
   4   5  -6    0.20    0.08
   3  -5  -6    8.23    0.73
  -3  -5   6    8.51    0.71
   3   5  -6    9.66    0.67
   3   5  -6    8.04    0.75
   3   5  -6    8.61    0.64
   2  -5  -6    0.34    0.11
   2   5  -6    0.28    0.09
   2   5  -6    0.10    0.08
   2   5  -6    0.39    0.09
   1  -5  -6    2.66    0.34
   1   5  -6    2.60    0.28
   1   5  -6    2.89    0.29
   1   5  -6    3.05    0.26
   0  -5  -6    0.03    0.09
   0   5  -6    0.09    0.06
   0   5  -6   -0.02    0.07
   0   5  -6    0.02    0.05
  -1  -5  -6    9.67    0.98
  -1   5  -6   10.79    0.80
  -1   5  -6   11.80    0.91
  -1   5  -6   11.48    0.86
  -2  -5  -6    0.03    0.11
  -2   5  -6    0.09    0.06
  -2   5  -6    0.03    0.09
  -3  -5  -6    4.56    0.59
  -3   5  -6    3.94    0.42
  -3   5  -6    4.98    0.39
  -4  -5  -6    6.51    0.76
  -4   5  -6    7.76    0.58
  -4   5  -6    6.90    0.62
  -5  -5  -6    0.46    0.23
  -5   5  -6    0.27    0.11
  -5   5  -6    0.27    0.13
  -6  -5  -6    1.56    0.36
  -6   5  -6    1.03    0.22
  -6   5  -6    1.06    0.19
  -7  -5  -6    8.43    1.00
  -7   5  -6    7.48    0.70
  -8  -5  -6    1.04    0.34
  -8   5  -6    1.04    0.24
  -9  -5  -6    2.73    0.57
  -9   5  -6    4.04    0.48
 -10  -5  -6    0.73    0.36
 -10   5  -6    1.06    0.25
 -11  -5  -6    6.44    0.92
 -11   5  -6    3.95    0.54
  15   6  -6    4.77    0.48
  14   6  -6    3.02    0.39
  13   6  -6    4.51    0.44
  12   6  -6    4.40    0.43
 -11   6   6   11.41    0.82
  11   6  -6   10.80    0.81
  11   6  -6   10.81    0.86
  10   6  -6    4.09    0.41
  10   6  -6    4.36    0.36
 -10   6   6    4.30    0.37
  -9  -6   6    0.58    0.21
   9   6  -6    0.37    0.13
  -9   6   6    0.02    0.10
   9   6  -6    0.33    0.09
  -8  -6   6    0.37    0.17
   8   6  -6    0.42    0.13
   8   6  -6    0.47    0.10
   8   6  -6    0.08    0.16
  -7  -6   6   12.19    1.15
   7   6  -6   13.20    0.99
   7   6  -6   15.01    1.25
   7   6  -6   14.45    1.01
  -6  -6   6    0.55    0.15
  -6   6   6    0.75    0.08
   6   6  -6    0.47    0.18
   6   6  -6    0.56    0.13
   6   6  -6    0.73    0.13
  -6   6   6    0.80    0.08
  -5  -6   6   62.08    4.56
   5  -6  -6   55.12    4.53
  -5   6   6   60.21    3.97
   5   6  -6   59.02    4.11
   5   6  -6   62.07    4.63
   4  -6  -6    0.92    0.16
  -4  -6   6    0.91    0.16
   4   6  -6    0.92    0.22
   4   6  -6    0.59    0.13
   4   6  -6    1.09    0.16
   3  -6  -6   49.44    3.73
  -3  -6   6   51.13    3.71
   3   6  -6   45.82    3.75
   3   6  -6   52.84    3.38
   3   6  -6   43.19    3.27
  -2  -6   6    5.37    0.48
   2  -6  -6    5.16    0.52
   2   6  -6    5.59    0.46
   2   6  -6    5.26    0.43
   1  -6  -6   21.72    1.74
   1   6  -6   19.45    1.47
   1   6  -6   21.34    1.69
   1   6  -6   23.08    1.55
   0  -6  -6    0.07    0.10
   0   6  -6    0.05    0.06
   0   6  -6    0.15    0.08
   0   6  -6    0.08    0.08
  -1  -6  -6    5.36    0.62
  -1   6  -6    6.40    0.54
  -1   6  -6    5.54    0.52
  -1   6  -6    6.35    0.48
  -2  -6  -6    0.09    0.14
  -2   6  -6    0.34    0.10
  -2   6  -6    0.36    0.11
  -2   6  -6    0.17    0.11
  -3  -6  -6    0.06    0.15
  -3   6  -6    0.21    0.12
  -3   6  -6    0.27    0.11
  -3   6  -6    0.24    0.09
  -4  -6  -6    0.09    0.17
  -4   6  -6    0.22    0.09
  -4   6  -6    0.09    0.11
  -5  -6  -6    1.46    0.37
  -5   6  -6    0.80    0.20
  -5   6  -6    1.11    0.19
  -6  -6  -6    7.19    0.93
  -6   6  -6    7.75    0.63
  -6   6  -6    7.77    0.69
  -7  -6  -6    0.93    0.35
  -7   6  -6    1.49    0.27
  -8  -6  -6    0.32    0.28
  -8   6  -6    0.02    0.13
  -9  -6  -6    0.28    0.27
  -9   6  -6    0.21    0.17
 -10  -6  -6    0.11    0.27
 -10   6  -6    0.50    0.19
 -11  -6  -6    2.26    0.58
 -11   6  -6    0.98    0.27
  14   7  -6    1.56    0.28
  13   7  -6   -0.30    0.12
  12   7  -6    4.20    0.46
  11   7  -6    0.73    0.20
 -11   7   6    0.79    0.15
  11   7  -6    0.51    0.13
 -10   7   6    2.20    0.24
  10   7  -6    1.95    0.23
  10   7  -6    1.88    0.29
   9   7  -6    0.58    0.13
   9   7  -6    0.58    0.17
  -9   7   6    0.57    0.14
  -8  -7   6    0.50    0.19
   8   7  -6    0.50    0.12
   8   7  -6    0.38    0.14
  -7  -7   6    1.36    0.27
   7   7  -6    1.64    0.24
   7   7  -6    1.81    0.21
   7   7  -6    1.78    0.35
  -6  -7   6    1.85    0.28
   6   7  -6    1.64    0.33
   6   7  -6    1.94    0.23
  -6   7   6    1.98    0.16
  -6   7   6    1.87    0.17
   6   7  -6    1.91    0.25
  -5  -7   6    0.04    0.08
   5  -7  -6   -0.06    0.06
  -5   7   6    0.00    0.05
   5   7  -6   -0.11    0.12
   5   7  -6   -0.05    0.08
   5   7  -6    0.06    0.08
   4  -7  -6    0.08    0.09
  -4  -7   6    0.00    0.07
   4   7  -6    0.03    0.11
   4   7  -6    0.03    0.08
   4   7  -6    0.09    0.09
  -3  -7   6   16.26    1.28
   3  -7  -6   15.27    1.30
   3   7  -6   15.37    1.33
   3   7  -6   15.59    1.17
   3   7  -6   16.30    1.14
  -2  -7   6    5.55    0.49
   2  -7  -6    4.59    0.52
   2   7  -6    5.73    0.45
   2   7  -6    5.37    0.47
   1  -7  -6    9.40    0.91
   1   7  -6   10.56    0.80
   1   7  -6    9.44    0.87
   1   7  -6   10.91    0.76
   0  -7  -6    0.58    0.20
   0   7  -6    1.01    0.18
   0   7  -6    0.85    0.14
   0   7  -6    1.04    0.19
  -1  -7  -6   15.10    1.36
  -1   7  -6   16.27    1.12
  -1   7  -6   17.94    1.28
  -1   7  -6   12.60    1.16
  -2  -7  -6    1.40    0.32
  -2   7  -6    1.56    0.23
  -2   7  -6    1.47    0.20
  -2   7  -6    1.21    0.22
  -3  -7  -6    0.13    0.17
  -3   7  -6    0.08    0.11
  -3   7  -6    0.00    0.07
  -4  -7  -6    0.05    0.18
  -4   7  -6    0.04    0.08
  -4   7  -6    0.13    0.12
  -5  -7  -6    1.54    0.39
  -5   7  -6    1.42    0.22
  -5   7  -6    1.10    0.24
  -6  -7  -6    0.67    0.32
  -6   7  -6    0.55    0.19
  -6   7  -6    0.95    0.19
  -7  -7  -6   12.73    1.34
  -7   7  -6   12.19    1.07
  -7   7  -6   14.30    1.02
  -8  -7  -6    6.47    0.90
  -8   7  -6    6.83    0.65
  -9  -7  -6    0.98    0.42
  -9   7  -6    1.59    0.32
 -10  -7  -6    2.50    0.60
 -10   7  -6    2.29    0.38
  14   8  -6   11.32    0.94
  13   8  -6   -0.23    0.12
  12   8  -6    6.82    0.62
  11   8  -6    0.30    0.11
  11   8  -6    0.15    0.15
 -11   8   6    0.40    0.13
 -10   8   6    0.04    0.09
  10   8  -6    0.00    0.08
  10   8  -6    0.02    0.12
   9   8  -6   -0.03    0.11
  -9   8   6    0.09    0.11
   9   8  -6    0.03    0.09
  -8   8   6    0.11    0.12
   8   8  -6    0.26    0.11
   8   8  -6    0.10    0.12
  -7  -8   6    7.78    0.79
   7   8  -6    8.39    0.66
   7   8  -6    8.67    0.69
  -6  -8   6    2.72    0.38
  -6   8   6    2.66    0.22
   6   8  -6    3.26    0.30
   6   8  -6    2.56    0.32
  -5  -8   6   17.21    1.43
   5  -8  -6   16.98    1.41
   5   8  -6   16.13    1.25
   5   8  -6   18.07    1.52
   5   8  -6   17.31    1.27
  -5   8   6   17.74    1.19
   4  -8  -6   11.75    0.98
  -4  -8   6   11.89    0.98
   4   8  -6   11.32    0.86
  -4   8   6   10.95    0.82
   4   8  -6    9.92    1.02
   4   8  -6   12.18    0.88
  -3  -8   6    0.56    0.14
   3  -8  -6    0.63    0.18
  -3   8   6    0.61    0.13
   3   8  -6    0.44    0.19
   3   8  -6    0.40    0.12
   3   8  -6    0.59    0.15
  -2  -8   6   11.49    0.95
   2  -8  -6   11.50    1.00
   2   8  -6   11.38    0.84
   2   8  -6    9.84    0.98
   2   8  -6   11.71    0.88
   1  -8  -6    6.52    0.65
   1   8  -6    6.22    0.55
   1   8  -6    6.72    0.52
   1   8  -6    5.93    0.61
   0  -8  -6    8.87    0.84
   0   8  -6    7.30    0.74
   0   8  -6    8.15    0.70
   0   8  -6    9.31    0.66
  -1  -8  -6    1.99    0.37
  -1   8  -6    1.73    0.22
  -1   8  -6    1.74    0.26
  -2  -8  -6   12.00    1.17
  -2   8  -6   12.80    0.92
  -2   8  -6   11.82    0.98
  -3  -8  -6    0.10    0.23
  -3   8  -6    0.17    0.10
  -3   8  -6    0.12    0.13
  -4  -8  -6   -0.02    0.19
  -4   8  -6    0.14    0.14
  -4   8  -6    0.26    0.11
  -5  -8  -6    3.22    0.57
  -5   8  -6    2.95    0.39
  -5   8  -6    3.46    0.37
  -6  -8  -6    0.74    0.35
  -6   8  -6    0.68    0.18
  -6   8  -6    0.98    0.24
  -7  -8  -6    0.61    0.32
  -7   8  -6    0.68    0.22
  -7   8  -6    0.73    0.18
  -8  -8  -6   -0.10    0.24
  -8   8  -6   -0.13    0.12
  -9  -8  -6    0.06    0.28
  -9   8  -6   -0.12    0.13
 -10  -8  -6   -0.24    0.27
 -10   8  -6   -0.09    0.14
  13   9  -6    0.91    0.23
  12   9  -6   -0.27    0.12
  11   9  -6   -0.09    0.10
  11   9  -6   -0.16    0.13
 -11   9   6    0.06    0.11
  10   9  -6    0.16    0.15
 -10   9   6    0.18    0.11
  10   9  -6    0.04    0.10
   9   9  -6    1.31    0.25
  -9   9   6    1.56    0.23
   9   9  -6    1.62    0.23
  -8   9   6   -0.10    0.10
   8   9  -6   -0.06    0.12
   8   9  -6    0.02    0.11
   7   9  -6    0.43    0.16
   7   9  -6    0.73    0.17
   6   9  -6    1.85    0.27
   6   9  -6    1.70    0.24
  -6   9   6    1.44    0.16
   5  -9  -6   -0.10    0.11
  -5  -9   6   -0.13    0.08
  -5   9   6   -0.05    0.07
   5   9  -6    0.00    0.12
   5   9  -6   -0.04    0.11
  -4  -9   6   28.63    2.26
   4  -9  -6   27.18    2.26
   4   9  -6   27.60    2.04
  -4   9   6   29.43    1.95
   4   9  -6   28.75    2.00
  -3  -9   6    0.03    0.10
   3  -9  -6   -0.04    0.13
  -3   9   6    0.04    0.10
   3   9  -6   -0.03    0.13
   3   9  -6    0.00    0.11
  -2  -9   6   23.52    1.78
   2  -9  -6   21.96    1.82
   2   9  -6   21.10    1.62
   2   9  -6   21.25    1.56
  -2   9   6   22.00    1.55
   1  -9  -6    4.40    0.56
  -1   9   6    4.77    0.44
   1   9  -6    4.63    0.47
   1   9  -6    4.90    0.43
   0  -9  -6   31.78    2.75
   0   9  -6   37.37    2.46
   0   9  -6   32.81    2.34
  -1  -9  -6    8.86    0.93
  -1   9  -6    9.36    0.78
  -1   9  -6    9.34    0.72
  -2  -9  -6   14.84    1.36
  -2   9  -6   13.74    1.13
  -2   9  -6   14.49    1.06
  -3  -9  -6    1.34    0.36
  -3   9  -6    1.31    0.21
  -3   9  -6    1.51    0.27
  -4  -9  -6    1.30    0.38
  -4   9  -6    1.28    0.21
  -4   9  -6    1.35    0.26
  -5  -9  -6    0.41    0.30
  -5   9  -6    0.26    0.12
  -5   9  -6    0.26    0.16
  -6  -9  -6    0.78    0.35
  -6   9  -6    0.53    0.16
  -6   9  -6    0.38    0.19
  -7  -9  -6    1.08    0.38
  -7   9  -6    1.38    0.24
  -7   9  -6    0.67    0.22
  -8  -9  -6    6.82    1.01
  -8   9  -6    8.39    0.76
  -9  -9  -6    0.16    0.30
  -9   9  -6    0.58    0.22
  12  10  -6    1.90    0.32
  11  10  -6    0.13    0.16
 -11  10   6   -0.04    0.10
  11  10  -6    0.06    0.12
  10  10  -6    0.09    0.11
  10  10  -6    0.20    0.16
 -10  10   6    0.06    0.12
  -9  10   6    0.13    0.12
   9  10  -6    0.24    0.15
   9  10  -6    0.47    0.15
   8  10  -6    1.10    0.21
   8  10  -6    1.04    0.23
  -8  10   6    1.28    0.23
   7  10  -6    0.58    0.18
   7  10  -6    0.65    0.18
   6  10  -6   17.10    1.31
   6  10  -6   17.78    1.32
   5 -10  -6    0.29    0.16
   5  10  -6    0.15    0.13
   5  10  -6    0.33    0.15
  -5  10   6    0.38    0.11
   4 -10  -6    3.82    0.45
   4  10  -6    2.98    0.38
   4  10  -6    3.35    0.39
  -4  10   6    3.26    0.31
   3 -10  -6    0.41    0.19
  -3  10   6    0.36    0.13
   3  10  -6    0.27    0.14
   3  10  -6    0.15    0.14
   2 -10  -6   19.61    1.72
  -2 -10   6   21.19    1.69
   2  10  -6   19.33    1.53
  -2  10   6   22.21    1.47
   2  10  -6   19.88    1.47
   1 -10  -6    5.70    0.66
  -1  10   6    5.75    0.52
   1  10  -6    5.68    0.56
   1  10  -6    6.80    0.53
   0 -10  -6   12.10    1.16
   0  10   6   12.85    0.97
   0  10  -6   13.52    0.95
   0  10  -6   11.10    1.00
  -1 -10  -6    0.53    0.24
  -1  10  -6    0.51    0.14
  -1  10  -6    0.21    0.15
   1  10   6    0.27    0.15
  -2 -10  -6    1.40    0.38
  -2  10  -6    2.09    0.26
   2  10   6    2.16    0.31
  -2  10  -6    1.14    0.27
  -3 -10  -6    2.20    0.47
  -3  10  -6    1.96    0.27
   3  10   6    2.04    0.33
  -3  10  -6    2.47    0.35
  -4 -10  -6    0.19    0.24
  -4  10  -6    0.08    0.10
  -4  10  -6    0.10    0.13
  -5 -10  -6    0.51    0.29
  -5  10  -6    0.59    0.16
  -5  10  -6    0.56    0.22
  -6 -10  -6    0.28    0.29
  -6  10  -6    0.55    0.17
  -6  10  -6    0.35    0.18
  -7 -10  -6   -0.03    0.28
  -7  10  -6    0.14    0.13
   7  10   6    0.07    0.17
  -7  10  -6    0.05    0.15
  -8 -10  -6    0.73    0.37
   8  10   6    0.53    0.23
  -8  10  -6    0.65    0.22
  11  11  -6   -0.27    0.12
 -11  11   6   -0.05    0.13
  11  11  -6   -0.13    0.14
  10  11  -6    0.01    0.14
  10  11  -6   -0.10    0.12
 -10  11   6    0.20    0.14
   9  11  -6    5.54    0.53
  -9  11   6    5.84    0.53
   9  11  -6    5.71    0.57
   8  11  -6   -0.13    0.11
   8  11  -6   -0.01    0.13
  -8  11   6   -0.03    0.13
  -7  11   6    2.93    0.37
   7  11  -6    2.78    0.37
   7  11  -6    2.16    0.32
   6  11  -6    0.93    0.22
   6  11  -6    1.18    0.24
   5 -11  -6    0.25    0.17
   5  11  -6    0.37    0.16
   5  11  -6    0.32    0.17
  -5  11   6    0.18    0.10
   4 -11  -6    1.56    0.31
  -4  11   6    1.65    0.22
   4  11  -6    1.70    0.28
   4  11  -6    1.49    0.25
   3 -11  -6    2.05    0.35
  -3  11   6    1.94    0.27
   3  11  -6    1.96    0.31
   3  11  -6    2.24    0.32
   2 -11  -6   17.24    1.49
  -2  11   6   15.76    1.25
   2  11  -6   18.26    1.33
   2  11  -6   17.75    1.27
   1 -11  -6    6.34    0.69
   1  11  -6    5.71    0.52
  -1  11   6    5.93    0.53
   1  11  -6    5.97    0.58
   0 -11  -6   12.82    1.27
   0  11  -6   13.97    1.11
   0  11  -6   13.79    1.03
   0  11   6   14.19    1.06
  -1 -11  -6    1.02    0.33
   1  11   6    1.10    0.24
  -1  11  -6    1.28    0.22
  -1  11  -6    1.28    0.26
  -2 -11  -6    7.32    0.87
  -2  11  -6    5.72    0.61
   2  11   6    6.24    0.59
  -2  11  -6    6.66    0.56
  -3 -11  -6    0.13    0.23
  -3  11  -6   -0.02    0.10
   3  11   6    0.16    0.17
  -3  11  -6    0.34    0.18
  -4 -11  -6    0.07    0.24
  -4  11  -6    0.34    0.14
   4  11   6   -0.06    0.13
  -4  11  -6    0.25    0.18
  -5 -11  -6    0.25    0.29
  -5  11  -6    0.28    0.17
  -5  11  -6    0.54    0.16
   5  11   6    0.37    0.20
  -6 -11  -6    0.99    0.40
  -6  11  -6    0.66    0.23
   6  11   6    0.48    0.20
  -6  11  -6    1.08    0.22
  -7 -11  -6   -0.14    0.25
  -7  11  -6   -0.08    0.15
   7  11   6    0.02    0.18
   9  12  -6    0.63    0.22
   9  12  -6    0.53    0.19
  -9  12   6    0.84    0.21
  -8  12   6    0.42    0.16
   8  12  -6   -0.03    0.13
   8  12  -6    0.00    0.14
   7  12  -6    0.49    0.19
   7  12  -6    0.42    0.17
  -7  12   6    0.55    0.19
   6  12  -6    2.81    0.39
   6  12  -6    2.98    0.39
   5  12  -6    2.26    0.34
   5  12  -6    2.32    0.35
   4 -12  -6   -0.01    0.15
   4  12  -6    0.30    0.17
   4  12  -6    0.21    0.14
  -4  12   6    0.18    0.11
   3 -12  -6    5.32    0.61
   3  12  -6    4.42    0.51
   3  12  -6    4.93    0.48
  -3  12   6    4.26    0.42
   2 -12  -6    0.80    0.26
   2  12  -6    0.48    0.17
  -2  12   6    0.45    0.16
   2  12  -6    0.43    0.19
   1 -12  -6    5.00    0.64
   1  12  -6    5.23    0.49
  -1  12   6    4.81    0.52
   1  12  -6    5.28    0.54
   0 -12  -6    1.32    0.34
   0  12  -6    1.14    0.26
   0  12   6    1.82    0.29
   0  12  -6    1.41    0.24
  -1 -12  -6    5.90    0.76
   1  12   6    5.68    0.56
  -1  12  -6    6.36    0.54
  -1  12  -6    5.40    0.62
  -2 -12  -6    3.55    0.60
   2  12   6    4.71    0.52
  -2  12  -6    4.46    0.53
  -2  12  -6    4.53    0.43
  -3 -12  -6    1.84    0.47
   3  12   6    2.40    0.37
  -3  12  -6    1.88    0.35
  -3  12  -6    3.18    0.35
  -4 -12  -6    0.24    0.28
  -4  12  -6    0.02    0.11
   4  12   6   -0.02    0.16
  -4  12  -6    0.14    0.17
  -5 -12  -6    1.77    0.48
  -5  12  -6    1.58    0.26
  -5  12  -6    0.86    0.28
   5  12   6    1.44    0.31
   7  13  -6    1.10    0.25
   7  13  -6    1.19    0.27
  -7  13   6    1.04    0.27
   6  13  -6   -0.06    0.14
  -6  13   6   -0.09    0.13
   6  13  -6   -0.08    0.13
   5  13  -6    1.94    0.33
   5  13  -6    2.61    0.36
   4 -13  -6    2.07    0.38
   4  13  -6    2.16    0.33
   4  13  -6    1.53    0.31
   3 -13  -6    1.33    0.32
  -3  13   6    1.61    0.23
   3  13  -6    1.02    0.24
   3  13  -6    0.98    0.25
   2 -13  -6    0.39    0.21
  -2  13   6    0.09    0.13
   2  13  -6   -0.13    0.14
   2  13  -6    0.38    0.17
   1 -13  -6    1.59    0.35
   1  13  -6    1.72    0.33
  -1  13   6    1.87    0.29
   1  13  -6    2.27    0.31
   0 -13  -6    0.06    0.19
   0  13   6    0.06    0.14
   0  13  -6    0.12    0.12
   0  13  -6   -0.06    0.15
  -1 -13  -6    0.23    0.24
  -1  13  -6    0.37    0.16
   1  13   6    0.55    0.21
  -1  13  -6    0.40    0.20
  -2 -13  -6    0.17    0.24
  -2  13  -6    0.30    0.19
   2  13   6    0.33    0.20
  -2  13  -6   -0.10    0.10
  -3 -13  -6   -0.16    0.19
  -3  13  -6   -0.04    0.13
  -3  13  -6    0.01    0.17
   3  13   6    0.01    0.17
   4  14  -6   -0.03    0.16
   3 -14  -6    4.71    0.63
   3  14  -6    4.56    0.55
   3  14  -6    4.78    0.54
   2 -14  -6    0.40    0.24
   2  14  -6    0.40    0.18
   2  14  -6    0.48    0.22
  -2  14   6    0.54    0.18
   1 -14  -6    4.71    0.64
  -1  14   6    4.95    0.52
   1  14  -6    4.16    0.55
   1  14  -6    4.52    0.51
  14   0  -7   -0.04    0.07
  13   0  -7    4.38    0.36
  12   0  -7   -0.18    0.06
 -11   0   7   10.83    1.00
  11   0  -7   11.52    0.80
 -10   0   7   -0.14    0.09
  10   0  -7    0.07    0.05
   9   0  -7    4.32    0.34
  -9   0   7    4.66    0.45
  -8   0   7   -0.01    0.02
   8   0  -7    0.03    0.04
  -8   0   7    0.02    0.08
  -7   0   7   75.54    5.84
  -7   0   7   78.37    5.27
   7   0  -7   84.88    5.30
   7   0  -7   70.80    5.13
   6   0  -7   -0.02    0.06
   6   0  -7    0.02    0.04
  -6   0   7    0.09    0.06
   5   0  -7    2.88    0.28
   5   0  -7    2.23    0.23
   5   0  -7    2.97    0.28
  -5   0   7    3.72    0.27
   4   0  -7   -0.02    0.03
   4   0  -7    0.03    0.07
   4   0  -7   -0.06    0.04
   3   0  -7  116.77    7.07
   3   0  -7   95.59    7.28
   2   0  -7   -0.14    0.07
   2   0  -7   -0.08    0.05
   1   0  -7   77.52    5.33
   1   0  -7   76.21    5.14
   0   0  -7    0.12    0.10
   0   0  -7    0.04    0.07
  -1   0  -7    5.65    0.46
  -1   0  -7    5.35    0.51
  -2   0  -7    0.03    0.09
  -3   0  -7    0.21    0.12
  -4   0  -7    0.00    0.12
  -5   0  -7    0.77    0.22
  -6   0  -7   -0.06    0.12
  -7   0  -7   -0.17    0.14
  -8   0  -7   -0.12    0.11
  -9   0  -7   12.36    1.07
 -10   0  -7   -0.13    0.14
 -11   0  -7    3.40    0.61
 -11   0  -7    2.50    0.44
 -12   0  -7   -0.14    0.14
 -12   0  -7    0.05    0.25
  15   1  -7    9.01    0.69
  14   1  -7    5.81    0.47
  13  -1  -7   21.13    1.44
  13   1  -7   21.02    1.47
  12  -1  -7    0.82    0.12
  12   1  -7    1.27    0.16
 -11  -1   7   12.82    1.10
  11  -1  -7   12.25    0.86
  11   1  -7   12.11    0.88
 -11   1   7   12.23    1.08
  10  -1  -7    5.17    0.40
 -10  -1   7    5.96    0.56
 -10   1   7    5.12    0.54
  10   1  -7    5.56    0.43
   9  -1  -7    3.72    0.29
  -9  -1   7    3.73    0.40
  -9   1   7    3.63    0.39
   9   1  -7    3.94    0.31
  -8  -1   7    0.60    0.13
   8  -1  -7    0.42    0.08
  -8  -1   7    0.53    0.06
  -8   1   7    0.53    0.08
  -8   1   7    0.54    0.13
   8   1  -7    0.61    0.10
  -8   1   7    0.52    0.09
   8   1  -7    0.51    0.09
  -7  -1   7    6.41    0.57
   7  -1  -7    6.28    0.48
  -7  -1   7    6.93    0.48
  -7   1   7    7.17    0.50
   7   1  -7    6.46    0.49
  -7   1   7    6.06    0.47
   7   1  -7    7.04    0.62
   7   1  -7    7.13    0.51
  -6  -1   7    0.61    0.10
   6  -1  -7    0.50    0.09
  -6  -1   7    0.57    0.09
   6   1  -7    0.62    0.14
   6   1  -7    0.50    0.09
  -6   1   7    0.64    0.08
  -6   1   7    0.53    0.10
   6   1  -7    0.62    0.11
   5  -1  -7    3.66    0.31
  -5  -1   7    4.55    0.33
   5  -1  -7    3.85    0.35
   5   1  -7    3.93    0.37
   5   1  -7    3.56    0.31
   5   1  -7    3.65    0.33
  -5   1   7    4.10    0.34
   4  -1  -7    0.02    0.05
   4  -1  -7    0.09    0.08
   4   1  -7    0.24    0.06
   4   1  -7    0.07    0.07
   4   1  -7    0.12    0.06
   3  -1  -7   29.11    2.01
   3  -1  -7   31.74    2.11
   3   1  -7   28.05    2.00
   3   1  -7   29.46    2.22
   2  -1  -7   18.22    1.23
   2  -1  -7   16.68    1.15
   2   1  -7   15.49    1.14
   2   1  -7   15.10    1.19
   1  -1  -7    0.85    0.17
   1  -1  -7    0.66    0.12
   1   1  -7    0.77    0.15
   1   1  -7    0.59    0.11
   0  -1  -7   12.29    0.97
   0   1  -7   12.01    0.94
  -1  -1  -7   10.41    0.89
  -1   1  -7   10.89    0.82
  -1   1  -7   11.93    0.89
  -2  -1  -7    0.68    0.17
  -2   1  -7    0.47    0.11
  -2   1  -7    0.95    0.19
  -3  -1  -7    2.74    0.36
  -3   1  -7    2.44    0.34
  -4  -1  -7   10.47    0.91
  -4   1  -7   11.27    0.91
  -5  -1  -7    6.02    0.61
  -5   1  -7    6.63    0.62
  -6  -1  -7    0.76    0.23
  -6   1  -7    1.52    0.28
  -7  -1  -7    6.80    0.66
  -7   1  -7    5.92    0.67
  -8  -1  -7   -0.02    0.17
  -8  -1  -7   -0.11    0.12
  -8   1  -7    0.09    0.14
  -9  -1  -7    2.53    0.44
  -9  -1  -7    3.24    0.57
  -9   1  -7    2.07    0.39
 -10  -1  -7    1.35    0.38
 -10  -1  -7    1.49    0.32
 -10   1  -7    1.06    0.29
 -11  -1  -7    0.07    0.19
 -11  -1  -7    0.40    0.30
 -11   1  -7    0.37    0.22
 -12  -1  -7    1.36    0.32
 -12   1  -7    1.06    0.29
  16   2  -7    0.56    0.15
  15   2  -7    0.35    0.13
  14   2  -7    0.05    0.09
  13   2  -7    1.49    0.20
  12  -2  -7    0.03    0.06
  12   2  -7    0.06    0.09
 -11  -2   7   22.28    1.84
  11  -2  -7   21.17    1.47
  11   2  -7   22.53    1.52
  10  -2  -7    3.79    0.29
 -10  -2   7    3.96    0.45
 -10   2   7    3.75    0.43
  10   2  -7    4.19    0.34
  -9  -2   7   16.03    1.29
   9  -2  -7   14.95    1.05
   9   2  -7   18.53    1.38
   9   2  -7   16.38    1.08
   9   2  -7   13.99    1.09
  -9   2   7   14.80    1.27
  -9   2   7   15.36    1.09
   8  -2  -7    6.59    0.50
  -8  -2   7    7.18    0.63
   8   2  -7    7.47    0.69
  -8   2   7    7.01    0.50
   8   2  -7    6.71    0.53
  -8   2   7    7.21    0.62
  -8   2   7    7.48    0.53
   8   2  -7    7.07    0.52
  -7  -2   7    4.04    0.39
   7  -2  -7    3.96    0.31
  -7  -2   7    4.37    0.31
  -7   2   7    4.05    0.30
  -7   2   7    4.76    0.35
   7   2  -7    4.46    0.34
   7   2  -7    3.84    0.44
   7   2  -7    3.68    0.33
  -6  -2   7   16.58    1.05
   6  -2  -7   14.30    1.03
  -6  -2   7   15.21    1.17
   6   2  -7   13.84    1.04
   6   2  -7   16.01    1.24
   6   2  -7   15.22    1.08
  -6   2   7   14.31    1.08
  -6   2   7   14.56    1.01
  -5  -2   7    0.15    0.05
   5  -2  -7    0.13    0.06
   5   2  -7    0.11    0.06
   5   2  -7    0.39    0.11
  -5   2   7    0.16    0.04
   5   2  -7    0.12    0.07
   4  -2  -7    2.28    0.19
   4  -2  -7    2.24    0.22
   4   2  -7    1.68    0.23
   4   2  -7    3.05    0.26
   4   2  -7    2.34    0.21
   3  -2  -7   19.09    1.29
   3  -2  -7   15.09    1.31
   3  -2  -7   15.58    1.19
   3   2  -7   17.32    1.19
   3   2  -7   18.56    1.32
   3   2  -7   18.20    1.25
   2  -2  -7    1.90    0.19
   2  -2  -7    1.51    0.24
   2   2  -7    1.92    0.20
   2   2  -7    1.53    0.21
   2   2  -7    1.60    0.16
   1  -2  -7   42.95    3.10
   1   2  -7   45.42    3.07
   1   2  -7   42.83    2.95
   0  -2  -7    8.56    0.76
   0  -2  -7    9.43    0.76
   0   2  -7    9.51    0.72
   0   2  -7    8.49    0.67
  -1  -2  -7    0.74    0.16
  -1  -2  -7    0.33    0.14
  -1   2  -7    0.65    0.12
  -1   2  -7    0.64    0.15
  -2  -2  -7   17.93    1.43
  -2  -2  -7   14.94    1.30
  -2   2  -7   17.18    1.22
  -2   2  -7   17.67    1.29
  -3  -2  -7    0.33    0.14
  -3  -2  -7    0.01    0.09
  -3   2  -7   -0.09    0.07
  -3   2  -7    0.04    0.07
  -4  -2  -7    9.07    0.83
  -4  -2  -7    8.56    0.75
  -4   2  -7    7.41    0.71
  -5  -2  -7    0.29    0.16
  -5  -2  -7    0.55    0.22
  -5   2  -7    0.71    0.20
  -6  -2  -7    4.94    0.59
  -6  -2  -7    5.30    0.69
  -6   2  -7    5.83    0.61
  -7  -2  -7    2.25    0.45
  -7  -2  -7    2.16    0.36
  -7   2  -7    1.93    0.34
  -8  -2  -7   -0.01    0.13
  -8  -2  -7   -0.12    0.17
  -8   2  -7    0.10    0.15
  -9  -2  -7    2.48    0.42
  -9  -2  -7    2.89    0.56
  -9   2  -7    2.76    0.42
 -10  -2  -7    3.40    0.60
 -10  -2  -7    2.21    0.40
 -10   2  -7    2.08    0.37
 -11  -2  -7    3.54    0.65
 -11   2  -7    3.26    0.49
  16   3  -7    3.46    0.37
  15   3  -7    3.40    0.36
  14   3  -7    5.78    0.50
  13   3  -7    4.35    0.39
  12   3  -7   10.46    0.79
 -11   3   7    3.43    0.26
  11   3  -7    3.47    0.33
 -10  -3   7   14.69    1.25
 -10   3   7   13.06    1.03
  10   3  -7   15.85    1.32
  10   3  -7   15.26    1.05
 -10   3   7   14.51    1.01
  10   3  -7   14.71    1.02
   9  -3  -7    1.82    0.16
  -9  -3   7    2.17    0.31
   9   3  -7    2.14    0.24
   9   3  -7    1.96    0.18
   9   3  -7    3.25    0.42
  -9   3   7    2.14    0.22
   8  -3  -7    7.21    0.55
  -8  -3   7    7.64    0.70
   8   3  -7    8.25    0.59
  -8   3   7    7.68    0.60
   8   3  -7    7.98    0.60
   8   3  -7   10.02    0.80
  -7  -3   7    2.70    0.28
   7   3  -7    2.29    0.21
   7   3  -7    2.61    0.24
   7   3  -7    1.85    0.31
  -7   3   7    2.32    0.18
  -6  -3   7   19.02    1.39
   6   3  -7   17.23    1.25
   6   3  -7   17.55    1.44
  -6   3   7   16.89    1.18
   6   3  -7   17.63    1.23
  -5  -3   7   80.19    5.56
  -5   3   7   72.65    4.89
   5   3  -7   67.56    5.06
   5   3  -7   77.73    4.93
   5   3  -7   70.76    5.62
   4  -3  -7    0.89    0.12
  -4  -3   7    1.10    0.12
   4   3  -7    1.09    0.15
   4   3  -7    1.17    0.18
   4   3  -7    0.73    0.12
   3  -3  -7   12.98    0.99
   3   3  -7   11.99    0.99
   3   3  -7   12.04    0.92
   3   3  -7   12.72    0.89
   2  -3  -7   17.85    1.59
   2   3  -7   19.78    1.41
   2   3  -7   20.48    1.47
   2   3  -7   23.16    1.58
   1  -3  -7    5.27    0.49
   1   3  -7    5.37    0.42
   1   3  -7    4.72    0.44
   0  -3  -7    1.64    0.25
   0  -3  -7    2.08    0.30
   0   3  -7    1.48    0.18
   0   3  -7    1.77    0.23
  -1  -3  -7    0.34    0.13
  -1  -3  -7    0.39    0.14
  -1   3  -7    0.45    0.13
  -1   3  -7    0.31    0.09
  -2  -3  -7    0.80    0.19
  -2  -3  -7    0.76    0.20
  -2   3  -7    0.81    0.14
  -2   3  -7    0.67    0.16
  -3  -3  -7    0.01    0.09
  -3  -3  -7   -0.04    0.10
  -3   3  -7   -0.07    0.08
  -3   3  -7   -0.01    0.06
  -4  -3  -7    0.23    0.15
  -4  -3  -7   -0.08    0.10
  -4   3  -7   -0.02    0.07
  -4   3  -7    0.05    0.10
  -5  -3  -7    0.13    0.14
  -5  -3  -7    0.20    0.16
  -5   3  -7    0.07    0.12
  -6  -3  -7    0.83    0.28
  -6  -3  -7    0.61    0.22
  -6   3  -7    0.57    0.18
  -7  -3  -7    2.62    0.40
  -7  -3  -7    2.38    0.48
  -7   3  -7    2.77    0.38
  -8  -3  -7    4.43    0.65
  -8   3  -7    3.65    0.48
  -9  -3  -7    0.06    0.22
  -9   3  -7    0.04    0.15
 -10  -3  -7    0.80    0.35
 -10   3  -7    0.11    0.16
 -11  -3  -7    3.86    0.68
 -11   3  -7    3.20    0.48
  16   4  -7    0.02    0.11
  15   4  -7   -0.04    0.10
  14   4  -7    0.11    0.11
  13   4  -7    6.15    0.52
  12   4  -7    4.86    0.44
 -11   4   7   -0.22    0.05
  11   4  -7   -0.01    0.06
  11   4  -7   -0.03    0.09
 -10  -4   7   12.97    1.16
 -10   4   7   13.23    0.94
  10   4  -7   13.12    0.94
  10   4  -7   12.67    0.97
  10   4  -7   14.97    1.25
  -9  -4   7    3.03    0.39
   9   4  -7    3.14    0.46
   9   4  -7    2.80    0.28
   9   4  -7    2.69    0.25
  -8  -4   7    1.87    0.28
   8   4  -7    1.85    0.32
   8   4  -7    2.15    0.20
   8   4  -7    2.13    0.24
  -7  -4   7   17.44    1.29
   7   4  -7   15.29    1.13
  -7   4   7   15.30    1.05
   7   4  -7   15.98    1.13
   7   4  -7   15.40    1.35
  -6  -4   7    4.27    0.39
  -6   4   7    4.18    0.29
   6   4  -7    4.29    0.35
   6   4  -7    3.75    0.44
   6   4  -7    3.71    0.34
  -5  -4   7   12.77    0.97
  -5   4   7   11.74    0.83
   5   4  -7   11.54    1.02
   5   4  -7   12.42    0.89
   5   4  -7   11.59    0.87
  -4  -4   7   34.84    2.55
   4  -4  -7   32.95    2.55
   4   4  -7   36.27    2.61
   4   4  -7   30.02    2.26
   4   4  -7   33.11    2.34
   3  -4  -7   37.40    3.09
   3   4  -7   40.02    2.82
   3   4  -7   44.85    3.11
   3   4  -7   39.74    2.73
   2  -4  -7   10.98    0.92
   2   4  -7   11.65    0.85
   2   4  -7   11.32    0.90
   2   4  -7   10.35    0.80
   1  -4  -7   30.90    2.83
   1   4  -7   37.41    2.79
   1   4  -7   36.68    2.48
   1   4  -7   41.11    2.59
   0  -4  -7   37.56    3.19
   0   4  -7   43.09    3.13
   0   4  -7   40.08    2.88
   0   4  -7   42.46    2.78
  -1  -4  -7    7.67    0.76
  -1   4  -7    8.96    0.63
  -1   4  -7    7.53    0.67
  -2  -4  -7   11.84    1.01
  -2   4  -7   10.19    0.87
  -2   4  -7   10.90    0.81
  -3  -4  -7    0.46    0.17
  -3   4  -7    0.30    0.13
  -3   4  -7    0.44    0.12
  -4  -4  -7    0.65    0.23
  -4   4  -7    0.74    0.19
  -4   4  -7    0.63    0.14
  -5  -4  -7   -0.19    0.11
  -5   4  -7    0.07    0.12
  -5   4  -7   -0.03    0.08
  -6  -4  -7    0.41    0.23
  -6   4  -7    0.37    0.16
  -7  -4  -7   -0.05    0.20
  -7   4  -7   -0.08    0.12
  -8  -4  -7    1.17    0.37
  -8   4  -7    1.04    0.25
  -9  -4  -7    0.13    0.25
  -9   4  -7    0.04    0.13
 -10  -4  -7    0.18    0.30
 -10   4  -7    0.49    0.21
 -11  -4  -7    0.08    0.27
 -11   4  -7    0.00    0.15
  16   5  -7    0.37    0.15
  15   5  -7    2.51    0.33
  14   5  -7   11.70    0.91
  13   5  -7    0.27    0.13
  12   5  -7    3.32    0.37
 -11   5   7    0.02    0.06
  11   5  -7    0.12    0.12
  11   5  -7   -0.09    0.06
  10   5  -7   14.06    1.06
  10   5  -7   14.37    1.09
 -10   5   7   16.00    1.06
  -9  -5   7   14.95    1.26
   9   5  -7   16.19    1.34
   9   5  -7   13.63    1.06
   9   5  -7   14.36    1.04
  -8  -5   7   19.63    1.62
   8   5  -7   21.98    1.72
   8   5  -7   19.55    1.41
   8   5  -7   19.24    1.41
  -7  -5   7    1.80    0.26
   7   5  -7    2.46    0.37
   7   5  -7    1.99    0.21
   7   5  -7    2.18    0.25
  -6  -5   7   21.78    1.64
  -6   5   7   20.68    1.39
   6   5  -7   19.77    1.45
   6   5  -7   19.58    1.47
   6   5  -7   22.02    1.73
  -5  -5   7    0.46    0.10
   5  -5  -7    0.35    0.09
   5   5  -7    0.27    0.14
   5   5  -7    0.23    0.09
  -5   5   7    0.38    0.07
   5   5  -7    0.19    0.09
  -4  -5   7    6.21    0.50
   4  -5  -7    4.84    0.50
   4   5  -7    5.91    0.56
   4   5  -7    6.40    0.48
   4   5  -7    5.69    0.46
   3  -5  -7    2.47    0.26
   3   5  -7    1.63    0.22
   3   5  -7    2.32    0.28
   3   5  -7    1.73    0.22
   2  -5  -7    1.14    0.20
   2   5  -7    1.07    0.17
   2   5  -7    1.56    0.18
   2   5  -7    1.36    0.20
   1  -5  -7    2.71    0.36
   1   5  -7    3.29    0.28
   1   5  -7    2.63    0.31
   1   5  -7    2.88    0.29
   0  -5  -7    1.58    0.29
   0   5  -7    1.78    0.22
   0   5  -7    1.86    0.25
   0   5  -7    2.30    0.23
  -1  -5  -7    0.00    0.11
  -1   5  -7    0.34    0.09
  -1   5  -7    0.18    0.11
  -1   5  -7    0.19    0.08
  -2  -5  -7    8.41    0.85
  -2   5  -7    9.17    0.67
  -2   5  -7    8.04    0.71
  -3  -5  -7   15.87    1.48
  -3   5  -7   16.93    1.29
  -3   5  -7   17.20    1.21
  -4  -5  -7    0.33    0.21
  -4   5  -7    0.34    0.15
  -4   5  -7    0.26    0.10
  -5  -5  -7    0.01    0.17
  -5   5  -7   -0.01    0.08
  -5   5  -7   -0.05    0.10
  -6  -5  -7   -0.03    0.16
  -6   5  -7    0.33    0.16
  -7  -5  -7    0.12    0.21
  -7   5  -7    0.16    0.16
  -8  -5  -7    0.08    0.22
  -8   5  -7    0.15    0.15
  -9  -5  -7    2.98    0.60
  -9   5  -7    2.83    0.41
 -10  -5  -7    2.30    0.59
 -10   5  -7    2.76    0.41
 -11  -5  -7   -0.31    0.25
 -11   5  -7    0.08    0.16
  15   6  -7    0.25    0.16
  14   6  -7    3.19    0.39
  13   6  -7    1.98    0.29
  12   6  -7    0.87    0.19
  11   6  -7    8.80    0.71
 -11   6   7    9.04    0.66
  11   6  -7    8.45    0.66
 -10   6   7    6.15    0.48
  10   6  -7    5.82    0.52
  10   6  -7    5.64    0.47
   9   6  -7    1.38    0.22
   9   6  -7    1.65    0.19
  -8  -6   7    0.96    0.22
   8   6  -7    1.25    0.16
   8   6  -7    0.83    0.17
   8   6  -7    0.96    0.28
  -7  -6   7    5.56    0.53
   7   6  -7    5.97    0.62
   7   6  -7    4.92    0.46
   7   6  -7    5.32    0.44
  -6  -6   7    8.08    0.71
   6   6  -7    8.47    0.63
   6   6  -7    8.30    0.80
  -6   6   7    7.65    0.56
   6   6  -7    8.15    0.64
   5  -6  -7    3.00    0.33
  -5  -6   7    3.66    0.35
   5   6  -7    3.28    0.43
   5   6  -7    3.15    0.32
   5   6  -7    3.75    0.32
   4  -6  -7    8.86    0.74
  -4  -6   7    8.06    0.72
   4   6  -7    8.87    0.66
   4   6  -7    8.58    0.79
   4   6  -7    8.62    0.67
   3  -6  -7   -0.02    0.08
  -3  -6   7    0.00    0.06
   3   6  -7    0.04    0.07
   3   6  -7    0.06    0.08
   3   6  -7   -0.03    0.07
   2  -6  -7   21.21    1.82
   2   6  -7   24.21    1.65
   2   6  -7   23.57    1.58
   2   6  -7   21.73    1.80
   1  -6  -7    7.09    0.68
   1   6  -7    7.27    0.60
   1   6  -7    6.71    0.62
   1   6  -7    7.43    0.56
   0  -6  -7   16.57    1.53
   0   6  -7   19.37    1.37
   0   6  -7   18.32    1.29
   0   6  -7   18.40    1.45
  -1  -6  -7    0.04    0.12
  -1   6  -7    0.00    0.07
  -1   6  -7   -0.03    0.09
  -1   6  -7   -0.01    0.06
  -2  -6  -7    3.87    0.53
  -2   6  -7    3.85    0.37
  -2   6  -7    3.17    0.39
  -2   6  -7    3.32    0.33
  -3  -6  -7    0.27    0.19
  -3   6  -7    0.38    0.16
  -3   6  -7    0.41    0.12
  -4  -6  -7    0.34    0.22
  -4   6  -7    0.16    0.14
  -4   6  -7    0.11    0.09
  -5  -6  -7    2.74    0.49
  -5   6  -7    2.65    0.31
  -5   6  -7    2.08    0.33
  -6  -6  -7    3.87    0.62
  -6   6  -7    2.89    0.41
  -6   6  -7    3.58    0.39
  -7  -6  -7    1.26    0.40
  -7   6  -7    0.41    0.19
  -8  -6  -7   -0.06    0.22
  -8   6  -7    0.01    0.13
  -9  -6  -7    2.71    0.59
  -9   6  -7    3.05    0.44
 -10  -6  -7   -0.02    0.26
 -10   6  -7    0.20    0.17
  15   7  -7    1.70    0.31
  14   7  -7    6.59    0.61
  13   7  -7    2.41    0.34
  12   7  -7    2.42    0.32
  11   7  -7   11.21    0.94
  11   7  -7   12.38    0.90
 -11   7   7   12.30    0.90
  10   7  -7   18.42    1.36
  10   7  -7   19.52    1.33
 -10   7   7   17.50    1.33
   9   7  -7    3.60    0.33
   9   7  -7    3.35    0.38
   8   7  -7    8.19    0.68
   8   7  -7    8.43    0.65
  -7  -7   7    0.84    0.20
  -7   7   7    0.75    0.08
   7   7  -7    0.44    0.15
   7   7  -7    0.72    0.14
   7   7  -7    0.68    0.25
  -7   7   7    0.78    0.08
  -6  -7   7    0.50    0.14
  -6   7   7    0.32    0.07
  -6   7   7    0.49    0.08
   6   7  -7    0.27    0.19
   6   7  -7    0.39    0.13
   6   7  -7    0.40    0.12
   5  -7  -7   11.46    1.11
  -5  -7   7   12.14    1.11
   5   7  -7   15.40    1.02
   5   7  -7   14.22    1.22
   5   7  -7   15.27    1.01
  -4  -7   7    4.09    0.43
   4  -7  -7    4.40    0.45
   4   7  -7    4.99    0.41
   4   7  -7    4.64    0.51
   4   7  -7    4.85    0.42
   3  -7  -7    3.34    0.40
  -3  -7   7    4.22    0.38
   3   7  -7    3.40    0.44
   3   7  -7    3.91    0.35
   3   7  -7    3.69    0.36
   2  -7  -7    6.53    0.65
   2   7  -7    6.56    0.63
   2   7  -7    6.78    0.57
   2   7  -7    6.83    0.54
   1  -7  -7    1.17    0.25
   1   7  -7    1.12    0.18
   1   7  -7    1.29    0.21
   1   7  -7    1.17    0.21
   0  -7  -7   -0.11    0.11
   0   7  -7   -0.03    0.06
   0   7  -7    0.06    0.10
   0   7  -7    0.08    0.08
  -1  -7  -7    0.30    0.19
  -1   7  -7    0.10    0.09
  -1   7  -7   -0.07    0.09
  -1   7  -7    0.35    0.11
  -2  -7  -7   -0.01    0.15
  -2   7  -7    0.01    0.11
  -2   7  -7    0.00    0.08
  -2   7  -7   -0.06    0.07
  -3  -7  -7    3.55    0.55
  -3   7  -7    3.16    0.41
  -3   7  -7    4.04    0.36
  -4  -7  -7    3.15    0.53
  -4   7  -7    1.76    0.32
  -4   7  -7    2.76    0.31
  -5  -7  -7   11.43    1.14
  -5   7  -7    9.59    0.90
  -5   7  -7   11.63    0.86
  -6  -7  -7    2.29    0.52
  -6   7  -7    3.04    0.42
  -6   7  -7    3.11    0.36
  -7  -7  -7    0.87    0.36
  -7   7  -7    1.26    0.26
  -8  -7  -7   -0.30    0.19
  -8   7  -7   -0.11    0.13
  -9  -7  -7    0.24    0.30
  -9   7  -7    0.66    0.23
 -10  -7  -7    2.84    0.66
 -10   7  -7    2.02    0.37
  14   8  -7    0.44    0.21
  13   8  -7    4.70    0.53
  12   8  -7    3.45    0.43
 -11   8   7    0.53    0.15
  11   8  -7    0.56    0.14
  11   8  -7    0.55    0.19
  10   8  -7    0.26    0.14
 -10   8   7    0.16    0.10
  10   8  -7    0.33    0.11
   9   8  -7    2.93    0.35
   9   8  -7    3.33    0.32
  -9   8   7    2.85    0.33
   8   8  -7    0.15    0.13
   8   8  -7    0.00    0.09
   7   8  -7    1.44    0.23
  -7   8   7    1.47    0.13
   7   8  -7    1.40    0.21
  -6  -8   7    2.99    0.39
  -6   8   7    3.20    0.26
   6   8  -7    3.19    0.33
   6   8  -7    3.06    0.35
  -5  -8   7    5.64    0.57
   5  -8  -7    6.04    0.59
   5   8  -7    6.28    0.70
  -5   8   7    6.51    0.47
   5   8  -7    5.68    0.52
   5   8  -7    6.26    0.53
  -4  -8   7   37.85    2.84
   4  -8  -7   35.71    2.85
   4   8  -7   34.42    2.51
   4   8  -7   40.84    2.60
   4   8  -7   33.20    2.91
  -3  -8   7   19.49    1.57
   3  -8  -7   19.42    1.62
   3   8  -7   19.75    1.41
   3   8  -7   20.04    1.46
   2  -8  -7    5.87    0.60
   2   8  -7    5.51    0.52
   2   8  -7    6.15    0.49
   2   8  -7    5.23    0.58
   1  -8  -7   30.15    2.61
   1   8  -7   36.25    2.26
   1   8  -7   30.85    2.34
   0  -8  -7   12.36    1.21
   0   8  -7   13.93    1.08
   0   8  -7   14.20    1.01
  -1  -8  -7   11.03    1.07
  -1   8  -7   10.61    0.91
  -1   8  -7   11.85    0.85
  -2  -8  -7   15.09    1.50
  -2   8  -7   17.93    1.23
  -2   8  -7   16.70    1.30
  -3  -8  -7    7.80    0.93
  -3   8  -7    6.70    0.68
  -3   8  -7    8.37    0.63
  -4  -8  -7    5.53    0.75
  -4   8  -7    5.17    0.47
  -4   8  -7    4.78    0.55
  -5  -8  -7    0.16    0.24
  -5   8  -7    0.50    0.15
  -5   8  -7    0.00    0.14
  -6  -8  -7    0.05    0.22
  -6   8  -7   -0.20    0.11
  -6   8  -7    0.03    0.10
  -7  -8  -7   -0.02    0.22
  -7   8  -7    0.13    0.15
  -7   8  -7   -0.01    0.11
  -8  -8  -7    2.93    0.61
  -8   8  -7    1.57    0.32
  -9  -8  -7    2.56    0.63
  -9   8  -7    4.28    0.52
  13   9  -7    4.91    0.55
  12   9  -7   -0.05    0.14
 -11   9   7    4.92    0.45
  11   9  -7    4.81    0.44
  11   9  -7    4.72    0.53
  10   9  -7    0.25    0.16
 -10   9   7    0.69    0.16
  10   9  -7    0.55    0.16
   9   9  -7    1.51    0.26
   9   9  -7    1.60    0.23
  -9   9   7    1.19    0.22
   8   9  -7    6.15    0.53
   8   9  -7    5.84    0.55
   7   9  -7    0.02    0.10
   7   9  -7    0.21    0.13
   6   9  -7    2.26    0.30
  -6   9   7    2.65    0.23
   6   9  -7    2.69    0.33
   5  -9  -7   -0.04    0.11
   5   9  -7    0.10    0.12
  -5   9   7    0.08    0.08
   5   9  -7    0.13    0.12
   4  -9  -7   13.31    1.11
   4   9  -7   11.41    0.98
  -4   9   7   13.08    0.93
   4   9  -7   13.04    0.97
   3  -9  -7   10.90    1.04
  -3  -9   7   12.21    1.02
  -3   9   7   11.87    0.89
   3   9  -7   11.65    0.94
   3   9  -7   12.63    0.91
   2  -9  -7    1.03    0.25
   2   9  -7    1.18    0.23
   2   9  -7    1.17    0.21
   1  -9  -7   10.83    1.00
   1   9  -7   10.37    0.86
   1   9  -7   10.40    0.81
   0  -9  -7    1.62    0.34
   0   9  -7    1.54    0.28
   0   9  -7    1.70    0.24
  -1  -9  -7    0.34    0.21
  -1   9  -7    0.62    0.15
  -1   9  -7   -0.06    0.11
  -2  -9  -7   10.66    1.07
  -2   9  -7   10.63    0.81
  -2   9  -7    9.91    0.88
  -3  -9  -7    1.12    0.33
  -3   9  -7    0.68    0.20
  -3   9  -7    0.82    0.17
  -4  -9  -7    0.20    0.23
  -4   9  -7    0.42    0.18
  -4   9  -7    0.42    0.14
  -5  -9  -7    0.47    0.29
  -5   9  -7    0.26    0.17
  -5   9  -7    0.32    0.14
  -6  -9  -7    0.22    0.27
  -6   9  -7    0.12    0.15
  -6   9  -7    0.18    0.12
  -7  -9  -7    0.57    0.32
  -7   9  -7    0.37    0.20
  -7   9  -7    0.74    0.20
  -8  -9  -7   -0.01    0.28
  -8   9  -7    0.44    0.21
  12  10  -7    0.21    0.18
  11  10  -7    0.27    0.18
  11  10  -7    0.77    0.19
 -11  10   7    0.79    0.17
  10  10  -7    1.51    0.28
 -10  10   7    1.43    0.23
  10  10  -7    1.16    0.21
  -9  10   7    0.01    0.12
   9  10  -7   -0.02    0.13
   9  10  -7    0.02    0.12
   8  10  -7   -0.08    0.11
   8  10  -7   -0.09    0.11
   7  10  -7    2.52    0.35
   7  10  -7    3.03    0.35
   6  10  -7    0.85    0.20
   6  10  -7    0.99    0.21
   5 -10  -7    1.98    0.32
   5  10  -7    1.77    0.28
  -5  10   7    2.29    0.24
   5  10  -7    1.90    0.28
   4 -10  -7    2.69    0.39
  -4  10   7    3.12    0.30
   4  10  -7    2.84    0.35
   4  10  -7    2.49    0.35
   3 -10  -7    7.81    0.83
  -3  10   7    9.41    0.70
   3  10  -7   10.23    0.74
   3  10  -7    8.32    0.75
   2 -10  -7    5.16    0.55
   2  10  -7    3.89    0.48
   2  10  -7    4.48    0.43
  -2  10   7    4.41    0.42
   1 -10  -7    6.66    0.69
   1  10  -7    6.52    0.54
   1  10  -7    5.94    0.58
  -1  10   7    5.37    0.53
   0 -10  -7    0.45    0.23
   0  10  -7    0.56    0.15
   0  10  -7    0.44    0.18
  -1 -10  -7    2.89    0.48
  -1  10  -7    3.44    0.36
  -1  10  -7    2.32    0.37
  -2 -10  -7    6.81    0.84
  -2  10  -7    6.32    0.65
  -2  10  -7    7.50    0.60
  -3 -10  -7    3.80    0.60
  -3  10  -7    3.18    0.36
  -3  10  -7    2.29    0.37
  -4 -10  -7    0.66    0.31
  -4  10  -7    0.50    0.15
  -4  10  -7    0.46    0.19
  -5 -10  -7    2.06    0.50
  -5  10  -7    1.85    0.33
  -5  10  -7    1.94    0.29
  -6 -10  -7    0.18    0.28
  -6  10  -7    0.10    0.12
  -6  10  -7    0.11    0.16
  -7 -10  -7    0.20    0.28
  -7  10  -7    0.18    0.14
  -7  10  -7   -0.06    0.16
  11  11  -7    3.10    0.44
  11  11  -7    3.17    0.38
 -11  11   7    3.24    0.39
  10  11  -7    0.51    0.20
  10  11  -7    0.75    0.20
 -10  11   7    0.64    0.19
  -9  11   7    0.34    0.16
   9  11  -7    0.13    0.16
   9  11  -7    0.01    0.14
   8  11  -7    2.35    0.36
  -8  11   7    2.65    0.35
   8  11  -7    2.87    0.36
   7  11  -7    0.68    0.19
   7  11  -7    0.15    0.14
   6  11  -7   -0.19    0.13
   6  11  -7    0.09    0.13
   5 -11  -7    3.09    0.44
  -5  11   7    3.33    0.32
   5  11  -7    3.56    0.42
   5  11  -7    3.85    0.43
   4 -11  -7    0.46    0.19
  -4  11   7    0.54    0.14
   4  11  -7    0.50    0.18
   4  11  -7    0.57    0.17
   3 -11  -7    0.81    0.23
   3  11  -7    0.74    0.19
  -3  11   7    0.80    0.17
   3  11  -7    0.72    0.21
   2 -11  -7    1.81    0.35
   2  11  -7    2.42    0.31
  -2  11   7    2.63    0.32
   2  11  -7    1.73    0.31
   1 -11  -7    5.86    0.75
   1  11  -7    6.06    0.62
   1  11  -7    6.79    0.58
  -1  11   7    7.28    0.59
   0 -11  -7   -0.23    0.15
   0  11  -7    0.15    0.12
   0  11  -7    0.03    0.14
   0  11   7   -0.28    0.10
  -1 -11  -7    1.74    0.40
  -1  11  -7    2.27    0.30
  -1  11  -7    1.84    0.32
   1  11   7    1.90    0.31
  -2 -11  -7    0.02    0.22
  -2  11  -7    0.35    0.15
   2  11   7    0.00    0.15
  -2  11  -7    0.27    0.17
  -3 -11  -7   -0.10    0.18
   3  11   7   -0.13    0.13
  -3  11  -7    0.04    0.12
  -3  11  -7    0.16    0.16
  -4 -11  -7    3.95    0.65
   4  11   7    2.79    0.42
  -4  11  -7    3.32    0.46
  -4  11  -7    3.63    0.41
  -5 -11  -7   -0.06    0.24
  -5  11  -7   -0.01    0.15
  -5  11  -7    0.12    0.12
   5  11   7   -0.28    0.12
  -6 -11  -7    0.01    0.27
   6  11   7   -0.09    0.15
  -6  11  -7   -0.07    0.16
  -6  11  -7    0.05    0.13
  -9  12   7    0.49    0.18
   9  12  -7    0.27    0.19
   9  12  -7    0.61    0.20
   8  12  -7    0.05    0.15
  -8  12   7    0.03    0.14
   8  12  -7   -0.17    0.12
   7  12  -7    0.22    0.16
   7  12  -7   -0.15    0.12
   6  12  -7    1.37    0.27
   6  12  -7    1.12    0.25
   5 -12  -7    1.03    0.26
   5  12  -7    0.64    0.20
   5  12  -7    0.83    0.22
   4 -12  -7    6.22    0.70
   4  12  -7    6.29    0.63
   4  12  -7    7.70    0.63
  -4  12   7    6.91    0.56
   3 -12  -7    0.52    0.21
   3  12  -7    0.56    0.21
   3  12  -7    0.52    0.18
  -3  12   7    0.54    0.16
   2 -12  -7    5.74    0.66
   2  12  -7    3.87    0.47
  -2  12   7    5.04    0.46
   2  12  -7    4.49    0.53
   1 -12  -7    9.81    0.97
   1  12  -7   10.04    0.79
  -1  12   7    9.23    0.78
   1  12  -7    9.08    0.84
   0 -12  -7   15.73    1.45
   0  12  -7   15.54    1.18
   0  12  -7   15.99    1.27
   0  12   7   15.44    1.19
  -1 -12  -7    6.94    0.86
  -1  12  -7    7.06    0.63
  -1  12  -7    7.28    0.72
   1  12   7    7.61    0.66
  -2 -12  -7   13.51    1.43
  -2  12  -7   15.70    1.15
   2  12   7   14.56    1.17
  -2  12  -7   15.90    1.26
  -3 -12  -7    6.67    0.90
   3  12   7    5.59    0.65
  -3  12  -7    7.01    0.59
  -3  12  -7    5.67    0.69
  -4 -12  -7    4.26    0.73
   4  12   7    5.06    0.58
  -4  12  -7    4.71    0.51
  -4  12  -7    4.81    0.61
   7  13  -7    0.64    0.21
  -7  13   7    0.49    0.21
   7  13  -7    0.62    0.22
   6  13  -7    0.65    0.21
   6  13  -7    0.95    0.24
   5  13  -7    1.10    0.27
   5  13  -7    1.10    0.25
   4 -13  -7   -0.02    0.15
   4  13  -7   -0.03    0.13
   4  13  -7    0.01    0.16
   3 -13  -7    0.07    0.16
   3  13  -7    0.09    0.17
  -3  13   7    0.07    0.12
   3  13  -7    0.06    0.13
   2 -13  -7    0.00    0.15
   2  13  -7   -0.09    0.14
  -2  13   7    0.04    0.13
   2  13  -7    0.26    0.15
   1 -13  -7    0.03    0.18
  -1  13   7    0.16    0.14
   1  13  -7    0.18    0.12
   1  13  -7   -0.10    0.15
   0 -13  -7    1.33    0.37
   0  13   7    1.74    0.30
   0  13  -7    1.73    0.28
   0  13  -7    1.75    0.33
  -1 -13  -7    0.39    0.28
  -1  13  -7    0.04    0.13
   1  13   7    0.21    0.16
  -1  13  -7    0.13    0.18
  -2 -13  -7    0.98    0.35
   2  13   7    1.35    0.28
  -2  13  -7    1.18    0.24
  -2  13  -7    0.79    0.25
  14   0  -8    0.80    0.13
  13   0  -8   -0.03    0.07
  12   0  -8   12.42    0.88
  11   0  -8   -0.08    0.06
  10   0  -8    0.07    0.05
   9   0  -8   -0.05    0.04
  -9   0   8   -0.03    0.02
  -8   0   8   10.76    0.71
   8   0  -8    8.97    0.70
   7   0  -8    0.04    0.08
  -7   0   8   -0.04    0.05
   7   0  -8    0.01    0.05
   6   0  -8    4.11    0.37
   6   0  -8    3.70    0.33
   6   0  -8    4.77    0.40
   5   0  -8    0.05    0.06
   5   0  -8   -0.03    0.05
   5   0  -8    0.02    0.08
   4   0  -8    0.51    0.11
   4   0  -8    0.74    0.08
   4   0  -8    0.68    0.15
   3   0  -8    0.00    0.06
   3   0  -8   -0.05    0.08
   2   0  -8   92.60    6.26
   2   0  -8   88.65    6.04
   1   0  -8   -0.13    0.08
   1   0  -8   -0.03    0.06
   0   0  -8   27.56    2.03
   0   0  -8   31.33    2.14
  -1   0  -8   -0.04    0.08
  -2   0  -8   10.98    0.92
  -3   0  -8   -0.17    0.10
  -4   0  -8   11.26    0.96
  -5   0  -8   -0.04    0.14
  -6   0  -8    0.80    0.24
  -7   0  -8   -0.41    0.12
  -8   0  -8    0.17    0.18
  -9   0  -8   -0.02    0.14
 -10   0  -8    3.94    0.55
 -11   0  -8    0.20    0.19
 -11   0  -8    0.11    0.26
  15   1  -8    1.49    0.21
  14   1  -8   21.12    1.48
  13  -1  -8    4.73    0.37
  13   1  -8    4.87    0.40
  12  -1  -8   20.71    1.39
  12   1  -8   19.92    1.41
  11  -1  -8    2.72    0.23
  11   1  -8    2.72    0.26
  10  -1  -8   10.56    0.74
 -10  -1   8   10.83    0.92
  10   1  -8   10.36    0.76
   9  -1  -8    0.02    0.04
   9   1  -8   -0.02    0.05
  -9   1   8   -0.05    0.03
   8  -1  -8    3.33    0.28
  -8  -1   8    3.56    0.27
   8   1  -8    3.46    0.40
   8   1  -8    3.41    0.30
  -8   1   8    3.75    0.29
   8   1  -8    3.88    0.31
   7  -1  -8    2.61    0.25
  -7  -1   8    3.62    0.25
  -7   1   8    2.93    0.27
   7   1  -8    3.09    0.34
   7   1  -8    2.89    0.28
   7   1  -8    2.93    0.26
   6  -1  -8    0.21    0.07
   6  -1  -8    0.33    0.11
   6   1  -8    0.49    0.12
   6   1  -8    0.24    0.09
   6   1  -8    0.30    0.08
   5  -1  -8   36.50    2.52
   5  -1  -8   36.37    2.63
   5   1  -8   38.35    2.53
   5   1  -8   40.55    2.86
   5   1  -8   34.53    2.61
   4  -1  -8   16.77    1.28
   4  -1  -8   16.13    1.35
   4   1  -8   18.78    1.35
   4   1  -8   18.16    1.28
   4   1  -8   21.22    1.42
   3  -1  -8    0.85    0.18
   3  -1  -8    0.80    0.14
   3   1  -8    1.00    0.10
   3   1  -8    1.13    0.18
   3   1  -8    1.01    0.14
   2  -1  -8   16.46    1.28
   2  -1  -8   17.79    1.21
   2   1  -8   15.82    1.25
   2   1  -8   17.33    1.20
   1  -1  -8   24.01    1.91
   1  -1  -8   26.73    1.83
   1   1  -8   27.51    1.83
   1   1  -8   26.53    1.91
   0  -1  -8    5.07    0.49
   0   1  -8    4.71    0.40
   0   1  -8    4.31    0.45
  -1  -1  -8    0.26    0.13
  -1   1  -8    0.16    0.11
  -1   1  -8    0.38    0.11
  -2  -1  -8   18.20    1.40
  -2   1  -8   18.39    1.38
  -2   1  -8   17.45    1.30
  -3  -1  -8    6.30    0.61
  -3   1  -8    6.19    0.60
  -4  -1  -8    3.02    0.42
  -4   1  -8    2.34    0.37
  -5  -1  -8    3.47    0.45
  -5   1  -8    2.64    0.40
  -6  -1  -8    0.57    0.21
  -6   1  -8    0.64    0.23
  -7  -1  -8    3.89    0.53
  -7   1  -8    4.39    0.54
  -8  -1  -8    1.49    0.33
  -8  -1  -8    2.27    0.47
  -8   1  -8    1.56    0.32
  -9  -1  -8    0.14    0.17
  -9  -1  -8   -0.03    0.18
  -9   1  -8    0.22    0.18
 -10  -1  -8    1.51    0.35
 -10  -1  -8    1.92    0.48
 -10   1  -8    1.35    0.33
 -11  -1  -8   -0.03    0.18
 -11  -1  -8    0.80    0.36
 -11   1  -8    0.36    0.20
  15   2  -8    0.24    0.12
  14   2  -8    0.22    0.11
  13   2  -8    0.67    0.14
  12  -2  -8   10.93    0.78
  12   2  -8   11.56    0.83
  11  -2  -8   11.24    0.79
  11   2  -8   11.34    0.83
 -10  -2   8    3.50    0.36
  10  -2  -8    2.85    0.23
 -10   2   8    2.71    0.22
  10   2  -8    2.56    0.26
  -9  -2   8    5.84    0.54
   9  -2  -8    5.29    0.43
  -9   2   8    6.20    0.42
   9   2  -8    5.98    0.61
  -9   2   8    5.47    0.44
   9   2  -8    6.30    0.45
   9   2  -8    5.70    0.46
  -8  -2   8    4.97    0.37
   8  -2  -8    4.80    0.38
  -8  -2   8    4.89    0.45
  -8   2   8    5.24    0.36
  -8   2   8    4.81    0.40
   8   2  -8    4.80    0.40
   8   2  -8    4.95    0.40
   8   2  -8    5.84    0.54
   7  -2  -8    0.51    0.10
  -7   2   8    0.76    0.09
   7   2  -8    0.96    0.13
   7   2  -8    0.61    0.11
   7   2  -8    0.75    0.17
   6  -2  -8    0.21    0.07
   6   2  -8    0.07    0.06
   6   2  -8    0.12    0.11
   6   2  -8    0.11    0.07
   5  -2  -8    0.87    0.14
   5   2  -8    0.99    0.14
   5   2  -8    1.16    0.18
   5   2  -8    1.02    0.16
   4  -2  -8   18.44    1.34
   4  -2  -8   15.54    1.31
   4  -2  -8   18.70    1.24
   4   2  -8   15.89    1.28
   4   2  -8   18.66    1.23
   3  -2  -8    0.08    0.10
   3  -2  -8    0.08    0.05
   3  -2  -8   -0.05    0.06
   3   2  -8    0.05    0.06
   3   2  -8    0.00    0.03
   3   2  -8    0.10    0.08
   2  -2  -8    1.02    0.21
   2  -2  -8    1.05    0.15
   2   2  -8    0.92    0.17
   2   2  -8    1.04    0.15
   1  -2  -8   46.99    3.20
   1  -2  -8   38.40    3.41
   1   2  -8   47.35    3.03
   1   2  -8   47.48    3.16
   0  -2  -8   23.06    2.01
   0  -2  -8   26.30    1.90
   0   2  -8   26.95    1.78
   0   2  -8   26.20    1.86
  -1  -2  -8    7.93    0.81
  -1  -2  -8   10.05    0.81
  -1   2  -8    8.88    0.76
  -1   2  -8   10.02    0.71
  -2  -2  -8   23.37    1.80
  -2  -2  -8   23.22    1.94
  -2   2  -8   22.74    1.76
  -2   2  -8   25.38    1.69
  -3  -2  -8   18.16    1.53
  -3  -2  -8   19.45    1.42
  -3   2  -8   18.19    1.38
  -3   2  -8   16.21    1.29
  -4  -2  -8    8.28    0.76
  -4  -2  -8    8.03    0.82
  -4   2  -8    7.78    0.72
  -5  -2  -8    4.69    0.61
  -5  -2  -8    4.92    0.58
  -5   2  -8    3.70    0.49
  -6  -2  -8    4.55    0.54
  -6  -2  -8    4.71    0.64
  -6   2  -8    3.46    0.48
  -7  -2  -8    1.15    0.28
  -7  -2  -8    1.15    0.34
  -7   2  -8    0.80    0.23
  -8  -2  -8    0.29    0.19
  -8  -2  -8    0.35    0.25
  -8   2  -8    0.18    0.17
  -9  -2  -8    0.49    0.22
  -9  -2  -8    0.10    0.23
  -9   2  -8    0.32    0.19
 -10  -2  -8    1.97    0.40
 -10  -2  -8    3.73    0.64
 -10   2  -8    2.47    0.41
 -11  -2  -8    2.11    0.54
 -11   2  -8    1.90    0.38
  16   3  -8    1.47    0.23
  15   3  -8    0.25    0.12
  14   3  -8    6.71    0.56
  13   3  -8    0.42    0.13
  12   3  -8   18.99    1.35
 -11   3   8   15.35    1.08
  11   3  -8   16.32    1.13
 -10  -3   8   14.35    1.19
  10  -3  -8   13.65    0.95
  10   3  -8   14.61    0.99
  10   3  -8   13.70    1.26
  10   3  -8   15.08    1.02
 -10   3   8   12.87    1.00
   9  -3  -8    3.63    0.29
  -9  -3   8    3.51    0.40
   9   3  -8    3.69    0.34
  -9   3   8    4.11    0.28
   9   3  -8    4.99    0.55
   9   3  -8    3.54    0.32
  -8  -3   8    6.50    0.54
   8  -3  -8    5.84    0.43
   8   3  -8    5.73    0.46
   8   3  -8    6.13    0.46
   8   3  -8    5.84    0.60
  -8   3   8    5.32    0.41
   7  -3  -8    4.24    0.35
  -7  -3   8    4.73    0.41
  -7   3   8    4.32    0.32
   7   3  -8    4.82    0.49
   7   3  -8    4.12    0.37
   7   3  -8    5.02    0.38
  -6  -3   8    1.00    0.13
   6   3  -8    0.91    0.14
   6   3  -8    0.81    0.14
   6   3  -8    1.03    0.20
  -6   3   8    1.04    0.11
  -5  -3   8    5.50    0.44
   5   3  -8    5.81    0.52
   5   3  -8    5.25    0.43
   5   3  -8    5.14    0.45
   4  -3  -8   10.59    0.93
   4   3  -8   10.99    0.89
   4   3  -8   14.41    0.99
   4   3  -8   12.19    0.86
   3  -3  -8   16.48    1.35
   3   3  -8   16.75    1.26
   3   3  -8   17.00    1.22
   3   3  -8   18.72    1.35
   2  -3  -8    4.67    0.44
   2   3  -8    5.37    0.40
   2   3  -8    4.56    0.40
   2   3  -8    4.27    0.42
   1  -3  -8    6.89    0.65
   1  -3  -8    8.39    0.68
   1   3  -8    7.70    0.62
   1   3  -8    7.02    0.57
   0  -3  -8    3.80    0.47
   0  -3  -8    5.25    0.48
   0   3  -8    3.97    0.42
   0   3  -8    4.75    0.39
  -1  -3  -8    0.11    0.12
  -1  -3  -8    0.23    0.11
  -1   3  -8    0.16    0.09
  -1   3  -8    0.17    0.11
  -2  -3  -8    0.95    0.22
  -2  -3  -8    0.34    0.15
  -2   3  -8    0.64    0.14
  -2   3  -8    0.37    0.14
  -3  -3  -8    3.65    0.49
  -3  -3  -8    3.83    0.49
  -3   3  -8    3.51    0.43
  -3   3  -8    3.76    0.36
  -4  -3  -8   12.07    1.12
  -4  -3  -8   11.38    1.01
  -4   3  -8   11.98    0.98
  -4   3  -8   11.76    0.91
  -5  -3  -8    1.23    0.32
  -5  -3  -8    1.63    0.33
  -5   3  -8    1.70    0.30
  -6  -3  -8    1.16    0.33
  -6  -3  -8    1.20    0.28
  -6   3  -8    0.96    0.24
  -7  -3  -8    1.25    0.36
  -7  -3  -8    1.22    0.30
  -7   3  -8    1.01    0.26
  -8  -3  -8    0.71    0.31
  -8   3  -8    1.00    0.26
  -9  -3  -8    0.76    0.32
  -9   3  -8    1.25    0.30
 -10  -3  -8    0.33    0.28
 -10   3  -8    0.27    0.18
 -11   3  -8    0.15    0.18
  16   4  -8    0.41    0.15
  15   4  -8    0.41    0.15
  14   4  -8    0.08    0.10
  13   4  -8    1.37    0.22
  12   4  -8    0.73    0.16
  11   4  -8    5.48    0.44
  11   4  -8    4.42    0.38
 -11   4   8    4.82    0.37
  10   4  -8    0.29    0.13
  10   4  -8    0.60    0.11
  10   4  -8    0.68    0.25
  -9  -4   8    0.70    0.18
   9   4  -8    0.84    0.16
   9   4  -8    0.66    0.23
   9   4  -8    0.76    0.12
  -8  -4   8    4.08    0.40
   8   4  -8    3.67    0.34
   8   4  -8    3.86    0.50
   8   4  -8    4.20    0.33
  -8   4   8    3.61    0.27
  -7  -4   8   35.30    2.77
   7   4  -8   38.32    2.46
  -7   4   8   35.26    2.39
   7   4  -8   35.83    2.86
   7   4  -8   35.60    2.51
  -6  -4   8    6.03    0.49
   6   4  -8    5.30    0.56
   6   4  -8    5.47    0.45
  -6   4   8    5.66    0.40
   6   4  -8    5.17    0.45
  -5  -4   8    0.39    0.08
   5  -4  -8    0.40    0.08
   5   4  -8    0.39    0.10
   5   4  -8    0.29    0.10
   5   4  -8    0.47    0.14
   4  -4  -8   11.85    0.92
   4   4  -8   11.43    0.96
   4   4  -8   11.70    0.87
   4   4  -8   10.89    0.83
   3  -4  -8    0.45    0.12
   3   4  -8    0.56    0.13
   3   4  -8    0.68    0.13
   3   4  -8    0.50    0.11
   2  -4  -8    0.01    0.07
   2   4  -8   -0.03    0.05
   2   4  -8    0.01    0.05
   2   4  -8    0.05    0.08
   1  -4  -8    9.82    0.95
   1   4  -8   11.67    0.83
   1   4  -8   11.97    0.90
   1   4  -8   10.74    0.87
   0  -4  -8    8.86    0.87
   0   4  -8    9.76    0.79
   0   4  -8   10.30    0.74
  -1  -4  -8    7.84    0.77
  -1   4  -8    8.01    0.70
  -1   4  -8    8.44    0.64
  -2  -4  -8    1.58    0.30
  -2   4  -8    1.81    0.27
  -2   4  -8    1.58    0.21
  -3  -4  -8    4.58    0.56
  -3   4  -8    3.29    0.42
  -3   4  -8    3.97    0.37
  -4  -4  -8   -0.02    0.13
  -4   4  -8    0.06    0.10
  -4   4  -8    0.21    0.15
  -5  -4  -8    0.09    0.17
  -5   4  -8   -0.09    0.12
  -5   4  -8   -0.04    0.08
  -6  -4  -8   -0.09    0.16
  -6   4  -8   -0.12    0.11
  -7  -4  -8    3.35    0.57
  -7   4  -8    3.29    0.45
  -8  -4  -8    0.04    0.22
  -8   4  -8   -0.11    0.12
  -9  -4  -8    0.34    0.31
  -9   4  -8    0.00    0.14
 -10  -4  -8    0.44    0.34
 -10   4  -8    0.22    0.20
  16   5  -8   -0.21    0.10
  15   5  -8    0.44    0.17
  14   5  -8    0.37    0.15
  13   5  -8    0.59    0.16
  12   5  -8    0.22    0.13
 -11   5   8    8.68    0.65
  11   5  -8    9.65    0.71
  11   5  -8    8.46    0.66
  10   5  -8    2.39    0.24
  10   5  -8    2.38    0.29
  -9  -5   8   40.45    3.20
   9   5  -8   40.51    3.29
   9   5  -8   41.66    2.84
   9   5  -8   40.97    2.81
  -8  -5   8    2.14    0.29
   8   5  -8    2.20    0.26
   8   5  -8    2.25    0.24
   8   5  -8    2.25    0.38
  -7  -5   8    7.63    0.61
  -7   5   8    6.18    0.47
   7   5  -8    6.79    0.54
   7   5  -8    6.86    0.69
   7   5  -8    7.21    0.54
  -6  -5   8   12.16    0.93
   6   5  -8   10.19    0.84
   6   5  -8   12.17    0.85
  -6   5   8   10.88    0.78
   6   5  -8   11.46    1.02
  -5  -5   8    8.71    0.69
   5  -5  -8    7.86    0.69
   5   5  -8    8.76    0.65
   5   5  -8    8.04    0.66
   5   5  -8    8.70    0.78
   4  -5  -8    6.84    0.64
   4   5  -8    7.13    0.60
   4   5  -8    8.17    0.69
   4   5  -8    7.99    0.59
   3  -5  -8   11.44    0.96
   3   5  -8   10.42    0.96
   3   5  -8   13.33    0.90
   3   5  -8   11.44    0.85
   2  -5  -8    0.57    0.14
   2   5  -8    0.39    0.11
   2   5  -8    0.57    0.12
   2   5  -8    0.44    0.13
   1  -5  -8    2.56    0.38
   1   5  -8    3.64    0.31
   1   5  -8    3.22    0.31
   1   5  -8    2.87    0.35
   0  -5  -8    1.16    0.24
   0   5  -8    1.34    0.19
   0   5  -8    1.52    0.20
   0   5  -8    1.54    0.24
  -1  -5  -8   44.96    3.44
  -1   5  -8   44.26    3.08
  -1   5  -8   41.10    2.95
  -2  -5  -8    0.32    0.17
  -2   5  -8    0.12    0.09
  -2   5  -8    0.02    0.11
  -3  -5  -8    6.04    0.72
  -3   5  -8    5.44    0.49
  -3   5  -8    5.95    0.56
  -4  -5  -8   -0.05    0.16
  -4   5  -8    0.11    0.13
  -4   5  -8   -0.06    0.08
  -5  -5  -8    7.77    0.82
  -5   5  -8    6.46    0.58
  -5   5  -8    6.39    0.64
  -6  -5  -8    0.71    0.29
  -6   5  -8    0.98    0.24
  -7  -5  -8    4.60    0.70
  -7   5  -8    3.99    0.52
  -8  -5  -8   -0.13    0.19
  -8   5  -8   -0.03    0.13
  -9  -5  -8    0.50    0.32
  -9   5  -8    0.55    0.22
 -10  -5  -8    0.00    0.30
 -10   5  -8    0.02    0.15
  15   6  -8    4.95    0.48
  14   6  -8    1.10    0.23
  13   6  -8    0.65    0.18
  12   6  -8    0.83    0.19
 -11   6   8   -0.01    0.09
  11   6  -8   -0.03    0.08
  11   6  -8    0.11    0.13
  10   6  -8   -0.11    0.09
  10   6  -8    0.06    0.08
   9   6  -8    0.06    0.08
   9   6  -8    0.17    0.12
  -8  -6   8    4.41    0.46
   8   6  -8    4.46    0.41
   8   6  -8    4.52    0.39
   8   6  -8    5.05    0.63
  -7  -6   8    2.04    0.28
   7   6  -8    1.82    0.35
   7   6  -8    2.05    0.26
   7   6  -8    1.86    0.24
  -7   6   8    2.11    0.17
  -6  -6   8    3.74    0.38
  -6   6   8    3.96    0.30
   6   6  -8    3.70    0.35
   6   6  -8    3.55    0.35
   6   6  -8    4.24    0.52
  -5  -6   8    1.81    0.22
   5  -6  -8    1.71    0.22
   5   6  -8    1.21    0.20
   5   6  -8    1.66    0.28
   5   6  -8    1.66    0.22
  -4  -6   8    2.94    0.29
   4  -6  -8    3.28    0.32
   4   6  -8    2.63    0.31
   4   6  -8    3.26    0.30
   4   6  -8    2.15    0.34
   3  -6  -8    0.19    0.11
   3   6  -8    0.01    0.09
   3   6  -8    0.19    0.09
   3   6  -8    0.13    0.09
   2  -6  -8    4.54    0.49
   2   6  -8    4.37    0.45
   2   6  -8    4.87    0.44
   2   6  -8    5.00    0.41
   1  -6  -8    1.18    0.24
   1   6  -8    1.37    0.20
   1   6  -8    1.25    0.21
   1   6  -8    1.40    0.20
   0  -6  -8    0.04    0.13
   0   6  -8    0.03    0.10
   0   6  -8    0.15    0.09
   0   6  -8    0.15    0.09
  -1  -6  -8    1.61    0.32
  -1   6  -8    1.57    0.26
  -1   6  -8    1.68    0.24
  -1   6  -8    1.28    0.20
  -2  -6  -8   13.14    1.24
  -2   6  -8   14.86    1.13
  -2   6  -8   13.26    1.00
  -2   6  -8   12.49    1.07
  -3  -6  -8    0.74    0.26
  -3   6  -8    0.78    0.21
  -3   6  -8    0.72    0.16
  -4  -6  -8    8.29    0.93
  -4   6  -8    8.35    0.77
  -4   6  -8    9.22    0.71
  -5  -6  -8    1.07    0.33
  -5   6  -8    0.63    0.20
  -5   6  -8    0.84    0.18
  -6  -6  -8    0.27    0.25
  -6   6  -8    0.55    0.16
  -6   6  -8    0.36    0.17
  -7  -6  -8   -0.01    0.21
  -7   6  -8    0.01    0.14
  -8  -6  -8    0.43    0.31
  -8   6  -8   -0.09    0.12
  -9  -6  -8   -0.29    0.21
  -9   6  -8   -0.06    0.14
  14   7  -8    1.12    0.24
  13   7  -8    6.10    0.56
  12   7  -8    1.82    0.28
  11   7  -8   12.56    0.92
 -11   7   8   12.66    0.92
  11   7  -8   11.61    0.96
  10   7  -8    5.30    0.46
 -10   7   8    5.19    0.46
  10   7  -8    5.93    0.51
   9   7  -8    2.03    0.29
   9   7  -8    2.35    0.26
   8   7  -8   26.81    1.97
   8   7  -8   29.13    2.00
   7   7  -8    0.44    0.13
   7   7  -8    0.44    0.15
  -7   7   8    0.82    0.10
  -6  -7   8    4.40    0.41
   6   7  -8    4.02    0.38
   6   7  -8    3.67    0.37
   6   7  -8    3.20    0.49
  -5  -7   8    1.77    0.23
   5  -7  -8    1.44    0.22
   5   7  -8    1.39    0.22
   5   7  -8    1.20    0.21
   5   7  -8    2.09    0.34
   4  -7  -8    0.63    0.17
  -4  -7   8    0.91    0.16
   4   7  -8    0.94    0.18
   4   7  -8    0.77    0.16
   4   7  -8    0.78    0.21
   3  -7  -8    2.41    0.36
   3   7  -8    3.35    0.30
   3   7  -8    2.64    0.32
   2  -7  -8   24.40    1.92
   2   7  -8   22.08    1.89
   2   7  -8   25.13    1.74
   2   7  -8   23.03    1.65
   1  -7  -8   16.32    1.46
   1   7  -8   17.58    1.31
   1   7  -8   16.65    1.40
   1   7  -8   18.26    1.25
   0  -7  -8    9.89    0.95
   0   7  -8    9.98    0.86
   0   7  -8    9.60    0.83
   0   7  -8   10.54    0.78
  -1  -7  -8    8.85    0.89
  -1   7  -8    9.69    0.70
  -1   7  -8    7.46    0.74
  -2  -7  -8    1.63    0.36
  -2   7  -8    1.40    0.27
  -2   7  -8    1.91    0.24
  -3  -7  -8    2.35    0.45
  -3   7  -8    2.71    0.31
  -3   7  -8    1.70    0.32
  -4  -7  -8    0.72    0.27
  -4   7  -8    0.41    0.19
  -4   7  -8    0.65    0.16
  -5  -7  -8    5.52    0.73
  -5   7  -8    4.66    0.46
  -5   7  -8    4.61    0.56
  -6  -7  -8    0.38    0.28
  -6   7  -8    0.69    0.23
  -6   7  -8    0.63    0.18
  -7  -7  -8    0.59    0.32
  -7   7  -8    0.31    0.18
  -8  -7  -8   -0.37    0.22
  -8   7  -8    0.00    0.13
  -9  -7  -8    0.28    0.30
  -9   7  -8   -0.21    0.14
  14   8  -8    1.34    0.27
  13   8  -8    0.22    0.17
  12   8  -8    5.54    0.53
 -11   8   8    2.03    0.26
  11   8  -8    2.08    0.26
  11   8  -8    2.39    0.32
  10   8  -8    0.25    0.11
  10   8  -8    0.11    0.14
 -10   8   8    0.12    0.10
   9   8  -8    0.29    0.12
   9   8  -8    0.48    0.17
   8   8  -8    0.07    0.10
   8   8  -8    0.13    0.13
   7   8  -8    2.18    0.30
  -7   8   8    2.21    0.19
   7   8  -8    2.45    0.29
   6   8  -8    1.69    0.25
  -6   8   8    2.10    0.21
   6   8  -8    1.72    0.26
   5  -8  -8    0.54    0.16
   5   8  -8    0.36    0.13
   5   8  -8    0.42    0.15
   4  -8  -8    9.96    0.85
  -4  -8   8    9.16    0.81
   4   8  -8    8.81    0.74
   4   8  -8    9.95    0.77
   3  -8  -8    0.32    0.16
   3   8  -8    0.63    0.15
   3   8  -8    0.70    0.18
   2  -8  -8    1.87    0.32
   2   8  -8    2.07    0.29
   2   8  -8    1.77    0.25
   1  -8  -8    0.43    0.19
   1   8  -8    0.57    0.14
   0  -8  -8    6.81    0.78
   0   8  -8    8.55    0.64
   0   8  -8    7.57    0.68
  -1  -8  -8    1.18    0.31
  -1   8  -8    1.92    0.25
  -1   8  -8    1.61    0.28
  -2  -8  -8   -0.11    0.16
  -2   8  -8    0.19    0.11
  -2   8  -8   -0.07    0.12
  -3  -8  -8    0.04    0.19
  -3   8  -8   -0.12    0.08
  -3   8  -8   -0.12    0.12
  -4  -8  -8    0.87    0.32
  -4   8  -8    1.06    0.26
  -4   8  -8    0.77    0.18
  -5  -8  -8    0.96    0.34
  -5   8  -8    1.14    0.22
  -5   8  -8    0.86    0.24
  -6  -8  -8    0.62    0.31
  -6   8  -8    0.65    0.22
  -6   8  -8    0.05    0.13
  -7  -8  -8   -0.07    0.24
  -7   8  -8    0.25    0.15
  -7   8  -8   -0.04    0.15
  -8  -8  -8    0.03    0.25
  -8   8  -8    0.06    0.15
  13   9  -8    0.07    0.15
  12   9  -8   12.97    1.04
  11   9  -8    1.67    0.29
 -11   9   8    1.93    0.26
  11   9  -8    1.70    0.25
 -10   9   8    6.94    0.62
  10   9  -8    8.13    0.63
  10   9  -8    7.56    0.67
   9   9  -8    0.05    0.11
   9   9  -8   -0.09    0.11
   8   9  -8   10.17    0.79
   8   9  -8    9.24    0.79
   7   9  -8    0.06    0.12
   7   9  -8    0.23    0.15
   6   9  -8    2.08    0.28
   6   9  -8    1.78    0.28
  -6   9   8    2.12    0.22
   5  -9  -8    1.89    0.29
  -5   9   8    1.65    0.21
   5   9  -8    1.82    0.27
   5   9  -8    1.43    0.25
   4  -9  -8   17.94    1.52
   4   9  -8   18.58    1.38
  -4   9   8   19.04    1.31
   4   9  -8   17.59    1.33
   3  -9  -8    0.10    0.16
   3   9  -8    0.18    0.14
   3   9  -8    0.23    0.13
   2  -9  -8   34.27    2.84
   2   9  -8   33.02    2.55
   2   9  -8   39.12    2.48
   1  -9  -8    0.25    0.20
   1   9  -8    0.62    0.19
   1   9  -8    0.17    0.12
   0  -9  -8   57.71    4.44
   0   9  -8   58.13    3.82
   0   9  -8   52.44    3.96
  -1  -9  -8    0.33    0.21
  -1   9  -8    0.04    0.13
  -1   9  -8    0.29    0.13
  -2  -9  -8   12.76    1.32
  -2   9  -8   15.19    1.07
  -2   9  -8   13.61    1.14
  -3  -9  -8   -0.17    0.16
  -3   9  -8    0.01    0.13
  -3   9  -8    0.10    0.11
  -4  -9  -8    1.03    0.36
  -4   9  -8    0.90    0.20
  -4   9  -8    0.93    0.25
  -5  -9  -8    1.06    0.37
  -5   9  -8    0.65    0.18
  -5   9  -8    0.43    0.21
  -6  -9  -8   -0.22    0.22
  -6   9  -8    0.21    0.17
  -6   9  -8    0.07    0.13
  -7  -9  -8    0.54    0.35
  -7   9  -8    0.15    0.18
  -7   9  -8    0.18    0.14
  12  10  -8    1.95    0.34
 -11  10   8    0.46    0.17
  11  10  -8    0.56    0.18
  11  10  -8    1.06    0.25
 -10  10   8    1.26    0.23
  10  10  -8    1.29    0.26
  10  10  -8    1.07    0.22
   9  10  -8    1.04    0.21
   9  10  -8    0.55    0.20
   8  10  -8    0.79    0.21
   8  10  -8    0.94    0.20
   7  10  -8    0.83    0.20
   7  10  -8    0.44    0.17
   6  10  -8    6.27    0.55
   6  10  -8    5.53    0.54
   5 -10  -8    0.08    0.12
   5  10  -8    0.21    0.14
   5  10  -8    0.01    0.11
  -5  10   8    0.19    0.10
   4 -10  -8    0.24    0.14
   4  10  -8    0.03    0.13
   4  10  -8    0.07    0.11
  -4  10   8    0.18    0.11
   3 -10  -8    0.33    0.17
   3  10  -8    0.67    0.20
  -3  10   8    0.71    0.17
   3  10  -8    0.36    0.13
   2 -10  -8    0.02    0.14
  -2  10   8   -0.17    0.10
   2  10  -8    0.03    0.12
   2  10  -8   -0.03    0.13
   1 -10  -8    0.84    0.26
   1  10  -8    1.26    0.22
   1  10  -8    1.10    0.26
   0 -10  -8    0.62    0.25
   0  10  -8    0.57    0.20
   0  10  -8    0.46    0.15
  -1 -10  -8    0.20    0.21
  -1  10  -8    0.54    0.19
  -1  10  -8    0.26    0.14
  -2 -10  -8    6.87    0.88
  -2  10  -8    7.06    0.70
  -2  10  -8    7.92    0.64
  -3 -10  -8   -0.36    0.16
  -3  10  -8    0.11    0.11
  -3  10  -8    0.07    0.15
  -4 -10  -8    1.73    0.43
  -4  10  -8    1.72    0.35
  -4  10  -8    1.99    0.29
  -5 -10  -8    0.21    0.27
  -5  10  -8    0.16    0.17
  -5  10  -8    0.00    0.11
  -6 -10  -8    2.25    0.56
  -6  10  -8    2.50    0.36
  -6  10  -8    2.72    0.44
  11  11  -8    0.12    0.17
 -11  11   8    0.59    0.18
  11  11  -8    0.19    0.16
  10  11  -8    6.89    0.67
  10  11  -8    7.22    0.64
 -10  11   8    7.26    0.63
   9  11  -8   -0.15    0.12
   9  11  -8   -0.08    0.12
  -9  11   8   -0.02    0.14
   8  11  -8    2.56    0.36
   8  11  -8    2.02    0.32
   7  11  -8    0.71    0.20
   7  11  -8    0.69    0.21
   6  11  -8    0.21    0.16
   6  11  -8    0.48    0.18
   5 -11  -8   -0.01    0.13
   5  11  -8    0.13    0.14
   5  11  -8    0.07    0.15
   4 -11  -8    0.37    0.18
   4  11  -8    0.46    0.17
   4  11  -8    0.42    0.18
  -4  11   8    0.22    0.12
   3 -11  -8    0.62    0.22
   3  11  -8    0.49    0.16
  -3  11   8    0.72    0.18
   3  11  -8    0.65    0.21
   2 -11  -8   13.81    1.32
   2  11  -8   15.28    1.21
   2  11  -8   15.33    1.14
  -2  11   8   15.31    1.13
   1 -11  -8    3.32    0.48
  -1  11   8    3.17    0.39
   1  11  -8    2.37    0.38
   1  11  -8    3.24    0.37
   0 -11  -8   11.25    1.11
   0  11  -8   10.70    0.96
   0  11   8   10.68    0.90
   0  11  -8   12.16    0.90
  -1 -11  -8    0.30    0.25
   1  11   8    0.38    0.18
  -1  11  -8    0.36    0.15
  -1  11  -8    0.30    0.18
  -2 -11  -8    4.94    0.73
  -2  11  -8    4.59    0.46
  -2  11  -8    4.78    0.58
  -3 -11  -8    0.44    0.31
  -3  11  -8    1.24    0.28
  -3  11  -8    0.98    0.21
  -4 -11  -8    3.20    0.60
  -4  11  -8    3.33    0.40
  -4  11  -8    2.48    0.42
  -5 -11  -8    1.93    0.50
  -5  11  -8    1.87    0.36
  -5  11  -8    1.96    0.32
  -9  12   8    3.99    0.49
   9  12  -8    4.49    0.53
   9  12  -8    5.04    0.53
   8  12  -8   -0.18    0.13
   8  12  -8    0.02    0.14
   7  12  -8    0.09    0.16
   7  12  -8    0.24    0.15
   6  12  -8    0.06    0.13
   6  12  -8   -0.13    0.13
   5 -12  -8    0.11    0.15
   5  12  -8    0.22    0.15
   5  12  -8    0.22    0.17
   4 -12  -8   -0.25    0.12
   4  12  -8    0.11    0.16
   4  12  -8    0.12    0.14
  -4  12   8    0.05    0.11
   3 -12  -8    1.93    0.35
   3  12  -8    2.22    0.32
   3  12  -8    1.60    0.30
  -3  12   8    1.69    0.27
   2 -12  -8    0.11    0.17
   2  12  -8    0.44    0.17
   2  12  -8   -0.01    0.15
  -2  12   8    0.32    0.15
   1 -12  -8    0.51    0.25
   1  12  -8    0.39    0.15
  -1  12   8    0.70    0.20
   1  12  -8    0.58    0.22
   0 -12  -8    0.35    0.24
   0  12  -8    0.60    0.18
   0  12  -8    0.68    0.24
   0  12   8    0.11    0.16
  -1 -12  -8    3.45    0.59
  -1  12  -8    3.92    0.52
  -1  12  -8    3.51    0.42
   1  12   8    4.02    0.48
  -2 -12  -8    1.57    0.42
  -2  12  -8    1.59    0.28
   2  12   8    1.26    0.29
  -2  12  -8    1.04    0.29
  -3 -12  -8    1.29    0.40
   3  12   8    0.75    0.25
  -3  12  -8    0.98    0.28
  -3  12  -8    1.07    0.23
   6  13  -8    1.20    0.28
   6  13  -8    1.41    0.29
   5 -13  -8    0.06    0.18
   5  13  -8    0.18    0.18
   5  13  -8   -0.11    0.12
   4 -13  -8    1.47    0.33
   4  13  -8    1.63    0.29
   4  13  -8    1.45    0.31
   3 -13  -8    0.01    0.15
   3  13  -8    0.13    0.15
   3  13  -8    0.35    0.19
  -3  13   8   -0.08    0.11
   2 -13  -8    0.19    0.19
   2  13  -8    0.10    0.13
  -2  13   8   -0.05    0.12
   2  13  -8    0.18    0.20
   1 -13  -8    3.39    0.55
   1  13  -8    3.93    0.53
   1  13  -8    4.35    0.48
  -1  13   8    4.19    0.47
   0 -13  -8    0.21    0.23
   0  13  -8    0.49    0.18
   0  13   8    0.42    0.19
   0  13  -8    0.24    0.19
  -1 -13  -8    3.46    0.59
  -1  13  -8    3.93    0.45
  -1  13  -8    3.11    0.48
  14   0  -9   -0.09    0.07
  13   0  -9    5.41    0.43
  12   0  -9    0.05    0.07
  11   0  -9   39.26    2.65
  10   0  -9   -0.03    0.05
   9   0  -9    1.42    0.17
  -9   0   9    1.59    0.14
   8   0  -9   -0.04    0.07
  -8   0   9   -0.06    0.05
   8   0  -9    0.09    0.06
   7   0  -9   86.28    5.57
   7   0  -9   75.63    5.38
   6   0  -9    0.01    0.08
   6   0  -9    0.12    0.07
   6   0  -9   -0.05    0.06
   5   0  -9    5.59    0.54
   5   0  -9    5.99    0.50
   5   0  -9    7.34    0.53
   4   0  -9    0.01    0.08
   4   0  -9    0.02    0.06
   4   0  -9    0.04    0.02
   3   0  -9   68.39    4.81
   3   0  -9   75.41    4.99
   2   0  -9   -0.02    0.09
   2   0  -9    0.01    0.07
   1   0  -9   13.23    0.98
   1   0  -9   13.16    1.05
   0   0  -9    0.01    0.07
   0   0  -9   -0.03    0.08
  -1   0  -9    0.55    0.18
  -2   0  -9   -0.12    0.10
  -3   0  -9    0.99    0.26
  -4   0  -9   -0.26    0.14
  -5   0  -9   29.42    2.24
  -6   0  -9   -0.12    0.13
  -7   0  -9   -0.15    0.19
  -8   0  -9   -0.08    0.15
  -9   0  -9    2.60    0.44
 -10   0  -9   -0.04    0.15
 -10   0  -9    0.10    0.23
  15   1  -9    0.58    0.13
  14   1  -9    1.07    0.17
  13  -1  -9    1.68    0.18
  13   1  -9    1.52    0.20
  12  -1  -9    0.19    0.07
  12   1  -9    0.23    0.09
  11  -1  -9    3.88    0.32
  11   1  -9    4.12    0.34
  10  -1  -9    0.48    0.10
 -10   1   9    0.40    0.06
  10   1  -9    0.38    0.09
   9  -1  -9   15.18    1.16
  -9  -1   9   16.46    1.16
  -9   1   9   17.57    1.18
   9   1  -9   18.56    1.21
   9   1  -9   16.02    1.17
   8  -1  -9   -0.01    0.05
  -8  -1   9    0.06    0.05
   8   1  -9    0.09    0.06
  -8   1   9   -0.03    0.06
   8   1  -9   -0.01    0.08
   8   1  -9    0.15    0.11
   7  -1  -9    4.78    0.41
   7   1  -9    5.44    0.45
   7   1  -9    6.36    0.52
   7   1  -9    5.02    0.42
   6  -1  -9   11.58    0.84
   6  -1  -9    8.85    0.75
   6   1  -9   12.21    0.87
   6   1  -9   10.17    0.80
   6   1  -9   10.00    0.76
   5  -1  -9   18.51    1.18
   5  -1  -9   13.66    1.08
   5   1  -9   17.63    1.15
   5   1  -9   14.31    1.19
   5   1  -9   13.95    1.07
   4  -1  -9    0.98    0.20
   4  -1  -9    1.19    0.17
   4   1  -9    1.36    0.21
   4   1  -9    1.09    0.16
   4   1  -9    1.34    0.13
   3  -1  -9   10.97    0.93
   3  -1  -9   12.31    0.87
   3   1  -9   11.77    0.85
   3   1  -9   11.30    0.91
   2  -1  -9    9.27    0.74
   2  -1  -9    8.73    0.67
   2   1  -9    7.95    0.70
   2   1  -9    8.15    0.65
   1  -1  -9   19.61    1.35
   1  -1  -9   18.06    1.43
   1   1  -9   18.76    1.34
   1   1  -9   18.21    1.41
   0  -1  -9    0.99    0.22
   0   1  -9    0.83    0.16
   0   1  -9    0.89    0.20
  -1  -1  -9   25.02    1.83
  -1   1  -9   23.64    1.80
  -1   1  -9   23.59    1.71
  -2  -1  -9    6.69    0.64
  -2   1  -9    6.34    0.62
  -3  -1  -9   23.29    1.75
  -3   1  -9   21.77    1.72
  -4  -1  -9    7.79    0.80
  -4   1  -9    9.93    0.83
  -5  -1  -9   24.66    1.90
  -5   1  -9   24.13    1.88
  -6  -1  -9    0.69    0.25
  -6   1  -9    0.49    0.21
  -7  -1  -9    9.14    0.89
  -7   1  -9    9.65    0.89
  -8  -1  -9    0.52    0.23
  -8  -1  -9    0.39    0.26
  -8   1  -9    0.37    0.21
  -9  -1  -9    0.24    0.21
  -9  -1  -9   -0.14    0.21
  -9   1  -9   -0.05    0.16
 -10  -1  -9    0.36    0.21
 -10  -1  -9    0.11    0.24
 -10   1  -9    0.18    0.18
  15   2  -9    0.19    0.11
  14   2  -9    0.63    0.14
  13   2  -9    2.00    0.24
  12  -2  -9    6.28    0.50
  12   2  -9    7.72    0.55
  11  -2  -9    2.71    0.24
  11   2  -9    2.78    0.27
  10  -2  -9    0.29    0.08
  10   2  -9    0.43    0.10
  10   2  -9    0.20    0.09
 -10   2   9    0.39    0.08
  -9  -2   9    5.25    0.38
   9  -2  -9    4.45    0.39
   9   2  -9    5.00    0.41
   9   2  -9    6.54    0.58
  -9   2   9    4.84    0.41
   9   2  -9    5.33    0.42
   8  -2  -9    3.10    0.25
   8   2  -9    2.62    0.26
   8   2  -9    2.85    0.37
   8   2  -9    2.44    0.26
   7  -2  -9   19.50    1.39
   7   2  -9   22.12    1.63
   7   2  -9   20.53    1.44
   7   2  -9   18.60    1.39
   6  -2  -9    0.80    0.13
   6   2  -9    0.58    0.13
   6   2  -9    0.98    0.14
   6   2  -9    0.94    0.18
   5  -2  -9    0.12    0.08
   5  -2  -9    0.04    0.10
   5   2  -9    0.10    0.09
   5   2  -9    0.24    0.09
   5   2  -9    0.18    0.07
   4  -2  -9   11.27    0.86
   4  -2  -9   10.77    0.83
   4  -2  -9   10.55    0.90
   4   2  -9   11.01    0.86
   4   2  -9   11.01    0.82
   4   2  -9   11.84    0.89
   3  -2  -9    0.82    0.19
   3  -2  -9    0.42    0.09
   3   2  -9    0.59    0.09
   3   2  -9    0.56    0.12
   3   2  -9    0.51    0.13
   2  -2  -9    0.51    0.17
   2  -2  -9    0.27    0.09
   2   2  -9    0.32    0.12
   2   2  -9    0.27    0.09
   1  -2  -9    4.55    0.41
   1  -2  -9    3.81    0.46
   1   2  -9    3.66    0.36
   1   2  -9    4.02    0.41
   0  -2  -9   14.01    1.14
   0  -2  -9   13.95    1.18
   0   2  -9   14.02    1.04
   0   2  -9   14.62    1.11
  -1  -2  -9    0.03    0.09
  -1  -2  -9    0.03    0.12
  -1   2  -9    0.07    0.08
  -1   2  -9   -0.05    0.08
  -2  -2  -9    2.57    0.39
  -2  -2  -9    1.88    0.35
  -2   2  -9    2.85    0.33
  -2   2  -9    3.06    0.40
  -3  -2  -9    0.17    0.18
  -3  -2  -9    0.32    0.16
  -3   2  -9   -0.11    0.12
  -3   2  -9    0.32    0.12
  -4  -2  -9    2.42    0.41
  -4  -2  -9    2.20    0.39
  -4   2  -9    1.98    0.34
  -5  -2  -9    0.47    0.23
  -5  -2  -9    0.22    0.22
  -5   2  -9    0.88    0.27
  -6  -2  -9    0.18    0.20
  -6  -2  -9    0.54    0.24
  -6   2  -9    0.63    0.22
  -7  -2  -9    1.89    0.45
  -7  -2  -9    1.69    0.36
  -7   2  -9    2.56    0.39
  -8  -2  -9    0.11    0.17
  -8  -2  -9   -0.09    0.17
  -8   2  -9    0.08    0.16
  -9  -2  -9    0.11    0.23
  -9  -2  -9   -0.04    0.17
  -9   2  -9   -0.08    0.16
 -10  -2  -9   -0.06    0.16
 -10  -2  -9    0.21    0.27
 -10   2  -9    0.11    0.17
  16   3  -9    0.68    0.17
  15   3  -9   -0.04    0.10
  14   3  -9   -0.10    0.09
  13   3  -9    2.56    0.30
  12   3  -9    8.99    0.70
  11  -3  -9    6.89    0.50
 -11   3   9    6.97    0.51
  11   3  -9    6.92    0.56
  11   3  -9    7.27    0.53
  10  -3  -9    0.64    0.10
  10   3  -9    0.51    0.13
  10   3  -9    0.60    0.22
 -10   3   9    0.69    0.10
  10   3  -9    0.87    0.13
   9  -3  -9    5.54    0.42
   9   3  -9    5.51    0.45
   9   3  -9    6.18    0.61
  -9   3   9    5.26    0.40
   9   3  -9    5.93    0.46
   8  -3  -9    0.62    0.11
   8   3  -9    0.69    0.13
   8   3  -9    0.98    0.15
  -8   3   9    0.77    0.10
   8   3  -9    0.57    0.19
   7  -3  -9    0.80    0.14
   7   3  -9    0.95    0.16
   7   3  -9    1.19    0.17
   7   3  -9    1.04    0.23
   6   3  -9    3.02    0.29
   6   3  -9    3.22    0.35
   6   3  -9    2.39    0.28
   5  -3  -9    0.01    0.04
   5   3  -9   -0.03    0.07
   5   3  -9   -0.03    0.06
   5   3  -9    0.10    0.07
   4  -3  -9    2.69    0.24
   4   3  -9    2.26    0.28
   4   3  -9    2.80    0.27
   4   3  -9    1.85    0.24
   3  -3  -9    0.82    0.14
   3   3  -9    1.12    0.14
   3   3  -9    0.86    0.17
   3   3  -9    0.69    0.14
   2  -3  -9    0.84    0.21
   2  -3  -9    0.98    0.17
   2   3  -9    0.88    0.18
   2   3  -9    0.77    0.15
   2   3  -9    1.12    0.14
   1  -3  -9    0.11    0.12
   1  -3  -9    0.08    0.08
   1   3  -9    0.02    0.07
   1   3  -9   -0.11    0.06
   0  -3  -9    0.14    0.13
   0  -3  -9   -0.01    0.08
   0   3  -9    0.05    0.09
   0   3  -9   -0.01    0.06
  -1  -3  -9    1.76    0.28
  -1  -3  -9    1.17    0.27
  -1   3  -9    1.68    0.23
  -1   3  -9    1.86    0.27
  -2  -3  -9   36.40    2.48
  -2  -3  -9   27.11    2.63
  -2   3  -9   35.20    2.31
  -2   3  -9   34.10    2.41
  -3  -3  -9    6.89    0.78
  -3  -3  -9    8.20    0.76
  -3   3  -9    8.37    0.66
  -3   3  -9    8.04    0.72
  -4  -3  -9   39.07    2.75
  -4  -3  -9   35.01    2.99
  -4   3  -9   36.67    2.70
  -5  -3  -9    1.78    0.35
  -5  -3  -9    1.98    0.41
  -5   3  -9    1.78    0.32
  -6  -3  -9   12.70    1.20
  -6  -3  -9   14.85    1.39
  -6   3  -9   15.19    1.20
  -7  -3  -9    1.77    0.44
  -7  -3  -9    2.03    0.39
  -7   3  -9    1.86    0.35
  -8  -3  -9    0.19    0.24
  -8   3  -9   -0.01    0.14
  -9  -3  -9    1.07    0.41
  -9   3  -9    1.00    0.28
 -10  -3  -9    0.63    0.33
 -10   3  -9    0.15    0.18
  16   4  -9    0.14    0.13
  15   4  -9    2.33    0.30
  14   4  -9    0.06    0.11
  13   4  -9    0.82    0.17
  12   4  -9   12.76    0.96
  11   4  -9    2.85    0.27
  11   4  -9    2.81    0.32
  10   4  -9   23.40    1.67
  10   4  -9   23.59    1.66
  10   4  -9   24.30    2.00
  -9  -4   9    3.06    0.31
   9   4  -9    2.91    0.28
  -9   4   9    2.39    0.19
   9   4  -9    2.44    0.40
   9   4  -9    2.49    0.27
  -8  -4   9   21.34    1.59
   8   4  -9   22.63    1.71
  -8   4   9   17.92    1.35
   8   4  -9   18.73    1.42
   8   4  -9   22.10    1.45
  -7  -4   9    0.52    0.11
   7   4  -9    0.34    0.11
   7   4  -9    0.62    0.19
   7   4  -9    0.36    0.11
   6   4  -9   34.27    2.51
   6   4  -9   30.41    2.22
   6   4  -9   30.29    2.16
   5  -4  -9    2.30    0.22
   5   4  -9    2.04    0.26
   5   4  -9    2.18    0.25
   5   4  -9    2.40    0.32
   4  -4  -9   13.05    1.07
   4   4  -9   15.07    1.11
   4   4  -9   13.63    1.02
   4   4  -9   12.17    0.97
   3  -4  -9    0.15    0.09
   3   4  -9    0.07    0.09
   3   4  -9    0.18    0.08
   3   4  -9    0.13    0.08
   2  -4  -9    0.09    0.09
   2   4  -9    0.15    0.06
   2   4  -9    0.05    0.08
   2   4  -9    0.14    0.08
   1  -4  -9   17.56    1.53
   1   4  -9   19.03    1.32
   1   4  -9   18.41    1.45
   1   4  -9   19.10    1.40
   0  -4  -9    0.44    0.16
   0   4  -9    0.51    0.12
   0   4  -9    0.37    0.14
  -1  -4  -9    2.37    0.37
  -1   4  -9    3.35    0.31
  -1   4  -9    2.75    0.36
  -2  -4  -9   -0.03    0.11
  -2   4  -9   -0.11    0.06
  -2   4  -9   -0.10    0.10
  -3  -4  -9    5.90    0.69
  -3   4  -9    7.29    0.56
  -3   4  -9    5.44    0.59
  -4  -4  -9    1.92    0.38
  -4   4  -9    2.13    0.29
  -4   4  -9    1.68    0.33
  -5  -4  -9    0.60    0.27
  -5   4  -9    0.42    0.20
  -6  -4  -9    2.25    0.48
  -6   4  -9    2.39    0.39
  -7  -4  -9    0.00    0.19
  -7   4  -9    0.01    0.16
  -8  -4  -9    1.24    0.39
  -8   4  -9    0.64    0.24
  -9  -4  -9    1.23    0.43
  -9   4  -9    0.81    0.27
 -10   4  -9    0.43    0.23
  15   5  -9    0.69    0.19
  14   5  -9    0.08    0.12
  13   5  -9    0.05    0.12
  12   5  -9    0.46    0.15
  11   5  -9    1.48    0.19
  11   5  -9    1.16    0.21
  10   5  -9    1.37    0.19
  10   5  -9    1.60    0.23
   9   5  -9    1.88    0.23
   9   5  -9    1.49    0.22
   9   5  -9    1.77    0.35
  -8  -5   9    0.20    0.10
  -8   5   9    0.16    0.04
   8   5  -9    0.12    0.09
   8   5  -9    0.01    0.14
   8   5  -9    0.11    0.10
  -7  -5   9    0.86    0.15
   7   5  -9    0.70    0.15
   7   5  -9    0.96    0.24
   7   5  -9    0.70    0.15
  -7   5   9    0.98    0.11
  -6  -5   9    2.41    0.23
   6   5  -9    1.99    0.26
   6   5  -9    2.42    0.35
   6   5  -9    1.73    0.24
   5  -5  -9    0.45    0.11
   5   5  -9    0.67    0.18
   5   5  -9    0.25    0.10
   5   5  -9    0.34    0.12
   4  -5  -9    7.27    0.67
   4   5  -9    8.97    0.72
   4   5  -9    8.42    0.62
   4   5  -9    7.13    0.64
   3  -5  -9    6.37    0.57
   3   5  -9    6.21    0.54
   3   5  -9    5.80    0.56
   3   5  -9    6.34    0.50
   2  -5  -9    3.98    0.45
   2   5  -9    4.89    0.40
   2   5  -9    4.40    0.42
   2   5  -9    4.19    0.41
   1  -5  -9    0.46    0.17
   1   5  -9    0.64    0.17
   1   5  -9    0.73    0.15
   1   5  -9    0.70    0.13
   0  -5  -9   15.46    1.38
   0   5  -9   16.57    1.18
   0   5  -9   14.45    1.23
   0   5  -9   17.43    1.30
  -1  -5  -9    7.59    0.74
  -1   5  -9    7.18    0.58
  -1   5  -9    6.32    0.62
  -2  -5  -9    6.64    0.77
  -2   5  -9    7.47    0.68
  -2   5  -9    8.11    0.63
  -3  -5  -9    3.57    0.52
  -3   5  -9    2.64    0.40
  -3   5  -9    3.53    0.38
  -4  -5  -9   21.54    1.87
  -4   5  -9   20.34    1.63
  -4   5  -9   21.37    1.54
  -5  -5  -9    0.53    0.28
  -5   5  -9    0.66    0.19
  -5   5  -9    0.63    0.21
  -6  -5  -9    0.52    0.27
  -6   5  -9    0.20    0.17
  -7  -5  -9    0.98    0.34
  -7   5  -9    0.71    0.23
  -8  -5  -9    2.58    0.56
  -8   5  -9    3.45    0.47
  -9  -5  -9   -0.11    0.24
  -9   5  -9   -0.18    0.13
  15   6  -9    0.54    0.19
  14   6  -9    3.91    0.44
  13   6  -9   -0.09    0.11
  12   6  -9    0.74    0.18
 -11   6   9    6.87    0.55
  11   6  -9    6.77    0.56
  11   6  -9    8.10    0.62
  10   6  -9   14.43    1.08
  10   6  -9   14.99    1.10
   9   6  -9    0.17    0.12
   9   6  -9    0.15    0.09
   8   6  -9    2.50    0.46
   8   6  -9    3.55    0.35
   8   6  -9    3.72    0.34
  -7  -6   9    1.04    0.18
   7   6  -9    1.24    0.28
   7   6  -9    1.08    0.18
  -7   6   9    1.22    0.13
   7   6  -9    0.83    0.18
  -6  -6   9   12.00    0.94
   6   6  -9   10.92    0.88
   6   6  -9   12.27    1.05
   6   6  -9   10.47    0.86
   5  -6  -9    0.20    0.09
  -5  -6   9    0.20    0.08
   5   6  -9    0.04    0.10
   5   6  -9    0.22    0.10
   5   6  -9    0.13    0.13
   4  -6  -9    2.89    0.31
   4   6  -9    2.74    0.33
   4   6  -9    2.71    0.30
   4   6  -9    2.30    0.33
   3  -6  -9    0.34    0.12
   3   6  -9    0.36    0.12
   3   6  -9    0.34    0.13
   3   6  -9    0.55    0.13
   2  -6  -9    0.23    0.13
   2   6  -9    0.35    0.12
   2   6  -9    0.34    0.12
   2   6  -9    0.37    0.15
   1  -6  -9   -0.06    0.09
   1   6  -9   -0.07    0.06
   1   6  -9    0.04    0.09
   1   6  -9    0.10    0.07
   0  -6  -9    1.27    0.28
   0   6  -9    1.60    0.26
   0   6  -9    1.29    0.21
   0   6  -9    1.35    0.21
  -1  -6  -9    1.22    0.30
  -1   6  -9    2.17    0.26
  -1   6  -9    1.51    0.29
  -1   6  -9    1.91    0.26
  -2  -6  -9   10.49    0.97
  -2   6  -9    8.95    0.81
  -2   6  -9    9.04    0.74
  -3  -6  -9    2.95    0.51
  -3   6  -9    3.00    0.42
  -3   6  -9    3.59    0.38
  -4  -6  -9    1.19    0.35
  -4   6  -9    1.39    0.24
  -4   6  -9    1.19    0.27
  -5  -6  -9    1.61    0.39
  -5   6  -9    1.97    0.30
  -5   6  -9    1.96    0.35
  -6  -6  -9    0.21    0.25
  -6   6  -9    0.70    0.22
  -7  -6  -9   -0.19    0.22
  -7   6  -9   -0.02    0.16
  -8  -6  -9    0.42    0.32
  -8   6  -9    0.18    0.17
  -9  -6  -9    0.70    0.38
  -9   6  -9    0.16    0.18
  14   7  -9   -0.17    0.11
  13   7  -9    0.42    0.17
  12   7  -9    1.43    0.26
 -11   7   9    1.01    0.19
  11   7  -9    1.27    0.24
  11   7  -9    1.62    0.21
  10   7  -9   -0.09    0.10
  10   7  -9    0.19    0.11
   9   7  -9   11.01    0.85
   9   7  -9   11.01    0.87
   8   7  -9    1.60    0.25
   8   7  -9    1.91    0.25
   7   7  -9   31.77    2.26
   7   7  -9   31.85    2.23
   6  -7  -9    0.01    0.09
   6   7  -9    0.24    0.12
   6   7  -9    0.20    0.18
   6   7  -9    0.16    0.11
   5  -7  -9   15.32    1.45
  -5  -7   9   18.81    1.44
   5   7  -9   15.96    1.52
   5   7  -9   20.22    1.32
   5   7  -9   20.36    1.36
   4  -7  -9    0.81    0.18
   4   7  -9    0.74    0.16
   4   7  -9    0.54    0.18
   4   7  -9    0.88    0.18
   3  -7  -9    2.29    0.34
   3   7  -9    2.91    0.37
   3   7  -9    2.90    0.35
   3   7  -9    3.00    0.32
   2  -7  -9    2.13    0.33
   2   7  -9    1.64    0.27
   2   7  -9    2.47    0.32
   2   7  -9    1.87    0.25
   1  -7  -9   19.72    1.54
   1   7  -9   16.70    1.45
   1   7  -9   18.24    1.30
   1   7  -9   17.14    1.36
   0  -7  -9    6.69    0.73
   0   7  -9    7.70    0.59
   0   7  -9    6.06    0.62
  -1  -7  -9   11.17    1.04
  -1   7  -9   10.60    0.82
  -1   7  -9    9.78    0.88
  -2  -7  -9    2.15    0.44
  -2   7  -9    3.10    0.40
  -2   7  -9    3.33    0.36
  -3  -7  -9    8.15    0.98
  -3   7  -9   10.92    0.79
  -3   7  -9    9.04    0.84
  -4  -7  -9    3.77    0.64
  -4   7  -9    4.77    0.47
  -4   7  -9    5.90    0.56
  -5  -7  -9    1.27    0.38
  -5   7  -9    1.25    0.24
  -5   7  -9    0.87    0.25
  -6  -7  -9    2.38    0.51
  -6   7  -9    2.06    0.32
  -6   7  -9    2.26    0.38
  -7  -7  -9    1.04    0.41
  -7   7  -9    1.57    0.34
  -8  -7  -9    0.13    0.27
  -8   7  -9   -0.11    0.13
  14   8  -9    1.90    0.32
  13   8  -9    8.67    0.75
  12   8  -9    3.86    0.45
  11   8  -9    3.25    0.33
 -11   8   9    3.44    0.34
  11   8  -9    3.24    0.40
  10   8  -9    8.12    0.67
  10   8  -9    7.36    0.63
   9   8  -9   12.89    1.03
   9   8  -9   13.90    1.03
   8   8  -9    1.91    0.28
   8   8  -9    1.84    0.26
  -7   8   9    0.84    0.12
   7   8  -9    1.08    0.20
   7   8  -9    0.73    0.18
   6  -8  -9    1.07    0.21
   6   8  -9    1.04    0.20
   6   8  -9    1.06    0.20
   5  -8  -9    6.78    0.65
   5   8  -9    7.23    0.60
   5   8  -9    7.21    0.62
   4  -8  -9    7.70    0.78
   4   8  -9    9.30    0.70
   4   8  -9    8.90    0.73
   3  -8  -9   -0.02    0.12
   3   8  -9    0.01    0.11
   3   8  -9   -0.10    0.09
   2  -8  -9    2.35    0.37
   2   8  -9    2.52    0.30
   2   8  -9    2.39    0.33
   1  -8  -9    0.37    0.19
   1   8  -9    0.29    0.12
   1   8  -9    0.20    0.15
   0  -8  -9   -0.09    0.14
   0   8  -9    0.03    0.10
   0   8  -9    0.04    0.13
  -1  -8  -9    9.46    0.99
  -1   8  -9   10.68    0.79
  -1   8  -9    9.22    0.85
  -2  -8  -9    1.57    0.37
  -2   8  -9    1.87    0.26
  -2   8  -9    1.09    0.28
  -3  -8  -9   -0.10    0.16
  -3   8  -9    0.08    0.14
  -3   8  -9    0.14    0.13
  -4  -8  -9   -0.19    0.17
  -4   8  -9   -0.17    0.14
  -4   8  -9    0.00    0.10
  -5  -8  -9    0.30    0.28
  -5   8  -9    0.70    0.23
  -5   8  -9    0.75    0.21
  -6  -8  -9    0.21    0.27
  -6   8  -9    0.21    0.15
  -6   8  -9    0.52    0.21
  -7  -8  -9    1.13    0.41
  -7   8  -9    0.73    0.26
  13   9  -9    0.11    0.16
  12   9  -9   -0.37    0.12
  11   9  -9    0.15    0.16
  11   9  -9    0.10    0.12
 -11   9   9   -0.06    0.11
  10   9  -9    2.50    0.31
  10   9  -9    2.27    0.33
   9   9  -9   11.69    0.90
   9   9  -9   11.02    0.91
   8   9  -9    0.74    0.20
   8   9  -9    0.50    0.16
   7   9  -9    4.88    0.49
   7   9  -9    5.34    0.49
   6  -9  -9    1.39    0.26
   6   9  -9    1.40    0.24
   6   9  -9    1.16    0.23
  -6   9   9    1.55    0.19
   5  -9  -9    7.15    0.72
   5   9  -9    8.04    0.68
   5   9  -9    8.11    0.66
   4  -9  -9    1.83    0.31
   4   9  -9    2.08    0.30
   4   9  -9    1.86    0.27
   3  -9  -9    0.20    0.15
   3   9  -9   -0.01    0.09
   3   9  -9    0.33    0.15
   2  -9  -9   15.78    1.46
   2   9  -9   17.62    1.26
   2   9  -9   17.84    1.34
   1  -9  -9   19.87    1.88
   1   9  -9   22.57    1.61
   1   9  -9   24.73    1.72
   0  -9  -9    0.26    0.20
   0   9  -9    0.33    0.18
   0   9  -9    0.50    0.15
  -1  -9  -9   11.77    1.14
  -1   9  -9   11.33    0.98
  -1   9  -9   11.45    0.90
  -2  -9  -9    0.77    0.29
  -2   9  -9    0.70    0.17
  -2   9  -9    0.67    0.22
  -3  -9  -9    3.08    0.56
  -3   9  -9    3.08    0.37
  -3   9  -9    3.05    0.43
  -4  -9  -9    1.60    0.44
  -4   9  -9    2.18    0.32
  -4   9  -9    2.34    0.39
  -5  -9  -9    1.58    0.45
  -5   9  -9    1.56    0.27
  -5   9  -9    1.31    0.32
  -6  -9  -9    1.11    0.42
  -6   9  -9    0.73    0.24
  -6   9  -9    1.39    0.27
  12  10  -9    0.38    0.20
 -11  10   9    9.21    0.74
  11  10  -9    8.76    0.78
  11  10  -9    8.73    0.74
  10  10  -9    1.12    0.24
 -10  10   9    0.85    0.19
  10  10  -9    0.66    0.19
   9  10  -9    6.75    0.60
   9  10  -9    6.46    0.61
   8  10  -9    0.29    0.15
   8  10  -9    0.15    0.13
   7  10  -9    5.15    0.49
   7  10  -9    4.97    0.49
   6 -10  -9    0.60    0.19
   6  10  -9    0.34    0.16
   6  10  -9    0.52    0.18
   5 -10  -9    0.24    0.15
   5  10  -9    0.31    0.16
  -5  10   9    0.34    0.12
   5  10  -9    0.01    0.11
   4 -10  -9    0.23    0.16
   4  10  -9    0.38    0.15
   4  10  -9    0.55    0.19
  -4  10   9    0.47    0.14
   3 -10  -9    2.45    0.37
   3  10  -9    2.04    0.33
   3  10  -9    2.40    0.31
   2 -10  -9    0.35    0.18
   2  10  -9    0.20    0.16
   2  10  -9    0.18    0.13
   1 -10  -9    1.21    0.30
   1  10  -9    1.38    0.24
   1  10  -9    1.07    0.25
   0 -10  -9    0.68    0.25
   0  10  -9    0.82    0.19
   0  10  -9    1.00    0.25
  -1 -10  -9    0.17    0.22
  -1  10  -9    0.09    0.16
  -1  10  -9    0.13    0.12
  -2 -10  -9    0.63    0.28
  -2  10  -9    0.21    0.13
  -2  10  -9    0.20    0.17
  -3 -10  -9    0.45    0.26
  -3  10  -9    0.07    0.15
  -3  10  -9    0.19    0.13
  -4 -10  -9    0.13    0.24
  -4  10  -9    0.08    0.12
  -4  10  -9   -0.12    0.12
  -5 -10  -9   -0.31    0.22
  -5  10  -9    0.18    0.14
  -5  10  -9    0.14    0.18
 -10  11   9    0.20    0.16
  10  11  -9   -0.06    0.15
  10  11  -9    0.15    0.17
   9  11  -9    2.82    0.37
   9  11  -9    2.45    0.38
   8  11  -9   -0.13    0.11
   8  11  -9    0.08    0.14
   7  11  -9    2.14    0.31
   7  11  -9    1.19    0.26
   6  11  -9    1.45    0.26
   6  11  -9    1.15    0.25
   5 -11  -9    1.62    0.30
   5  11  -9    1.43    0.26
   5  11  -9    1.74    0.30
   4 -11  -9    0.07    0.13
   4  11  -9   -0.02    0.11
  -4  11   9    0.02    0.10
   4  11  -9    0.03    0.14
   3 -11  -9    0.18    0.16
   3  11  -9    0.02    0.12
  -3  11   9    0.02    0.13
   3  11  -9    0.21    0.16
   2 -11  -9    2.75    0.43
  -2  11   9    2.51    0.34
   2  11  -9    2.40    0.32
   2  11  -9    2.42    0.39
   1 -11  -9    0.01    0.15
   1  11  -9    0.00    0.11
  -1  11   9    0.12    0.15
   1  11  -9   -0.05    0.13
   0 -11  -9   -0.06    0.17
   0  11  -9    0.04    0.12
   0  11  -9   -0.03    0.15
  -1 -11  -9   13.53    1.33
  -1  11  -9   16.03    1.09
  -1  11  -9   11.40    1.14
  -2 -11  -9    3.04    0.57
  -2  11  -9    3.29    0.40
  -2  11  -9    3.40    0.47
  -3 -11  -9    3.30    0.60
  -3  11  -9    2.98    0.46
  -3  11  -9    3.05    0.39
  -4 -11  -9    0.83    0.36
  -4  11  -9    1.10    0.28
  -4  11  -9    1.08    0.24
   8  12  -9    8.70    0.78
   8  12  -9    8.76    0.78
   7  12  -9    1.79    0.32
   7  12  -9    1.95    0.33
   6  12  -9   -0.04    0.13
   6  12  -9    0.01    0.14
   5 -12  -9    0.17    0.16
   5  12  -9    0.15    0.17
   5  12  -9    0.26    0.15
   4 -12  -9    2.36    0.39
   4  12  -9    2.28    0.37
   4  12  -9    2.34    0.34
   3 -12  -9    0.48    0.22
   3  12  -9    0.21    0.14
   3  12  -9    0.29    0.19
  -3  12   9    0.24    0.14
   2 -12  -9    1.71    0.36
   2  12  -9    1.88    0.30
   2  12  -9    2.16    0.37
  -2  12   9    2.31    0.32
   1 -12  -9    2.04    0.41
   1  12  -9    1.84    0.37
   1  12  -9    2.33    0.34
  -1  12   9    2.67    0.36
   0 -12  -9    0.34    0.22
   0  12  -9    0.12    0.13
   0  12   9    0.09    0.16
   0  12  -9    0.02    0.17
  -1 -12  -9    0.50    0.27
  -1  12  -9    0.18    0.18
   1  12   9    0.39    0.21
  -1  12  -9    0.45    0.17
  -2 -12  -9    0.81    0.31
  -2  12  -9    0.19    0.19
  -2  12  -9    0.50    0.18
   2  12   9    0.67    0.22
   5 -13  -9    2.71    0.43
   5  13  -9    2.91    0.40
   5  13  -9    2.65    0.41
   4 -13  -9   -0.05    0.14
   4  13  -9    0.00    0.13
   4  13  -9   -0.02    0.16
   3 -13  -9    0.11    0.16
   3  13  -9   -0.04    0.16
   3  13  -9    0.05    0.12
   2 -13  -9    0.84    0.27
   2  13  -9    0.94    0.28
  -2  13   9    1.48    0.26
   2  13  -9    0.95    0.23
   1 -13  -9    0.34    0.24
   1  13  -9    0.31    0.17
   1  13  -9    0.23    0.21
  14   0 -10    2.75    0.26
  13   0 -10   -0.04    0.06
  12   0 -10    2.45    0.24
  11   0 -10    0.04    0.07
  10   0 -10    8.99    0.68
 -10   0  10    9.44    0.66
   9   0 -10   -0.03    0.06
   8   0 -10   39.04    2.68
   8   0 -10   36.96    2.57
   7   0 -10   -0.05    0.11
   7   0 -10    0.09    0.09
   7   0 -10    0.00    0.06
   6   0 -10   20.03    1.43
   6   0 -10   21.24    1.52
   6   0 -10   20.33    1.58
   5   0 -10    0.73    0.17
   5   0 -10    0.37    0.07
   5   0 -10    0.51    0.12
   4   0 -10   70.99    4.97
   4   0 -10   77.42    5.16
   3   0 -10   -0.02    0.10
   3   0 -10   -0.02    0.06
   2   0 -10   46.91    3.16
   2   0 -10   45.42    3.29
   1   0 -10   -0.05    0.07
   1   0 -10   -0.16    0.08
   0   0 -10   19.13    1.49
   0   0 -10   19.54    1.41
  -1   0 -10    0.05    0.12
  -2   0 -10   39.76    2.91
  -3   0 -10   -0.01    0.13
  -4   0 -10   24.98    1.95
  -5   0 -10   -0.04    0.17
  -6   0 -10   12.39    1.13
  -7   0 -10   -0.10    0.16
  -8   0 -10    1.02    0.32
  -9   0 -10   -0.08    0.17
  15   1 -10    2.02    0.25
  14   1 -10    0.14    0.09
  13  -1 -10    0.01    0.07
  13   1 -10    0.04    0.08
  12  -1 -10    5.21    0.42
  12   1 -10    5.59    0.44
  11  -1 -10    0.01    0.07
  11   1 -10    0.14    0.08
  10  -1 -10    0.14    0.07
 -10  -1  10    0.10    0.04
 -10   1  10   -0.02    0.05
  10   1 -10   -0.03    0.06
  10   1 -10    0.06    0.08
   9  -1 -10    1.35    0.17
   9   1 -10    1.18    0.17
   9   1 -10    1.43    0.19
   8  -1 -10    1.07    0.16
   8   1 -10    1.26    0.21
   8   1 -10    0.99    0.16
   8   1 -10    1.08    0.19
   7  -1 -10    7.46    0.61
   7  -1 -10    6.16    0.54
   7   1 -10    7.85    0.64
   7   1 -10    7.32    0.60
   7   1 -10    7.04    0.55
   6  -1 -10    3.65    0.36
   6  -1 -10    4.60    0.44
   6   1 -10    4.76    0.40
   6   1 -10    4.43    0.42
   6   1 -10    4.12    0.37
   5  -1 -10    6.11    0.52
   5  -1 -10    6.97    0.59
   5   1 -10    6.11    0.51
   5   1 -10    5.09    0.54
   5   1 -10    7.65    0.55
   4  -1 -10    0.29    0.10
   4  -1 -10    0.52    0.16
   4   1 -10    0.47    0.15
   4   1 -10    0.22    0.09
   4   1 -10    0.42    0.07
   3  -1 -10   16.09    1.30
   3  -1 -10   17.08    1.23
   3   1 -10   18.58    1.31
   3   1 -10   16.20    1.21
   2  -1 -10    0.26    0.15
   2  -1 -10    0.34    0.11
   2   1 -10    0.12    0.12
   2   1 -10    0.76    0.14
   1  -1 -10    4.95    0.57
   1   1 -10    4.99    0.52
   1   1 -10    5.79    0.47
   0  -1 -10   -0.11    0.10
   0   1 -10   -0.01    0.11
   0   1 -10    0.02    0.08
  -1  -1 -10    2.44    0.37
  -1   1 -10    2.10    0.33
  -1   1 -10    2.07    0.29
  -2  -1 -10    2.97    0.43
  -2   1 -10    2.01    0.36
  -3  -1 -10    0.25    0.18
  -3   1 -10    0.31    0.17
  -4  -1 -10   35.75    2.62
  -4   1 -10   33.77    2.60
  -5  -1 -10    3.70    0.51
  -5   1 -10    3.49    0.50
  -6  -1 -10    9.66    0.94
  -6   1 -10    9.49    0.92
  -7  -1 -10    0.53    0.27
  -7  -1 -10    0.80    0.29
  -7   1 -10    0.50    0.25
  -8  -1 -10    6.43    0.87
  -8  -1 -10    5.67    0.72
  -8   1 -10    6.93    0.78
  -9  -1 -10    0.21    0.25
  -9  -1 -10   -0.07    0.18
  -9   1 -10   -0.29    0.15
  15   2 -10   -0.09    0.09
  14   2 -10    0.05    0.08
  13   2 -10    1.73    0.23
  12  -2 -10    1.51    0.18
  12   2 -10    1.93    0.22
  11  -2 -10    1.95    0.20
  11   2 -10    1.65    0.18
  11   2 -10    1.62    0.22
  10  -2 -10    2.05    0.24
  10   2 -10    3.53    0.44
  10   2 -10    2.61    0.26
  10   2 -10    2.54    0.25
   9  -2 -10   12.28    0.91
   9   2 -10   11.89    0.92
   9   2 -10   14.38    1.13
   9   2 -10   12.91    0.95
   8  -2 -10    3.63    0.33
   8   2 -10    4.70    0.45
   8   2 -10    4.01    0.36
   8   2 -10    3.48    0.33
   7  -2 -10    0.17    0.09
   7   2 -10    0.17    0.10
   7   2 -10   -0.05    0.06
   7   2 -10    0.15    0.11
   6  -2 -10   64.97    4.45
   6   2 -10   59.64    4.43
   6   2 -10   71.60    5.04
   6   2 -10   68.66    4.59
   5  -2 -10    2.37    0.26
   5  -2 -10    1.66    0.28
   5   2 -10    2.37    0.25
   5   2 -10    1.96    0.24
   5   2 -10    1.96    0.27
   4  -2 -10   13.02    1.06
   4  -2 -10   14.32    1.03
   4  -2 -10   12.80    1.09
   4   2 -10   15.86    1.09
   4   2 -10   13.84    1.01
   4   2 -10   12.60    1.05
   3  -2 -10    3.48    0.35
   3  -2 -10    4.23    0.48
   3   2 -10    4.30    0.36
   3   2 -10    3.82    0.33
   3   2 -10    3.83    0.40
   2  -2 -10    5.58    0.60
   2  -2 -10    5.19    0.49
   2   2 -10    5.53    0.47
   2   2 -10    5.83    0.52
   1  -2 -10    1.03    0.25
   1  -2 -10    0.82    0.17
   1   2 -10    1.03    0.17
   1   2 -10    0.77    0.19
   0  -2 -10    8.01    0.74
   0  -2 -10    7.18    0.72
   0   2 -10    8.38    0.71
   0   2 -10    8.14    0.65
  -1  -2 -10    0.54    0.19
  -1  -2 -10    0.24    0.12
  -1   2 -10    0.43    0.17
  -1   2 -10    0.61    0.15
  -2  -2 -10   24.73    1.94
  -2  -2 -10   23.29    2.06
  -2   2 -10   26.07    1.91
  -2   2 -10   26.23    1.80
  -3  -2 -10    0.50    0.20
  -3  -2 -10    0.75    0.25
  -3   2 -10    0.17    0.17
  -4  -2 -10   17.12    1.36
  -4  -2 -10   15.52    1.44
  -4   2 -10   15.49    1.32
  -5  -2 -10    1.69    0.37
  -5  -2 -10    1.98    0.40
  -5   2 -10    1.25    0.32
  -6  -2 -10    1.59    0.39
  -6  -2 -10    1.78    0.38
  -6   2 -10    1.77    0.35
  -7  -2 -10   10.86    1.06
  -7  -2 -10    8.40    0.87
  -7   2 -10    7.90    0.84
  -8  -2 -10    0.65    0.27
  -8  -2 -10    0.88    0.36
  -8   2 -10    1.20    0.32
  -9  -2 -10    3.91    0.68
  -9  -2 -10    3.33    0.54
  -9   2 -10    3.37    0.53
  16   3 -10    0.08    0.11
  15   3 -10    3.62    0.36
  14   3 -10    1.17    0.19
  13   3 -10    5.63    0.48
  12   3 -10    5.73    0.49
  11  -3 -10    0.90    0.13
  11   3 -10    0.63    0.15
  11   3 -10    0.71    0.13
  10  -3 -10    6.58    0.49
  10   3 -10    6.15    0.51
  10   3 -10    6.74    0.68
  10   3 -10    5.96    0.51
   9  -3 -10    2.53    0.25
   9   3 -10    2.82    0.29
   9   3 -10    3.00    0.41
   9   3 -10    2.35    0.28
   8  -3 -10    3.78    0.36
   8   3 -10    4.48    0.39
   8   3 -10    4.21    0.38
   8   3 -10    4.97    0.49
   7  -3 -10   22.08    1.56
   7   3 -10   23.26    1.81
   7   3 -10   21.26    1.56
   7   3 -10   22.93    1.62
   6   3 -10    1.90    0.26
   6   3 -10    1.51    0.22
   6   3 -10    1.29    0.19
   5  -3 -10    2.71    0.25
   5   3 -10    2.93    0.28
   5   3 -10    2.85    0.31
   5   3 -10    2.98    0.34
   4  -3 -10    1.59    0.18
   4   3 -10    1.84    0.21
   4   3 -10    1.23    0.22
   4   3 -10    1.44    0.20
   3  -3 -10    2.61    0.31
   3  -3 -10    3.27    0.42
   3   3 -10    3.10    0.37
   3   3 -10    3.28    0.29
   3   3 -10    3.26    0.31
   2  -3 -10    0.45    0.13
   2  -3 -10    0.76    0.22
   2   3 -10    0.61    0.10
   2   3 -10    0.52    0.15
   2   3 -10    0.59    0.13
   1  -3 -10    4.75    0.55
   1  -3 -10    4.36    0.47
   1   3 -10    4.42    0.46
   1   3 -10    5.48    0.44
   0  -3 -10    1.61    0.29
   0  -3 -10    1.27    0.25
   0   3 -10    1.35    0.25
   0   3 -10    2.08    0.24
  -1  -3 -10    1.04    0.23
  -1  -3 -10    1.03    0.26
  -1   3 -10    0.97    0.22
  -1   3 -10    1.78    0.24
  -2  -3 -10    0.23    0.16
  -2  -3 -10   -0.12    0.11
  -2   3 -10   -0.02    0.09
  -2   3 -10   -0.18    0.10
  -3  -3 -10    7.64    0.81
  -3  -3 -10    7.34    0.82
  -3   3 -10    7.94    0.66
  -3   3 -10    7.98    0.74
  -4  -3 -10    2.78    0.45
  -4  -3 -10    2.09    0.42
  -4   3 -10    3.15    0.45
  -5  -3 -10   14.80    1.30
  -5  -3 -10   15.02    1.43
  -5   3 -10   15.50    1.27
  -6  -3 -10    2.21    0.47
  -6  -3 -10    2.72    0.47
  -6   3 -10    3.23    0.47
  -7  -3 -10    0.68    0.27
  -7  -3 -10    0.67    0.32
  -7   3 -10    1.16    0.30
  -8  -3 -10   -0.05    0.21
  -8   3 -10   -0.04    0.16
  -9  -3 -10    3.96    0.68
  -9   3 -10    2.69    0.46
  16   4 -10    0.34    0.15
  15   4 -10   -0.16    0.09
  14   4 -10    0.92    0.19
  13   4 -10    2.92    0.33
  12   4 -10    1.60    0.24
  11   4 -10   36.47    2.42
  11   4 -10   33.76    2.44
  10   4 -10    3.53    0.34
  10   4 -10    3.91    0.52
  10   4 -10    3.37    0.33
   9   4 -10   16.12    1.18
   9   4 -10   15.61    1.16
   9   4 -10   16.42    1.40
   8   4 -10    0.01    0.09
   8   4 -10   -0.03    0.12
   8   4 -10    0.09    0.09
   7   4 -10   26.98    2.24
   7   4 -10   28.85    1.93
   7   4 -10   27.47    1.99
   6   4 -10    2.12    0.24
   6   4 -10    1.74    0.29
   6   4 -10    1.51    0.23
   5  -4 -10    5.08    0.45
   5   4 -10    5.23    0.45
   5   4 -10    6.42    0.54
   5   4 -10    4.66    0.46
   4  -4 -10    8.82    0.79
   4   4 -10   10.32    0.82
   4   4 -10    9.56    0.73
   4   4 -10    9.80    0.78
   3  -4 -10    4.87    0.44
   3   4 -10    4.32    0.41
   3   4 -10    4.57    0.44
   3   4 -10    4.19    0.39
   2  -4 -10    0.09    0.09
   2   4 -10   -0.01    0.07
   2   4 -10    0.08    0.06
   2   4 -10   -0.04    0.09
   1  -4 -10    0.18    0.13
   1   4 -10    0.20    0.07
   1   4 -10    0.33    0.11
   1   4 -10    0.09    0.10
   0  -4 -10    2.14    0.35
   0   4 -10    2.68    0.37
   0   4 -10    3.40    0.34
  -1  -4 -10    8.06    0.90
  -1   4 -10   10.54    0.78
  -1   4 -10   10.63    0.86
  -2  -4 -10    0.44    0.20
  -2   4 -10    0.66    0.18
  -2   4 -10    0.50    0.15
  -3  -4 -10   22.80    1.97
  -3   4 -10   23.48    1.77
  -3   4 -10   22.87    1.67
  -4  -4 -10    0.56    0.25
  -4   4 -10    0.73    0.18
  -4   4 -10    0.44    0.21
  -5  -4 -10    5.48    0.74
  -5   4 -10    5.34    0.62
  -6  -4 -10   -0.01    0.20
  -6   4 -10   -0.14    0.11
  -7  -4 -10    1.01    0.38
  -7   4 -10    0.94    0.29
  -8  -4 -10    1.33    0.43
  -8   4 -10    1.72    0.38
  -9  -4 -10   -0.26    0.24
  -9   4 -10    0.00    0.17
  15   5 -10    0.07    0.12
  14   5 -10    1.57    0.25
  13   5 -10    0.27    0.13
  12   5 -10    0.17    0.12
  11   5 -10    3.64    0.37
  11   5 -10    4.00    0.36
  10   5 -10    1.22    0.20
  10   5 -10    1.26    0.19
   9   5 -10    4.74    0.41
   9   5 -10    4.46    0.59
   9   5 -10    4.07    0.39
   8   5 -10   -0.04    0.08
   8   5 -10    0.07    0.09
   8   5 -10    0.05    0.17
   7   5 -10    4.00    0.39
   7   5 -10    4.84    0.56
   7   5 -10    4.21    0.39
   6   5 -10    3.34    0.36
   6   5 -10    3.23    0.43
   6   5 -10    2.81    0.32
   5  -5 -10    9.96    0.88
   5   5 -10   11.82    0.83
   5   5 -10   10.97    0.86
   5   5 -10   11.08    0.95
   4  -5 -10    5.26    0.49
   4   5 -10    5.19    0.45
   4   5 -10    5.68    0.52
   4   5 -10    4.91    0.48
   3  -5 -10    0.14    0.10
   3   5 -10   -0.03    0.09
   3   5 -10   -0.02    0.07
   3   5 -10    0.04    0.07
   2  -5 -10    0.44    0.15
   2   5 -10    0.85    0.16
   2   5 -10    0.49    0.16
   2   5 -10    0.45    0.12
   1  -5 -10    0.76    0.19
   1   5 -10    0.55    0.16
   1   5 -10    0.49    0.12
   1   5 -10    0.56    0.13
   0  -5 -10    1.74    0.31
   0   5 -10    1.56    0.28
   0   5 -10    1.67    0.23
   0   5 -10    1.93    0.26
  -1  -5 -10    6.94    0.74
  -1   5 -10    6.74    0.65
  -1   5 -10    6.95    0.59
  -2  -5 -10    0.91    0.27
  -2   5 -10    0.52    0.19
  -2   5 -10    0.71    0.17
  -3  -5 -10    2.03    0.40
  -3   5 -10    2.19    0.31
  -3   5 -10    2.79    0.40
  -4  -5 -10    1.31    0.35
  -4   5 -10    1.37    0.26
  -4   5 -10    1.73    0.31
  -5  -5 -10    1.97    0.43
  -5   5 -10    1.89    0.29
  -5   5 -10    1.71    0.33
  -6  -5 -10   -0.04    0.19
  -6   5 -10   -0.15    0.13
  -7  -5 -10   11.00    1.14
  -7   5 -10    8.95    0.91
  -8  -5 -10   -0.05    0.21
  -8   5 -10   -0.13    0.15
  15   6 -10   -0.01    0.12
  14   6 -10    0.41    0.16
  13   6 -10    1.80    0.28
  12   6 -10    9.39    0.76
  11   6 -10    7.39    0.62
  11   6 -10    7.22    0.59
  10   6 -10    1.27    0.20
  10   6 -10    1.18    0.22
   9   6 -10   18.36    1.37
   9   6 -10   19.33    1.37
   8   6 -10    0.72    0.16
   8   6 -10    0.47    0.15
   7   6 -10   62.68    4.05
   7   6 -10   61.78    4.15
   7   6 -10   53.52    4.65
   6  -6 -10    0.16    0.09
   6   6 -10   -0.05    0.10
   6   6 -10    0.03    0.16
   6   6 -10    0.09    0.10
   5  -6 -10    8.66    0.74
   5   6 -10    8.87    0.82
   5   6 -10    8.10    0.68
   5   6 -10    9.14    0.73
   4  -6 -10    0.14    0.11
   4   6 -10    0.25    0.10
   4   6 -10    0.32    0.14
   4   6 -10    0.32    0.14
   3  -6 -10    8.92    0.85
   3   6 -10    9.99    0.81
   3   6 -10    9.65    0.76
   3   6 -10   10.28    0.86
   2  -6 -10    2.68    0.37
   2   6 -10    3.44    0.34
   2   6 -10    2.07    0.29
   2   6 -10    3.68    0.41
   1  -6 -10   -0.04    0.12
   1   6 -10    0.12    0.09
   1   6 -10   -0.03    0.11
   1   6 -10    0.02    0.07
   0  -6 -10    0.96    0.25
   0   6 -10    1.70    0.29
   0   6 -10    1.35    0.22
  -1  -6 -10    2.09    0.39
  -1   6 -10    2.71    0.32
  -1   6 -10    3.08    0.40
  -2  -6 -10    1.63    0.36
  -2   6 -10    1.87    0.25
  -2   6 -10    0.99    0.26
  -3  -6 -10    8.14    0.92
  -3   6 -10    9.02    0.81
  -3   6 -10    8.75    0.73
  -4  -6 -10    0.12    0.20
  -4   6 -10    0.23    0.14
  -4   6 -10   -0.10    0.13
  -5  -6 -10    2.09    0.48
  -5   6 -10    2.42    0.35
  -5   6 -10    1.94    0.36
  -6  -6 -10    3.23    0.62
  -6   6 -10    3.42    0.48
  -7  -6 -10    1.73    0.49
  -7   6 -10    1.63    0.36
  -8  -6 -10    1.27    0.44
  -8   6 -10    1.19    0.32
  14   7 -10    0.53    0.17
  13   7 -10    0.84    0.21
  12   7 -10    0.01    0.12
  11   7 -10    3.69    0.41
  11   7 -10    3.41    0.35
  10   7 -10    1.78    0.26
  10   7 -10    3.05    0.34
   9   7 -10    4.05    0.39
   9   7 -10    3.63    0.42
   8   7 -10    0.62    0.16
   8   7 -10    0.56    0.16
   7   7 -10    8.54    0.69
   7   7 -10    8.13    0.69
   6  -7 -10    0.46    0.13
   6   7 -10    0.48    0.15
   6   7 -10    0.36    0.15
   5  -7 -10    1.10    0.20
   5   7 -10    1.12    0.21
   5   7 -10    1.07    0.20
   4  -7 -10    0.95    0.20
   4   7 -10    0.75    0.19
   4   7 -10    0.87    0.18
   3  -7 -10    0.84    0.20
   3   7 -10    0.76    0.17
   3   7 -10    0.88    0.21
   2  -7 -10    2.69    0.39
   2   7 -10    3.31    0.35
   2   7 -10    2.81    0.37
   1  -7 -10    2.22    0.37
   1   7 -10    2.65    0.32
   1   7 -10    2.46    0.35
   0  -7 -10   -0.05    0.14
   0   7 -10   -0.09    0.11
   0   7 -10    0.05    0.10
  -1  -7 -10    0.87    0.26
  -1   7 -10    0.54    0.20
  -1   7 -10    0.77    0.18
  -2  -7 -10    3.12    0.51
  -2   7 -10    2.85    0.42
  -2   7 -10    3.19    0.37
  -3  -7 -10    0.08    0.19
  -3   7 -10    0.21    0.16
  -3   7 -10    0.23    0.13
  -4  -7 -10    1.24    0.35
  -4   7 -10    0.89    0.21
  -4   7 -10    0.77    0.25
  -5  -7 -10    3.96    0.68
  -5   7 -10    4.00    0.48
  -5   7 -10    3.69    0.53
  -6  -7 -10    1.00    0.39
  -6   7 -10    1.23    0.26
  -6   7 -10    1.56    0.32
  -7  -7 -10   -0.08    0.23
  -7   7 -10   -0.22    0.13
  13   8 -10    0.21    0.16
  12   8 -10    0.28    0.16
  11   8 -10    0.00    0.10
  11   8 -10    0.01    0.12
  10   8 -10    4.96    0.45
  10   8 -10    3.81    0.41
   9   8 -10    0.02    0.11
   9   8 -10   -0.11    0.12
   8   8 -10    8.30    0.67
   8   8 -10    7.40    0.65
   7   8 -10    2.00    0.27
   7   8 -10    1.41    0.24
   6  -8 -10    8.58    0.77
   6   8 -10    8.80    0.71
   6   8 -10    8.40    0.72
   5  -8 -10    1.92    0.30
   5   8 -10    2.80    0.31
   5   8 -10    2.16    0.31
   4  -8 -10    0.04    0.10
   4   8 -10    0.01    0.13
   4   8 -10    0.00    0.10
   3  -8 -10    2.93    0.42
   3   8 -10    3.39    0.38
   3   8 -10    3.91    0.44
   2  -8 -10    1.14    0.27
   2   8 -10    1.86    0.31
   2   8 -10    1.93    0.27
   1  -8 -10    0.14    0.16
   1   8 -10    0.21    0.15
   1   8 -10    0.02    0.10
   0  -8 -10    4.95    0.69
   0   8 -10    7.34    0.57
   0   8 -10    5.97    0.61
  -1  -8 -10    0.28    0.22
  -1   8 -10    0.26    0.18
  -1   8 -10    0.43    0.14
  -2  -8 -10    5.54    0.73
  -2   8 -10    4.20    0.56
  -2   8 -10    6.19    0.52
  -3  -8 -10   -0.03    0.19
  -3   8 -10   -0.22    0.10
  -3   8 -10    0.12    0.12
  -4  -8 -10    5.35    0.73
  -4   8 -10    4.82    0.60
  -4   8 -10    4.20    0.49
  -5  -8 -10    2.31    0.52
  -5   8 -10    1.90    0.40
  -5   8 -10    2.92    0.38
  -6  -8 -10    1.06    0.41
  -6   8 -10    1.08    0.24
  -6   8 -10    0.98    0.28
  13   9 -10   -0.35    0.11
  12   9 -10    6.28    0.60
  11   9 -10    3.28    0.37
  11   9 -10    2.92    0.39
  10   9 -10    2.48    0.36
  10   9 -10    3.04    0.35
   9   9 -10    1.47    0.27
   9   9 -10    1.85    0.28
   8   9 -10    0.50    0.17
   8   9 -10    0.16    0.14
   7   9 -10    0.23    0.14
   7   9 -10   -0.01    0.10
   6  -9 -10    0.71    0.19
   6   9 -10    0.52    0.17
   6   9 -10    0.68    0.19
   5  -9 -10    0.09    0.12
   5   9 -10    0.12    0.12
   5   9 -10    0.01    0.13
   4  -9 -10    0.03    0.12
   4   9 -10    0.01    0.10
   4   9 -10   -0.20    0.10
   3  -9 -10    5.87    0.62
   3   9 -10    5.85    0.58
   3   9 -10    6.01    0.54
   2  -9 -10   -0.06    0.14
   2   9 -10    0.00    0.15
   2   9 -10   -0.04    0.09
   1  -9 -10    1.08    0.29
   1   9 -10    1.48    0.28
   1   9 -10    1.45    0.24
   0  -9 -10    0.33    0.20
   0   9 -10   -0.03    0.10
   0   9 -10   -0.14    0.12
  -1  -9 -10    0.33    0.22
  -1   9 -10    0.11    0.11
  -1   9 -10    0.36    0.18
  -2  -9 -10    3.98    0.63
  -2   9 -10    4.24    0.56
  -2   9 -10    5.06    0.47
  -3  -9 -10   -0.02    0.23
  -3   9 -10    0.41    0.16
  -3   9 -10   -0.06    0.15
  -4  -9 -10    1.28    0.40
  -4   9 -10    0.71    0.25
  -4   9 -10    1.05    0.23
  -5  -9 -10    0.11    0.24
  -5   9 -10    0.17    0.14
  -5   9 -10   -0.03    0.16
  -6   9 -10    2.27    0.43
  11  10 -10    0.15    0.16
  11  10 -10    0.52    0.20
 -11  10  10    0.56    0.18
  10  10 -10    4.77    0.55
  10  10 -10    5.40    0.51
   9  10 -10    1.12    0.22
   9  10 -10    1.11    0.25
   8  10 -10   12.10    0.99
   8  10 -10   12.69    1.00
   7  10 -10    0.42    0.17
   7  10 -10    0.23    0.16
   6 -10 -10    7.66    0.75
   6  10 -10    9.07    0.71
   6  10 -10    7.04    0.69
   5 -10 -10    0.44    0.18
   5  10 -10    0.44    0.19
  -5  10  10    0.32    0.14
   5  10 -10    0.66    0.18
   4 -10 -10    8.66    0.85
   4  10 -10    9.10    0.76
   4  10 -10    9.65    0.81
   3 -10 -10    0.61    0.22
   3  10 -10    0.58    0.21
   3  10 -10    0.82    0.18
   2 -10 -10    0.05    0.14
   2  10 -10   -0.14    0.12
   2  10 -10    0.07    0.11
   1 -10 -10   -0.20    0.12
   1  10 -10    0.01    0.11
   1  10 -10   -0.05    0.13
   0 -10 -10    1.87    0.38
   0  10 -10    1.44    0.30
   0  10 -10    1.52    0.27
  -1 -10 -10    0.14    0.21
  -1  10 -10   -0.01    0.11
  -1  10 -10   -0.08    0.14
  -2 -10 -10    1.42    0.39
  -2  10 -10    1.64    0.28
  -2  10 -10    1.48    0.31
  -3 -10 -10    0.53    0.29
  -3  10 -10    0.64    0.19
  -3  10 -10    0.59    0.23
  -4 -10 -10    3.78    0.67
  -4  10 -10    3.63    0.55
  -4  10 -10    4.71    0.51
  10  11 -10    6.41    0.61
  10  11 -10    6.98    0.65
   9  11 -10    0.02    0.13
   9  11 -10   -0.14    0.13
   8  11 -10    0.46    0.19
   8  11 -10    0.55    0.19
   7  11 -10    2.58    0.37
   7  11 -10    2.51    0.37
   6 -11 -10    0.18    0.14
   6  11 -10    0.01    0.14
   6  11 -10    0.11    0.14
   5 -11 -10   -0.10    0.11
   5  11 -10    0.19    0.15
   5  11 -10   -0.04    0.14
   4 -11 -10    0.86    0.23
   4  11 -10    0.85    0.20
  -4  11  10    0.64    0.18
   4  11 -10    0.60    0.21
   3 -11 -10    0.06    0.14
   3  11 -10    0.10    0.13
  -3  11  10    0.04    0.13
   3  11 -10   -0.28    0.12
   2 -11 -10    0.56    0.22
   2  11 -10    0.29    0.19
   2  11 -10    0.58    0.18
   1 -11 -10    1.71    0.36
   1  11 -10    2.44    0.32
   1  11 -10    1.73    0.34
   0 -11 -10    0.11    0.20
   0  11 -10   -0.11    0.10
   0  11 -10    0.12    0.18
  -1 -11 -10    1.22    0.34
  -1  11 -10    1.23    0.24
  -1  11 -10    0.95    0.28
  -2 -11 -10    0.94    0.35
  -2  11 -10    1.11    0.30
  -2  11 -10    1.03    0.24
  -3 -11 -10   -0.05    0.23
  -3  11 -10   -0.16    0.12
  -3  11 -10   -0.06    0.10
   8  12 -10    1.94    0.34
   8  12 -10    1.97    0.34
   7  12 -10    0.09    0.18
   7  12 -10    0.34    0.18
   6  12 -10    0.74    0.24
   6  12 -10    0.32    0.18
   5 -12 -10    0.29    0.18
   5  12 -10    0.05    0.14
   5  12 -10    0.11    0.17
   4 -12 -10    0.35    0.18
   4  12 -10    0.52    0.18
   4  12 -10    0.30    0.20
   3 -12 -10    0.23    0.18
  -3  12  10   -0.06    0.12
   3  12 -10    0.21    0.15
   3  12 -10    0.39    0.21
   2 -12 -10    0.04    0.16
  -2  12  10   -0.05    0.13
   2  12 -10    0.38    0.22
   2  12 -10    0.10    0.14
   1 -12 -10    0.62    0.25
   1  12 -10    0.34    0.16
   1  12 -10    0.34    0.21
  -1  12  10    0.51    0.20
   0 -12 -10   -0.05    0.19
   0  12  10   -0.09    0.13
   0  12 -10    0.18    0.18
   0  12 -10    0.01    0.14
  -1 -12 -10    0.07    0.21
  -1  12 -10    0.11    0.14
  -1  12 -10    0.09    0.19
  14   0 -11    0.02    0.07
  13   0 -11    1.74    0.21
  12   0 -11   -0.04    0.06
  11   0 -11    0.96    0.15
  10   0 -11   -0.06    0.07
   9   0 -11    0.12    0.12
   9   0 -11    0.04    0.09
   8   0 -11   -0.15    0.10
   8   0 -11    0.04    0.08
   7   0 -11    8.88    0.72
   7   0 -11    7.78    0.65
   7   0 -11    9.07    0.73
   6   0 -11   -0.05    0.06
   6   0 -11   -0.13    0.06
   6   0 -11    0.01    0.11
   5   0 -11   39.18    2.84
   5   0 -11   41.09    2.99
   5   0 -11   38.12    2.72
   4   0 -11    0.08    0.12
   4   0 -11    0.06    0.08
   3   0 -11   23.02    1.62
   3   0 -11   22.21    1.71
   2   0 -11   -0.15    0.09
   2   0 -11    0.08    0.09
   1   0 -11    7.85    0.66
   1   0 -11    7.85    0.72
   0   0 -11   -0.08    0.12
   0   0 -11   -0.02    0.08
  -1   0 -11   -0.19    0.11
  -2   0 -11   -0.09    0.14
  -3   0 -11   11.81    1.07
  -4   0 -11   -0.13    0.17
  -5   0 -11   12.37    1.12
  -6   0 -11   -0.14    0.15
  -7   0 -11   20.60    1.71
  -8   0 -11   -0.29    0.16
  -9   0 -11    2.49    0.49
  -9   0 -11    3.34    0.61
  14   1 -11    2.76    0.29
  13  -1 -11    0.17    0.09
  13   1 -11    0.34    0.11
  12  -1 -11    0.01    0.07
  12   1 -11    0.06    0.08
  11  -1 -11    4.76    0.42
  11   1 -11    5.55    0.43
  10  -1 -11    2.33    0.25
  10   1 -11    2.02    0.26
  10   1 -11    2.56    0.27
   9  -1 -11   23.19    1.67
   9   1 -11   26.38    1.75
   9   1 -11   25.34    1.94
   9   1 -11   21.84    1.67
   8  -1 -11   17.45    1.33
   8   1 -11   20.51    1.53
   8   1 -11   18.86    1.34
   8   1 -11   18.73    1.39
   7  -1 -11   52.04    3.81
   7  -1 -11   51.11    3.66
   7   1 -11   54.09    3.79
   7   1 -11   59.77    4.14
   7   1 -11   53.35    3.66
   6  -1 -11    4.23    0.48
   6  -1 -11    4.23    0.40
   6   1 -11    4.83    0.41
   6   1 -11    4.19    0.39
   6   1 -11    4.58    0.44
   5  -1 -11   12.88    1.04
   5  -1 -11   14.00    1.13
   5   1 -11   13.69    1.04
   5   1 -11   15.56    1.12
   5   1 -11   14.12    1.11
   4  -1 -11    5.83    0.50
   4  -1 -11    6.37    0.58
   4   1 -11    5.75    0.46
   4   1 -11    5.63    0.54
   4   1 -11    5.58    0.49
   3  -1 -11    3.46    0.44
   3  -1 -11    2.90    0.34
   3   1 -11    3.17    0.35
   3   1 -11    3.17    0.41
   2  -1 -11    1.18    0.26
   2  -1 -11    1.08    0.20
   2   1 -11    1.26    0.20
   2   1 -11    1.09    0.23
   1  -1 -11   -0.05    0.12
   1   1 -11    0.17    0.11
   1   1 -11    0.13    0.14
   0  -1 -11    2.26    0.37
   0   1 -11    1.66    0.30
   0   1 -11    2.18    0.29
  -1  -1 -11    0.82    0.25
  -1   1 -11    0.92    0.26
  -1   1 -11    0.97    0.20
  -2  -1 -11    0.96    0.27
  -2   1 -11    0.86    0.24
  -3  -1 -11    1.32    0.35
  -3   1 -11    2.09    0.41
  -4  -1 -11   -0.24    0.16
  -4   1 -11   -0.47    0.15
  -5  -1 -11    0.42    0.28
  -5   1 -11    0.50    0.28
  -6  -1 -11    0.27    0.23
  -6   1 -11   -0.06    0.18
  -7  -1 -11   -0.63    0.21
  -7  -1 -11    0.25    0.26
  -7   1 -11   -0.21    0.24
  -8  -1 -11   -0.27    0.18
  -8  -1 -11    0.16    0.25
  -8   1 -11   -0.12    0.21
  -9  -1 -11    0.40    0.27
  -9   1 -11    0.28    0.23
  15   2 -11    7.61    0.61
  14   2 -11    1.19    0.19
  13   2 -11    0.30    0.12
  12  -2 -11    0.28    0.09
  12   2 -11    0.37    0.12
  11  -2 -11    0.18    0.09
  11   2 -11    0.17    0.09
  11   2 -11    0.22    0.11
  10  -2 -11   18.35    1.43
  10   2 -11   20.16    1.45
  10   2 -11   24.24    1.75
  10   2 -11   21.35    1.50
   9  -2 -11    1.04    0.17
   9   2 -11    1.36    0.20
   9   2 -11    1.37    0.22
   9   2 -11    1.61    0.29
   8  -2 -11    0.10    0.09
   8   2 -11   -0.05    0.07
   8   2 -11    0.19    0.13
   8   2 -11    0.03    0.10
   7  -2 -11    1.66    0.23
   7   2 -11    1.99    0.27
   7   2 -11    1.71    0.23
   7   2 -11    1.78    0.26
   6  -2 -11    1.40    0.26
   6  -2 -11    1.46    0.21
   6   2 -11    1.12    0.21
   6   2 -11    0.90    0.17
   6   2 -11    1.32    0.21
   5  -2 -11   15.75    1.21
   5  -2 -11   14.62    1.11
   5   2 -11   17.17    1.21
   5   2 -11   13.44    1.09
   5   2 -11   14.11    1.15
   4  -2 -11   -0.01    0.09
   4  -2 -11    0.16    0.14
   4  -2 -11    0.05    0.06
   4   2 -11    0.03    0.10
   4   2 -11    0.06    0.08
   4   2 -11    0.12    0.06
   3  -2 -11   31.61    2.14
   3  -2 -11   27.88    2.19
   3   2 -11   28.28    2.17
   3   2 -11   28.21    2.08
   3   2 -11   27.34    1.99
   2  -2 -11    3.23    0.31
   2  -2 -11    2.97    0.41
   2   2 -11    2.54    0.31
   2   2 -11    1.94    0.32
   1  -2 -11    0.20    0.17
   1  -2 -11    0.53    0.14
   1   2 -11    0.55    0.18
   1   2 -11    0.61    0.15
   0  -2 -11    0.42    0.19
   0  -2 -11    0.19    0.12
   0   2 -11    0.21    0.10
   0   2 -11   -0.03    0.10
  -1  -2 -11    7.14    0.71
  -1  -2 -11    7.10    0.70
  -1   2 -11    6.61    0.60
  -1   2 -11    6.63    0.66
  -2  -2 -11    0.46    0.19
  -2  -2 -11    0.82    0.26
  -2   2 -11    0.55    0.22
  -2   2 -11    0.69    0.17
  -3  -2 -11   28.89    2.32
  -3  -2 -11   30.52    2.52
  -3   2 -11   31.96    2.32
  -4  -2 -11   34.45    2.48
  -4  -2 -11   30.43    2.66
  -4   2 -11   31.88    2.44
  -5  -2 -11   13.91    1.32
  -5  -2 -11   13.73    1.20
  -5   2 -11   12.53    1.16
  -6  -2 -11    6.80    0.79
  -6  -2 -11    6.20    0.84
  -6   2 -11    5.99    0.74
  -7  -2 -11   16.13    1.43
  -7  -2 -11   18.07    1.63
  -7   2 -11   15.53    1.40
  -8  -2 -11    8.93    1.03
  -8  -2 -11    5.86    0.76
  -8   2 -11    5.63    0.76
  16   3 -11    1.04    0.20
  15   3 -11    0.21    0.12
  14   3 -11    8.80    0.70
  13   3 -11    2.63    0.30
  12   3 -11    0.76    0.16
  11  -3 -11    4.21    0.37
  11   3 -11    4.95    0.40
  11   3 -11    4.40    0.40
  10  -3 -11    2.53    0.27
  10   3 -11    3.00    0.31
  10   3 -11    2.57    0.30
  10   3 -11    2.95    0.43
   9  -3 -11    7.03    0.56
   9   3 -11    7.82    0.72
   9   3 -11    7.02    0.59
   9   3 -11    7.05    0.57
   8  -3 -11    9.02    0.70
   8   3 -11    9.78    0.84
   8   3 -11    9.06    0.73
   8   3 -11    8.63    0.69
   7   3 -11   15.75    1.19
   7   3 -11   16.22    1.24
   7   3 -11   17.96    1.39
   6   3 -11   25.70    1.88
   6   3 -11   23.58    1.80
   6   3 -11   28.61    2.07
   5  -3 -11    1.24    0.14
   5   3 -11    1.54    0.21
   5   3 -11    1.28    0.22
   5   3 -11    1.11    0.18
   4  -3 -11    4.48    0.40
   4   3 -11    4.56    0.41
   4   3 -11    4.39    0.41
   4   3 -11    4.87    0.45
   3  -3 -11    2.78    0.31
   3  -3 -11    3.47    0.44
   3   3 -11    2.80    0.32
   3   3 -11    2.91    0.38
   3   3 -11    3.00    0.28
   2  -3 -11    2.89    0.41
   2  -3 -11    2.36    0.32
   2   3 -11    2.20    0.34
   2   3 -11    2.66    0.31
   2   3 -11    3.01    0.27
   1  -3 -11    1.52    0.31
   1  -3 -11    1.17    0.22
   1   3 -11    1.65    0.24
   1   3 -11    1.21    0.25
   0  -3 -11    0.03    0.10
   0  -3 -11    0.00    0.15
   0   3 -11    0.12    0.12
   0   3 -11    0.06    0.09
  -1  -3 -11    0.91    0.26
  -1  -3 -11    0.56    0.19
  -1   3 -11    0.91    0.19
  -1   3 -11    1.30    0.25
  -2  -3 -11    1.07    0.26
  -2  -3 -11    1.61    0.33
  -2   3 -11    1.11    0.26
  -2   3 -11    1.37    0.23
  -3  -3 -11    2.34    0.43
  -3  -3 -11    1.28    0.33
  -3   3 -11    2.45    0.33
  -3   3 -11    2.45    0.40
  -4  -3 -11    1.23    0.32
  -4  -3 -11    1.14    0.32
  -4   3 -11    0.95    0.28
  -5  -3 -11    0.26    0.22
  -5  -3 -11    0.21    0.22
  -5   3 -11    0.17    0.20
  -6  -3 -11    2.51    0.45
  -6  -3 -11    1.95    0.46
  -6   3 -11    2.40    0.41
  -7  -3 -11   -0.35    0.15
  -7  -3 -11   -0.13    0.23
  -7   3 -11   -0.18    0.17
  -8  -3 -11    0.22    0.29
  -8   3 -11   -0.13    0.17
  16   4 -11    0.74    0.18
  15   4 -11    1.52    0.24
  14   4 -11   -0.01    0.11
  13   4 -11    0.04    0.10
  12   4 -11    0.56    0.15
  11   4 -11   12.08    0.95
  11   4 -11   13.36    0.96
  10   4 -11    0.25    0.12
  10   4 -11    0.04    0.10
  10   4 -11    0.30    0.20
   9   4 -11    3.44    0.35
   9   4 -11    3.43    0.35
   9   4 -11    4.79    0.54
   8   4 -11    0.44    0.14
   8   4 -11    0.46    0.13
   8   4 -11    0.47    0.20
   7   4 -11    0.16    0.11
   7   4 -11    0.33    0.17
   7   4 -11    0.07    0.10
   6   4 -11   19.23    1.45
   6   4 -11   22.01    1.62
   6   4 -11   17.74    1.39
   5  -4 -11    2.96    0.28
   5   4 -11    3.04    0.36
   5   4 -11    2.53    0.31
   5   4 -11    2.60    0.34
   4  -4 -11    2.53    0.28
   4   4 -11    3.08    0.31
   4   4 -11    2.32    0.33
   4   4 -11    2.44    0.30
   3  -4 -11    1.81    0.25
   3   4 -11    1.65    0.24
   3   4 -11    2.15    0.23
   3   4 -11    1.91    0.28
   2  -4 -11    5.06    0.58
   2   4 -11    6.65    0.54
   2   4 -11    6.28    0.59
   2   4 -11    6.85    0.54
   1  -4 -11    0.31    0.14
   1   4 -11    0.26    0.09
   1   4 -11    0.20    0.11
   1   4 -11    0.10    0.13
   0  -4 -11    0.39    0.17
   0   4 -11    0.73    0.20
   0   4 -11    0.76    0.17
  -1  -4 -11    0.02    0.12
  -1   4 -11    0.04    0.12
  -1   4 -11   -0.01    0.09
  -2  -4 -11    4.84    0.63
  -2   4 -11    4.65    0.57
  -2   4 -11    5.57    0.50
  -3  -4 -11    0.45    0.22
  -3   4 -11    0.53    0.22
  -3   4 -11    0.86    0.21
  -4  -4 -11    0.77    0.30
  -4   4 -11    0.96    0.22
  -4   4 -11    1.19    0.29
  -5  -4 -11    2.28    0.47
  -5   4 -11    2.86    0.44
  -6  -4 -11    1.07    0.38
  -6   4 -11    1.14    0.29
  -7  -4 -11    0.17    0.28
  -7   4 -11    0.97    0.28
  -8  -4 -11    1.59    0.49
  -8   4 -11    1.31    0.34
  15   5 -11   -0.01    0.11
  14   5 -11    5.27    0.49
  13   5 -11    3.94    0.42
  12   5 -11    5.45    0.49
  11   5 -11    1.13    0.20
  11   5 -11    1.20    0.21
  10   5 -11    0.28    0.13
  10   5 -11    0.42    0.14
   9   5 -11    0.85    0.17
   9   5 -11    0.98    0.19
   8   5 -11    1.87    0.26
   8   5 -11    2.06    0.36
   8   5 -11    1.74    0.25
   7   5 -11    1.54    0.30
   7   5 -11    1.35    0.21
   7   5 -11    1.30    0.22
   6  -5 -11   24.95    2.04
   6   5 -11   28.33    2.16
   6   5 -11   28.31    1.94
   6   5 -11   25.54    1.86
   5  -5 -11    3.37    0.34
   5   5 -11    3.85    0.36
   5   5 -11    3.40    0.42
   5   5 -11    3.28    0.39
   4  -5 -11   11.29    1.03
   4   5 -11   13.00    1.06
   4   5 -11   12.43    0.95
   4   5 -11   14.00    1.01
   3  -5 -11    1.59    0.27
   3   5 -11    2.13    0.27
   3   5 -11    2.11    0.26
   3   5 -11    2.15    0.31
   2  -5 -11    6.87    0.65
   2   5 -11    6.26    0.56
   2   5 -11    7.11    0.63
   2   5 -11    6.50    0.59
   1  -5 -11    3.20    0.47
   1   5 -11    4.19    0.40
   1   5 -11    4.69    0.41
   1   5 -11    4.08    0.48
   0  -5 -11    0.86    0.23
   0   5 -11    0.81    0.16
   0   5 -11    0.77    0.17
   0   5 -11    0.86    0.22
  -1  -5 -11    0.65    0.24
  -1   5 -11    0.86    0.22
  -1   5 -11    0.91    0.19
  -2  -5 -11    5.24    0.70
  -2   5 -11    6.06    0.54
  -2   5 -11    5.76    0.65
  -3  -5 -11    0.62    0.25
  -3   5 -11    0.34    0.18
  -3   5 -11    0.58    0.17
  -4  -5 -11    3.14    0.53
  -4   5 -11    3.44    0.41
  -4   5 -11    2.75    0.44
  -5  -5 -11    0.94    0.32
  -5   5 -11    0.52    0.23
  -6  -5 -11    0.42    0.29
  -6   5 -11   -0.03    0.15
  -7  -5 -11    0.14    0.26
  -7   5 -11    0.19    0.19
  15   6 -11    0.17    0.14
  14   6 -11    0.73    0.19
  13   6 -11    0.86    0.20
  12   6 -11    0.82    0.21
  11   6 -11    3.67    0.37
  11   6 -11    3.79    0.42
  10   6 -11    0.03    0.11
  10   6 -11    0.03    0.10
   9   6 -11   10.61    0.80
   9   6 -11    9.62    0.80
   8   6 -11    4.15    0.41
   8   6 -11    4.28    0.42
   7   6 -11    2.34    0.31
   7   6 -11    2.49    0.42
   7   6 -11    2.88    0.34
   6  -6 -11    3.73    0.38
   6   6 -11    4.37    0.40
   6   6 -11    3.59    0.49
   6   6 -11    4.41    0.42
   5  -6 -11    2.84    0.32
   5   6 -11    3.05    0.34
   5   6 -11    3.07    0.40
   5   6 -11    3.08    0.38
   4  -6 -11    1.98    0.28
   4   6 -11    1.67    0.30
   4   6 -11    2.70    0.31
   4   6 -11    2.12    0.30
   3  -6 -11    0.04    0.10
   3   6 -11    0.10    0.10
   3   6 -11    0.05    0.09
   3   6 -11   -0.18    0.10
   2  -6 -11    0.72    0.20
   2   6 -11    1.07    0.20
   2   6 -11    0.87    0.17
   2   6 -11    1.01    0.23
   1  -6 -11    0.06    0.11
   1   6 -11    0.08    0.14
   1   6 -11    0.17    0.12
   0  -6 -11    1.53    0.32
   0   6 -11    1.52    0.28
   0   6 -11    1.59    0.24
  -1  -6 -11    2.80    0.46
  -1   6 -11    2.33    0.39
  -1   6 -11    3.19    0.37
  -2  -6 -11    0.24    0.20
  -2   6 -11    0.57    0.17
  -2   6 -11    0.65    0.22
  -3  -6 -11    1.35    0.36
  -3   6 -11    1.06    0.29
  -3   6 -11    1.23    0.24
  -4  -6 -11    9.86    1.03
  -4   6 -11    9.15    0.78
  -4   6 -11    8.08    0.83
  -5  -6 -11    5.96    0.87
  -5   6 -11    6.17    0.73
  -5   6 -11    8.08    0.67
  -6  -6 -11    2.14    0.51
  -6   6 -11    1.61    0.35
  -7  -6 -11    3.78    0.70
  -7   6 -11    4.26    0.58
  14   7 -11    0.84    0.21
  13   7 -11    0.52    0.17
  12   7 -11    1.75    0.28
  11   7 -11    2.50    0.32
  11   7 -11    1.95    0.27
  10   7 -11    5.01    0.47
  10   7 -11    5.32    0.49
   9   7 -11    4.73    0.47
   9   7 -11    5.46    0.49
   8   7 -11    7.92    0.70
   8   7 -11    9.18    0.71
   7   7 -11   16.81    1.23
   7   7 -11   16.25    1.26
   6  -7 -11    3.82    0.42
   6   7 -11    4.79    0.43
   6   7 -11    4.36    0.43
   5  -7 -11   10.03    0.97
   5   7 -11   12.69    0.91
   5   7 -11   12.60    0.95
   4  -7 -11    7.26    0.73
   4   7 -11    9.34    0.69
   4   7 -11    7.92    0.71
   3  -7 -11    1.12    0.23
   3   7 -11    1.03    0.23
   3   7 -11    1.14    0.22
   2  -7 -11    0.36    0.16
   2   7 -11    0.70    0.17
   2   7 -11    0.54    0.20
   1  -7 -11    0.14    0.14
   1   7 -11    0.25    0.13
   1   7 -11    0.24    0.15
   0  -7 -11    1.20    0.30
   0   7 -11    1.62    0.31
   0   7 -11    1.85    0.27
  -1  -7 -11    0.22    0.18
  -1   7 -11    0.01    0.09
  -1   7 -11    0.01    0.12
  -2  -7 -11    0.26    0.20
  -2   7 -11   -0.02    0.11
  -2   7 -11    0.00    0.13
  -3  -7 -11    1.48    0.40
  -3   7 -11    1.73    0.29
  -3   7 -11    1.50    0.32
  -4  -7 -11    0.13    0.23
  -4   7 -11    0.43    0.17
  -4   7 -11    0.02    0.17
  -5  -7 -11    0.67    0.32
  -5   7 -11    1.16    0.25
  -5   7 -11    0.83    0.27
  -6  -7 -11    0.88    0.37
  -6   7 -11    0.66    0.25
  13   8 -11    0.14    0.16
  12   8 -11    0.51    0.19
  11   8 -11    1.23    0.23
  11   8 -11    1.26    0.24
  10   8 -11    0.72    0.18
  10   8 -11    0.37    0.16
   9   8 -11    4.84    0.46
   9   8 -11    4.52    0.46
   8   8 -11    1.66    0.26
   8   8 -11    1.90    0.29
   7   8 -11    8.66    0.70
   7   8 -11    7.21    0.66
   6  -8 -11    0.21    0.12
   6   8 -11    0.17    0.13
   6   8 -11    0.46    0.17
   5  -8 -11    1.43    0.25
   5   8 -11    1.59    0.28
   5   8 -11    1.32    0.23
   4  -8 -11    0.46    0.17
   4   8 -11    0.69    0.21
   4   8 -11    1.07    0.19
   3  -8 -11    0.33    0.16
   3   8 -11    0.58    0.20
   3   8 -11    0.64    0.17
   2  -8 -11    4.14    0.57
   2   8 -11    5.31    0.58
   2   8 -11    5.32    0.48
   1  -8 -11    0.06    0.15
   1   8 -11    0.18    0.15
   1   8 -11    0.32    0.14
   0  -8 -11    0.10    0.17
   0   8 -11    0.14    0.16
   0   8 -11    0.31    0.14
  -1  -8 -11   -0.10    0.16
  -1   8 -11    0.03    0.13
  -1   8 -11   -0.12    0.08
  -2  -8 -11    0.20    0.20
  -2   8 -11    0.04    0.11
  -2   8 -11   -0.20    0.13
  -3  -8 -11    2.19    0.47
  -3   8 -11    2.28    0.33
  -3   8 -11    1.70    0.37
  -4  -8 -11    4.82    0.72
  -4   8 -11    4.22    0.57
  -4   8 -11    4.81    0.53
  -5  -8 -11    1.68    0.46
  -5   8 -11    1.30    0.34
  -5   8 -11    1.44    0.29
  12   9 -11    0.15    0.17
  11   9 -11    0.58    0.19
  11   9 -11    0.15    0.15
  10   9 -11    4.30    0.46
  10   9 -11    5.18    0.50
   9   9 -11    5.93    0.55
   9   9 -11    5.59    0.54
   8   9 -11    4.40    0.49
   8   9 -11    4.51    0.50
   7   9 -11    2.42    0.36
   7   9 -11    2.80    0.36
   6  -9 -11    1.89    0.30
   6   9 -11    1.79    0.28
   6   9 -11    2.30    0.33
   5  -9 -11   10.71    0.96
   5   9 -11   10.74    0.91
   5   9 -11   10.98    0.87
   4  -9 -11    0.08    0.13
   4   9 -11   -0.12    0.12
   4   9 -11    0.16    0.12
   3  -9 -11    4.04    0.54
   3   9 -11    5.24    0.48
   3   9 -11    4.66    0.55
   2  -9 -11   -0.13    0.13
   2   9 -11   -0.02    0.13
   2   9 -11    0.01    0.10
   1  -9 -11    0.26    0.19
   1   9 -11   -0.16    0.11
   1   9 -11    0.17    0.13
   0  -9 -11    1.25    0.33
   0   9 -11    1.59    0.31
   0   9 -11    1.64    0.27
  -1  -9 -11   -0.08    0.16
  -1   9 -11    0.07    0.12
  -1   9 -11    0.06    0.17
  -2  -9 -11    0.09    0.22
  -2   9 -11    0.03    0.16
  -2   9 -11    0.10    0.12
  -3  -9 -11   -0.06    0.21
  -3   9 -11   -0.20    0.09
  -3   9 -11   -0.28    0.11
  -4  -9 -11    0.42    0.29
  -4   9 -11    0.25    0.21
  -4   9 -11    0.48    0.18
  11  10 -11   -0.06    0.13
  11  10 -11   -0.14    0.12
  10  10 -11   -0.07    0.14
  10  10 -11    0.06    0.14
   9  10 -11    0.10    0.14
   9  10 -11   -0.01    0.13
   8  10 -11    0.90    0.23
   8  10 -11    1.44    0.26
   7  10 -11    0.25    0.16
   7  10 -11    0.70    0.19
   6 -10 -11    1.73    0.30
   6  10 -11    1.57    0.27
   6  10 -11    1.74    0.31
   5 -10 -11    5.20    0.58
   5  10 -11    6.23    0.59
   5  10 -11    5.77    0.54
   4 -10 -11    0.69    0.20
   4  10 -11    0.44    0.17
   4  10 -11    0.45    0.20
   3 -10 -11    0.57    0.21
   3  10 -11    0.84    0.22
   3  10 -11    0.48    0.20
   2 -10 -11    2.99    0.44
   2  10 -11    2.15    0.38
   2  10 -11    2.69    0.36
   1 -10 -11   -0.09    0.16
   1  10 -11   -0.16    0.09
   1  10 -11   -0.08    0.14
   0 -10 -11    1.58    0.37
   0  10 -11    1.43    0.33
   0  10 -11    1.60    0.28
  -1 -10 -11    0.74    0.28
  -1  10 -11    0.28    0.18
  -1  10 -11    0.71    0.19
  -2 -10 -11    0.29    0.25
  -2  10 -11    0.13    0.19
  -2  10 -11    0.45    0.17
  -3 -10 -11    0.50    0.30
  -3  10 -11    0.86    0.27
  -3  10 -11    0.47    0.18
   9  11 -11    7.72    0.69
   9  11 -11    7.04    0.68
   8  11 -11    0.51    0.20
   8  11 -11    0.32    0.19
   7  11 -11    3.35    0.44
   7  11 -11    3.10    0.40
   6 -11 -11    0.00    0.12
   6  11 -11    0.27    0.16
   6  11 -11   -0.06    0.14
   5 -11 -11    0.50    0.19
   5  11 -11    1.09    0.23
   5  11 -11    0.94    0.27
   4 -11 -11    0.01    0.13
   4  11 -11   -0.08    0.15
   4  11 -11   -0.10    0.12
   3 -11 -11    3.07    0.45
   3  11 -11    3.15    0.46
   3  11 -11    3.13    0.41
   2 -11 -11    1.37    0.32
   2  11 -11    1.54    0.34
   2  11 -11    1.74    0.29
   1 -11 -11   -0.02    0.15
   1  11 -11    0.26    0.19
   1  11 -11    0.18    0.15
   0 -11 -11    0.81    0.29
   0  11 -11    0.84    0.23
   0  11 -11    1.21    0.30
  -1 -11 -11    0.07    0.20
  -1  11 -11    0.04    0.15
  -1  11 -11    0.09    0.14
   6 -12 -11    0.03    0.14
   6  12 -11    0.06    0.15
   6  12 -11    0.01    0.15
   5 -12 -11    0.05    0.15
   5  12 -11   -0.07    0.11
   5  12 -11    0.22    0.19
   4 -12 -11    0.02    0.14
   4  12 -11   -0.10    0.16
   4  12 -11   -0.11    0.12
   3 -12 -11    0.95    0.26
  -3  12  11    1.00    0.23
   3  12 -11    1.23    0.26
   3  12 -11    1.06    0.29
   2 -12 -11    0.98    0.28
  -2  12  11    0.90    0.23
   2  12 -11    0.28    0.21
   2  12 -11    0.80    0.22
   1  12 -11    0.87    0.28
  13   0 -12    0.07    0.09
  12   0 -12   -0.02    0.07
  11   0 -12   -0.14    0.06
  10   0 -12    7.97    0.63
   9   0 -12   -0.09    0.12
   9   0 -12    0.03    0.08
   8   0 -12   11.71    0.92
   8   0 -12   10.92    0.85
   7   0 -12    0.07    0.10
   7   0 -12    0.02    0.08
   7   0 -12   -0.05    0.11
   6   0 -12    3.93    0.40
   6   0 -12    4.80    0.38
   6   0 -12    3.68    0.47
   5   0 -12    0.00    0.12
   5   0 -12   -0.13    0.08
   5   0 -12    0.05    0.04
   4   0 -12    2.82    0.40
   4   0 -12    2.90    0.33
   3   0 -12   -0.03    0.11
   3   0 -12   -0.07    0.09
   2   0 -12    4.92    0.46
   2   0 -12    4.50    0.55
   1   0 -12   -0.03    0.09
   1   0 -12   -0.10    0.13
   0   0 -12   25.05    1.94
  -1   0 -12   -0.47    0.11
  -2   0 -12    8.05    0.80
  -3   0 -12    0.03    0.17
  -4   0 -12   10.30    0.99
  -5   0 -12    0.07    0.19
  -6   0 -12    3.55    0.55
  -7   0 -12    0.08    0.19
  -8   0 -12    0.72    0.35
  14   1 -12    5.73    0.48
  13  -1 -12    0.09    0.09
  13   1 -12   -0.05    0.08
  12  -1 -12    0.18    0.09
  12   1 -12   -0.03    0.08
  11  -1 -12    2.97    0.29
  11   1 -12    2.85    0.31
  10  -1 -12    4.71    0.41
  10   1 -12    4.69    0.44
  10   1 -12    4.73    0.42
   9  -1 -12    0.88    0.17
   9   1 -12    1.03    0.18
   9   1 -12    1.52    0.24
   9   1 -12    1.46    0.24
   8  -1 -12   38.40    2.47
   8  -1 -12   30.46    2.33
   8   1 -12   35.99    2.64
   8   1 -12   35.95    2.44
   8   1 -12   30.07    2.33
   7  -1 -12    0.27    0.12
   7  -1 -12    0.35    0.16
   7   1 -12    0.28    0.15
   7   1 -12    0.14    0.11
   7   1 -12    0.21    0.11
   6  -1 -12   58.48    4.06
   6  -1 -12   59.54    4.22
   6   1 -12   63.43    4.53
   6   1 -12   57.19    4.05
   6   1 -12   59.60    4.20
   5  -1 -12    0.74    0.23
   5  -1 -12    1.01    0.19
   5   1 -12    1.12    0.23
   5   1 -12    0.74    0.16
   5   1 -12    0.90    0.13
   4  -1 -12   56.75    3.97
   4  -1 -12   58.18    3.81
   4   1 -12   56.50    3.95
   4   1 -12   54.40    4.19
   4   1 -12   53.42    3.79
   3  -1 -12   -0.04    0.09
   3  -1 -12    0.14    0.15
   3   1 -12   -0.03    0.11
   3   1 -12   -0.08    0.08
   2  -1 -12    0.05    0.11
   2  -1 -12    0.16    0.17
   2   1 -12    0.06    0.10
   2   1 -12    0.12    0.15
   1  -1 -12    2.97    0.43
   1   1 -12    3.05    0.37
   1   1 -12    3.02    0.43
   0  -1 -12    0.43    0.22
   0   1 -12    0.89    0.20
   0   1 -12    0.32    0.19
  -1  -1 -12   11.33    1.02
  -1   1 -12   11.14    1.01
  -2  -1 -12    0.69    0.26
  -2   1 -12    0.96    0.28
  -3  -1 -12    0.97    0.29
  -3   1 -12    0.58    0.26
  -4  -1 -12    2.85    0.47
  -4   1 -12    2.16    0.42
  -5  -1 -12    0.60    0.28
  -5   1 -12    0.82    0.29
  -6  -1 -12    3.70    0.59
  -6  -1 -12    3.95    0.60
  -6   1 -12    2.95    0.51
  -7  -1 -12    1.40    0.37
  -7  -1 -12    1.47    0.41
  -7   1 -12    0.54    0.26
  -8  -1 -12    5.47    0.77
  -8  -1 -12    7.38    0.94
  -8   1 -12    5.61    0.77
  15   2 -12    5.62    0.49
  14   2 -12   18.11    1.30
  13   2 -12    7.41    0.60
  12  -2 -12    0.09    0.09
  12   2 -12    0.10    0.09
  11  -2 -12    1.34    0.20
  11   2 -12    1.65    0.22
  11   2 -12    1.95    0.24
  10  -2 -12    0.04    0.09
  10   2 -12   -0.06    0.11
  10   2 -12   -0.02    0.13
  10   2 -12    0.14    0.09
   9  -2 -12    6.30    0.54
   9   2 -12    6.37    0.58
   9   2 -12    7.21    0.56
   9   2 -12    6.96    0.66
   8  -2 -12   10.48    0.82
   8   2 -12   11.61    0.94
   8   2 -12   10.41    0.86
   8   2 -12   10.52    0.82
   7  -2 -12    2.68    0.31
   7   2 -12    2.47    0.30
   7   2 -12    2.67    0.32
   7   2 -12    2.02    0.31
   6  -2 -12   -0.01    0.10
   6  -2 -12    0.05    0.16
   6   2 -12   -0.09    0.11
   6   2 -12    0.12    0.10
   6   2 -12    0.36    0.11
   5  -2 -12   12.33    0.97
   5  -2 -12   10.23    0.87
   5   2 -12   10.64    0.86
   5   2 -12   10.51    0.91
   5   2 -12   12.14    0.92
   4  -2 -12    0.48    0.10
   4  -2 -12    0.36    0.19
   4   2 -12    0.63    0.16
   4   2 -12    0.38    0.18
   4   2 -12    0.54    0.10
   3  -2 -12    0.04    0.07
   3  -2 -12   -0.05    0.14
   3   2 -12   -0.09    0.11
   3   2 -12   -0.03    0.08
   2  -2 -12    2.21    0.38
   2  -2 -12    2.43    0.30
   2   2 -12    2.87    0.33
   2   2 -12    1.85    0.32
   1  -2 -12    0.98    0.26
   1  -2 -12    0.75    0.19
   1   2 -12    0.47    0.20
   1   2 -12    1.02    0.20
   0  -2 -12    0.40    0.22
   0  -2 -12    0.44    0.16
   0   2 -12    0.18    0.17
   0   2 -12    0.59    0.17
  -1  -2 -12    0.22    0.14
  -1  -2 -12    0.07    0.18
  -1   2 -12    0.32    0.14
  -1   2 -12    0.13    0.16
  -2  -2 -12    0.06    0.14
  -2  -2 -12    0.31    0.22
  -2   2 -12    0.20    0.14
  -2   2 -12    0.34    0.19
  -3  -2 -12    5.24    0.73
  -3  -2 -12    6.53    0.72
  -3   2 -12    6.93    0.76
  -4  -2 -12    0.51    0.24
  -4  -2 -12    0.63    0.27
  -4   2 -12    0.33    0.21
  -5  -2 -12    0.64    0.28
  -5  -2 -12    0.52    0.25
  -5   2 -12    0.29    0.22
  -6  -2 -12    2.00    0.46
  -6  -2 -12    2.00    0.42
  -6   2 -12    2.89    0.48
  -7  -2 -12    0.77    0.33
  -7  -2 -12    0.38    0.26
  -7   2 -12    0.55    0.27
  16   3 -12    1.35    0.23
  15   3 -12    0.73    0.17
  14   3 -12    3.04    0.35
  13   3 -12    0.33    0.13
  12   3 -12    0.87    0.17
  11  -3 -12    5.96    0.51
  11   3 -12    6.83    0.55
  11   3 -12    6.37    0.53
  10  -3 -12    0.61    0.14
  10   3 -12    0.50    0.20
  10   3 -12    0.24    0.12
  10   3 -12    0.42    0.15
   9  -3 -12    3.09    0.34
   9   3 -12    3.45    0.38
   9   3 -12    3.86    0.46
   9   3 -12    3.13    0.35
   8  -3 -12   -0.08    0.09
   8   3 -12    0.10    0.12
   8   3 -12    0.12    0.11
   8   3 -12    0.25    0.16
   7   3 -12   22.72    1.75
   7   3 -12   21.06    1.53
   7   3 -12   20.62    1.59
   6   3 -12    2.98    0.36
   6   3 -12    3.97    0.43
   6   3 -12    4.03    0.41
   5  -3 -12   20.31    1.60
   5   3 -12   19.33    1.49
   5   3 -12   22.33    1.58
   5   3 -12   21.85    1.66
   4  -3 -12   11.61    1.03
   4  -3 -12   12.05    0.96
   4   3 -12   12.36    0.97
   4   3 -12   12.31    0.92
   4   3 -12   11.23    0.97
   3  -3 -12   13.59    1.17
   3  -3 -12   17.28    1.25
   3   3 -12   14.48    1.09
   3   3 -12   13.72    1.15
   3   3 -12   14.67    1.15
   2  -3 -12    5.99    0.64
   2  -3 -12    8.19    0.74
   2   3 -12    8.08    0.63
   2   3 -12    7.26    0.67
   1  -3 -12    6.60    0.63
   1  -3 -12    5.77    0.68
   1   3 -12    6.22    0.63
   1   3 -12    6.57    0.56
   0  -3 -12    0.02    0.12
   0  -3 -12   -0.06    0.15
   0   3 -12    0.05    0.10
   0   3 -12    0.09    0.14
  -1  -3 -12    1.13    0.31
  -1  -3 -12    1.77    0.33
  -1   3 -12    1.55    0.31
  -1   3 -12    1.97    0.29
  -2  -3 -12    0.40    0.23
  -2  -3 -12    0.24    0.16
  -2   3 -12    0.35    0.19
  -2   3 -12    0.50    0.18
  -3  -3 -12    2.88    0.48
  -3  -3 -12    2.88    0.47
  -3   3 -12    4.02    0.54
  -4  -3 -12    0.31    0.21
  -4  -3 -12    0.12    0.20
  -4   3 -12    0.33    0.21
  -5  -3 -12    4.14    0.65
  -5  -3 -12    4.53    0.63
  -5   3 -12    4.44    0.59
  -6  -3 -12    0.04    0.19
  -6  -3 -12   -0.13    0.17
  -6   3 -12    0.25    0.20
  -7  -3 -12    4.20    0.70
  -7  -3 -12    3.23    0.55
  -7   3 -12    3.63    0.57
  15   4 -12    3.22    0.37
  14   4 -12    4.59    0.44
  13   4 -12    0.25    0.12
  12   4 -12   -0.03    0.09
  11   4 -12    2.36    0.30
  11   4 -12    2.70    0.32
  10   4 -12    0.62    0.16
  10   4 -12    0.66    0.16
   9   4 -12    2.12    0.35
   9   4 -12    1.24    0.22
   9   4 -12    1.42    0.22
   8   4 -12    9.49    0.88
   8   4 -12    9.36    0.74
   8   4 -12    9.18    0.76
   7   4 -12   12.32    1.00
   7   4 -12   10.30    0.84
   7   4 -12   10.57    0.88
   6  -4 -12    2.37    0.22
   6   4 -12    1.93    0.27
   6   4 -12    2.33    0.32
   6   4 -12    2.56    0.34
   5  -4 -12    1.66    0.21
   5   4 -12    2.19    0.29
   5   4 -12    1.79    0.29
   5   4 -12    1.67    0.25
   4  -4 -12    0.05    0.09
   4   4 -12    0.20    0.12
   4   4 -12    0.01    0.11
   4   4 -12    0.07    0.08
   3  -4 -12    0.00    0.09
   3   4 -12   -0.04    0.12
   3   4 -12    0.14    0.10
   3   4 -12    0.03    0.07
   2  -4 -12   -0.02    0.10
   2   4 -12    0.11    0.07
   2   4 -12    0.01    0.09
   2   4 -12    0.12    0.14
   1  -4 -12    2.11    0.34
   1   4 -12    2.41    0.30
   1   4 -12    2.80    0.38
   0  -4 -12    0.17    0.14
   0   4 -12    0.16    0.11
   0   4 -12    0.23    0.15
  -1  -4 -12    1.96    0.37
  -1   4 -12    2.44    0.33
  -1   4 -12    2.33    0.37
  -2  -4 -12    0.25    0.18
  -2   4 -12    0.20    0.18
  -2   4 -12    0.06    0.12
  -3  -4 -12    0.21    0.20
  -3   4 -12    0.39    0.15
  -3   4 -12    0.31    0.19
  -4  -4 -12    1.40    0.37
  -4   4 -12    2.12    0.37
  -5  -4 -12    0.18    0.22
  -5   4 -12    0.36    0.22
  -6  -4 -12    0.51    0.30
  -6   4 -12    0.38    0.23
  -7  -4 -12    0.01    0.25
  -7   4 -12    0.23    0.21
  15   5 -12   -0.19    0.10
  14   5 -12    1.39    0.24
  13   5 -12    3.35    0.39
  12   5 -12    2.00    0.28
  11   5 -12    3.20    0.37
  11   5 -12    3.35    0.37
  10   5 -12    0.72    0.17
  10   5 -12    0.45    0.15
   9   5 -12    0.12    0.12
   9   5 -12    0.22    0.11
   8   5 -12    4.48    0.58
   8   5 -12    4.15    0.43
   8   5 -12    4.62    0.42
   7   5 -12   32.83    2.53
   7   5 -12   29.62    2.25
   7   5 -12   31.28    2.18
   6  -5 -12    3.90    0.40
   6   5 -12    4.81    0.52
   6   5 -12    4.88    0.47
   6   5 -12    5.27    0.44
   5  -5 -12    8.31    0.78
   5   5 -12   10.56    0.77
   5   5 -12   10.70    0.82
   5   5 -12    9.24    0.85
   4  -5 -12    0.06    0.09
   4   5 -12    0.22    0.12
   4   5 -12    0.00    0.11
   4   5 -12    0.19    0.11
   3  -5 -12   13.71    1.21
   3   5 -12   15.05    1.20
   3   5 -12   14.61    1.17
   3   5 -12   14.96    1.10
   2  -5 -12    0.19    0.14
   2   5 -12    0.33    0.13
   2   5 -12    0.30    0.16
   2   5 -12    0.42    0.12
   1  -5 -12   18.67    1.77
   1   5 -12   23.65    1.68
   1   5 -12   23.03    1.58
   0  -5 -12    0.37    0.19
   0   5 -12    0.36    0.14
   0   5 -12    0.48    0.19
  -1  -5 -12    2.27    0.40
  -1   5 -12    2.58    0.34
  -1   5 -12    2.33    0.39
  -2  -5 -12    0.39    0.21
  -2   5 -12    0.59    0.16
  -2   5 -12    0.61    0.22
  -3  -5 -12    3.85    0.62
  -3   5 -12    4.45    0.58
  -3   5 -12    4.73    0.52
  -4  -5 -12    0.21    0.22
  -4   5 -12    0.06    0.13
  -4   5 -12    0.06    0.15
  -5  -5 -12    7.45    0.96
  -5   5 -12    7.89    0.80
  -6  -5 -12    0.10    0.24
  -6   5 -12   -0.22    0.15
  14   6 -12    2.60    0.35
  13   6 -12    2.33    0.33
  12   6 -12    0.14    0.13
  11   6 -12    0.26    0.14
  11   6 -12    0.21    0.14
  10   6 -12    0.11    0.11
  10   6 -12   -0.11    0.10
   9   6 -12    0.96    0.20
   9   6 -12    0.87    0.20
   8   6 -12   -0.08    0.10
   8   6 -12    0.16    0.11
   7   6 -12    0.34    0.13
   7   6 -12    0.35    0.15
   6  -6 -12    0.73    0.15
   6   6 -12    0.70    0.19
   6   6 -12    0.89    0.19
   5  -6 -12    2.00    0.26
   5   6 -12    1.87    0.30
   5   6 -12    1.77    0.27
   4  -6 -12    0.06    0.10
   4   6 -12    0.18    0.14
   4   6 -12   -0.05    0.09
   3  -6 -12    0.11    0.12
   3   6 -12    0.27    0.16
   3   6 -12    0.11    0.11
   2  -6 -12    4.85    0.53
   2   6 -12    5.30    0.47
   2   6 -12    3.87    0.51
   1  -6 -12    0.03    0.13
   1   6 -12    0.02    0.13
   1   6 -12    0.36    0.14
   0  -6 -12    0.02    0.14
   0   6 -12   -0.08    0.13
   0   6 -12    0.06    0.10
  -1  -6 -12    1.09    0.31
  -1   6 -12    1.37    0.24
  -1   6 -12    1.29    0.29
  -2  -6 -12    0.20    0.17
  -2   6 -12    0.11    0.12
  -2   6 -12   -0.05    0.12
  -3  -6 -12    0.84    0.30
  -3   6 -12    0.68    0.24
  -3   6 -12    1.07    0.23
  -4  -6 -12    0.23    0.24
  -4   6 -12    0.46    0.21
  -4   6 -12    0.85    0.22
  -5  -6 -12    0.16    0.25
  -5   6 -12    0.11    0.18
  -6  -6 -12   -0.18    0.18
  -6   6 -12   -0.15    0.14
  14   7 -12    0.23    0.16
  13   7 -12    6.44    0.59
  12   7 -12    0.33    0.16
  11   7 -12    0.15    0.14
  11   7 -12    0.40    0.16
  10   7 -12    0.24    0.14
  10   7 -12    0.05    0.12
   9   7 -12    0.13    0.14
   9   7 -12    0.21    0.13
   8   7 -12    3.44    0.40
   8   7 -12    3.59    0.42
   7   7 -12   -0.13    0.11
   7   7 -12    0.06    0.10
   6  -7 -12    4.05    0.44
   6   7 -12    5.24    0.46
   6   7 -12    5.20    0.50
   5  -7 -12    2.72    0.34
   5   7 -12    2.26    0.31
   5   7 -12    3.37    0.41
   4  -7 -12   14.37    1.23
   4   7 -12   14.06    1.17
   4   7 -12   15.29    1.13
   3  -7 -12    6.16    0.68
   3   7 -12    8.31    0.64
   3   7 -12    7.28    0.68
   2  -7 -12    3.74    0.52
   2   7 -12    5.31    0.47
   2   7 -12    4.86    0.56
   1  -7 -12    0.68    0.22
   1   7 -12    0.74    0.19
   1   7 -12    0.65    0.22
   0  -7 -12    1.31    0.31
   0   7 -12    1.16    0.22
   0   7 -12    1.09    0.27
  -1  -7 -12    0.24    0.20
  -1   7 -12    0.75    0.19
  -1   7 -12    0.71    0.23
  -2  -7 -12   -0.16    0.15
  -2   7 -12    0.09    0.16
  -2   7 -12    0.09    0.12
  -3  -7 -12    0.00    0.18
  -3   7 -12   -0.32    0.12
  -3   7 -12    0.08    0.12
  -4  -7 -12    0.81    0.33
  -4   7 -12    0.97    0.24
  -4   7 -12    0.65    0.26
  -5  -7 -12    2.77    0.56
  -5   7 -12    2.71    0.40
  -5   7 -12    2.84    0.47
  13   8 -12    1.04    0.24
  12   8 -12   -0.05    0.12
  11   8 -12   -0.01    0.12
  11   8 -12   -0.22    0.10
  10   8 -12    0.20    0.14
  10   8 -12    0.37    0.15
   9   8 -12    2.43    0.34
   9   8 -12    2.61    0.34
   8   8 -12    0.01    0.11
   8   8 -12   -0.03    0.11
   7   8 -12    0.85    0.20
   7   8 -12    0.63    0.18
   6  -8 -12    0.06    0.10
   6   8 -12   -0.04    0.09
   6   8 -12    0.15    0.13
   5  -8 -12    0.16    0.12
   5   8 -12    0.42    0.17
   5   8 -12    0.47    0.17
   4  -8 -12    0.58    0.18
   4   8 -12    0.58    0.17
   4   8 -12    0.30    0.17
   3  -8 -12    0.03    0.13
   3   8 -12   -0.01    0.15
   3   8 -12   -0.03    0.11
   2  -8 -12    0.19    0.16
   2   8 -12    0.10    0.13
   2   8 -12    0.15    0.16
   1  -8 -12    1.07    0.28
   1   8 -12    0.80    0.19
   1   8 -12    1.15    0.27
   0  -8 -12    0.23    0.18
   0   8 -12    0.19    0.18
   0   8 -12   -0.06    0.10
  -1  -8 -12    0.31    0.22
  -1   8 -12    0.46    0.17
  -1   8 -12    0.29    0.19
  -2  -8 -12   -0.15    0.16
  -2   8 -12    0.08    0.17
  -2   8 -12    0.03    0.11
  -3  -8 -12    1.00    0.36
  -3   8 -12    1.19    0.30
  -3   8 -12    0.96    0.24
  -4  -8 -12    0.10    0.22
  -4   8 -12    0.40    0.23
  -4   8 -12    0.03    0.14
  12   9 -12    1.53    0.29
  11   9 -12   -0.19    0.11
  11   9 -12    0.05    0.15
  10   9 -12    0.35    0.17
  10   9 -12    0.52    0.19
   9   9 -12    0.00    0.13
   9   9 -12    0.06    0.12
   8   9 -12    0.23    0.15
   8   9 -12    0.02    0.13
   7   9 -12    2.46    0.34
   7   9 -12    2.84    0.38
   6  -9 -12    8.42    0.86
   6   9 -12   11.16    0.83
   6   9 -12   10.20    0.85
   5  -9 -12    0.06    0.12
   5   9 -12    0.18    0.14
   5   9 -12    0.14    0.16
   4  -9 -12    8.89    0.86
   4   9 -12    9.35    0.78
   4   9 -12    9.55    0.83
   3  -9 -12    0.93    0.24
   3   9 -12    0.71    0.23
   3   9 -12    1.12    0.24
   2  -9 -12    4.53    0.57
   2   9 -12    3.64    0.51
   2   9 -12    4.77    0.51
   1  -9 -12   -0.07    0.13
   1   9 -12   -0.14    0.09
   1   9 -12    0.01    0.16
   0  -9 -12    0.27    0.20
   0   9 -12    0.15    0.12
   0   9 -12    0.25    0.20
  -1  -9 -12    0.18    0.20
  -1   9 -12    0.48    0.17
  -1   9 -12    0.56    0.23
  -2  -9 -12   -0.16    0.17
  -2   9 -12   -0.06    0.11
  -2   9 -12   -0.04    0.15
  -3  -9 -12    0.25    0.24
  -3   9 -12    0.18    0.20
  -3   9 -12   -0.15    0.11
  10  10 -12    0.41    0.18
  10  10 -12    0.26    0.16
   9  10 -12   -0.02    0.14
   9  10 -12    0.41    0.17
   8  10 -12    0.52    0.20
   8  10 -12    0.53    0.18
   7  10 -12    0.28    0.18
   7  10 -12    0.22    0.15
   6 -10 -12    0.34    0.16
   6  10 -12    0.19    0.15
   6  10 -12    0.08    0.15
   5 -10 -12    0.88    0.22
   5  10 -12    0.72    0.19
   5  10 -12    0.86    0.24
   4 -10 -12    1.80    0.32
   4  10 -12    1.43    0.27
   4  10 -12    2.02    0.35
   3 -10 -12    3.61    0.48
   3  10 -12    3.30    0.43
   3  10 -12    3.05    0.46
   2 -10 -12    0.20    0.18
   2  10 -12   -0.03    0.15
   2  10 -12    0.93    0.22
   1 -10 -12    0.15    0.18
   1  10 -12    0.00    0.12
   1  10 -12   -0.05    0.14
   0 -10 -12    2.10    0.45
   0  10 -12    2.73    0.38
   0  10 -12    2.66    0.45
  -1 -10 -12    1.12    0.34
  -1  10 -12    1.55    0.29
  -1  10 -12    1.61    0.34
  -2 -10 -12    0.67    0.31
  -2  10 -12    0.62    0.26
  -2  10 -12    0.55    0.19
   8  11 -12    1.45    0.30
   8  11 -12    0.88    0.24
   7  11 -12    0.21    0.16
   7  11 -12    0.22    0.18
   6 -11 -12    0.14    0.15
   6  11 -12    0.10    0.14
   6  11 -12    0.36    0.19
   5 -11 -12   -0.24    0.12
   5  11 -12    0.07    0.17
   5  11 -12   -0.11    0.12
   4 -11 -12    6.59    0.74
   4  11 -12    8.56    0.76
   4  11 -12    7.57    0.69
   3 -11 -12    0.25    0.18
   3  11 -12    0.01    0.18
   3  11 -12   -0.14    0.12
   2 -11 -12    1.18    0.30
   2  11 -12    0.81    0.27
   2  11 -12    1.20    0.25
   1 -11 -12    2.71    0.48
   1  11 -12    3.20    0.43
   1  11 -12    3.88    0.53
   0 -11 -12   -0.01    0.18
   0  11 -12    0.01    0.16
   0  11 -12   -0.06    0.12
  13   0 -13   17.45    1.25
  12   0 -13   -0.07    0.08
  11   0 -13    0.68    0.15
  10   0 -13    0.06    0.09
  10   0 -13   -0.06    0.14
   9   0 -13    1.85    0.29
   9   0 -13    1.40    0.22
   8   0 -13    0.13    0.15
   8   0 -13    0.10    0.10
   7   0 -13   30.82    2.11
   7   0 -13   30.13    2.21
   7   0 -13   29.28    2.29
   6   0 -13   -0.18    0.11
   6   0 -13   -0.16    0.08
   5   0 -13   21.72    1.62
   5   0 -13   21.13    1.55
   5   0 -13   20.50    1.64
   4   0 -13    0.05    0.15
   4   0 -13    0.07    0.11
   3   0 -13   46.12    3.16
   3   0 -13   44.91    3.30
   2   0 -13   -0.16    0.17
   2   0 -13    0.17    0.14
   1   0 -13    5.88    0.54
   1   0 -13    4.92    0.63
   0   0 -13   -0.29    0.14
  -1   0 -13    3.39    0.50
  -2   0 -13    0.24    0.19
  -3   0 -13    3.30    0.51
  -4   0 -13   -0.18    0.15
  -5   0 -13    1.39    0.37
  -6   0 -13    0.13    0.20
  -7   0 -13    0.92    0.34
  14   1 -13    0.22    0.12
  13  -1 -13    0.52    0.14
  13   1 -13    0.49    0.14
  12  -1 -13    1.38    0.21
  12   1 -13    1.49    0.22
  11  -1 -13    0.18    0.10
  11   1 -13   -0.09    0.08
  11   1 -13    0.17    0.13
  10  -1 -13    2.36    0.27
  10   1 -13    1.83    0.25
  10   1 -13    2.04    0.30
   9  -1 -13    0.33    0.12
   9   1 -13    0.30    0.12
   9   1 -13    0.57    0.18
   9   1 -13    0.29    0.14
   8  -1 -13    0.36    0.14
   8  -1 -13    0.39    0.18
   8   1 -13    0.63    0.19
   8   1 -13    0.36    0.13
   8   1 -13    0.46    0.14
   7  -1 -13    0.22    0.13
   7  -1 -13    0.54    0.21
   7   1 -13    0.32    0.12
   7   1 -13    0.20    0.16
   7   1 -13    0.47    0.14
   6  -1 -13    0.38    0.19
   6  -1 -13   -0.05    0.12
   6   1 -13    0.52    0.15
   6   1 -13    0.44    0.18
   6   1 -13    0.17    0.09
   5  -1 -13    7.40    0.60
   5  -1 -13    6.24    0.70
   5   1 -13    6.23    0.57
   5   1 -13    6.86    0.55
   5   1 -13    5.72    0.63
   4  -1 -13    0.01    0.12
   4  -1 -13    0.29    0.18
   4   1 -13   -0.09    0.10
   4   1 -13    0.07    0.15
   4   1 -13    0.06    0.05
   3  -1 -13    0.56    0.19
   3  -1 -13    0.46    0.25
   3   1 -13    0.69    0.24
   3   1 -13    0.95    0.20
   2  -1 -13    8.74    0.76
   2   1 -13    6.81    0.62
   2   1 -13    6.43    0.69
   1  -1 -13   -0.08    0.15
   1   1 -13    0.04    0.15
   1   1 -13    0.02    0.11
   0  -1 -13    8.06    0.81
   0   1 -13    8.62    0.73
   0   1 -13    7.79    0.80
  -1  -1 -13    0.12    0.18
  -1   1 -13    0.10    0.16
  -2  -1 -13    1.37    0.32
  -2   1 -13    1.06    0.30
  -3  -1 -13    0.21    0.21
  -3   1 -13    0.70    0.25
  -4  -1 -13   -0.06    0.17
  -4   1 -13   -0.14    0.14
  -5  -1 -13   -0.36    0.12
  -5   1 -13    0.25    0.22
  -6  -1 -13    0.17    0.24
  -6  -1 -13   -0.01    0.19
  -6   1 -13    0.18    0.21
  -7  -1 -13    3.13    0.56
  -7  -1 -13    3.26    0.61
  -7   1 -13    2.66    0.50
  15   2 -13    5.21    0.46
  14   2 -13   12.27    0.93
  13   2 -13    0.29    0.12
  12  -2 -13    0.81    0.16
  12   2 -13    0.82    0.17
  11  -2 -13    1.14    0.19
  11   2 -13    1.26    0.20
  11   2 -13    1.19    0.21
  10  -2 -13    5.34    0.50
  10   2 -13    7.28    0.63
  10   2 -13    6.17    0.55
  10   2 -13    5.49    0.51
   9  -2 -13    0.29    0.12
   9   2 -13    0.18    0.15
   9   2 -13    0.16    0.11
   9   2 -13    0.00    0.12
   8  -2 -13    8.14    0.69
   8   2 -13    9.55    0.78
   8   2 -13    8.02    0.68
   8   2 -13    8.48    0.73
   7  -2 -13   20.49    1.56
   7  -2 -13   19.44    1.45
   7   2 -13   18.88    1.44
   7   2 -13   20.98    1.61
   7   2 -13   20.27    1.52
   6  -2 -13   10.78    0.90
   6  -2 -13   10.39    0.81
   6   2 -13   10.00    0.85
   6   2 -13    9.18    0.78
   6   2 -13    9.99    0.85
   5  -2 -13   24.04    1.94
   5  -2 -13   24.18    1.84
   5   2 -13   24.81    1.82
   5   2 -13   27.46    1.93
   5   2 -13   27.04    1.99
   4  -2 -13    2.82    0.29
   4  -2 -13    3.97    0.49
   4   2 -13    2.44    0.39
   4   2 -13    2.98    0.28
   4   2 -13    2.50    0.33
   3  -2 -13   14.23    1.22
   3  -2 -13   16.77    1.29
   3   2 -13   14.96    1.23
   3   2 -13   15.59    1.15
   2  -2 -13    1.28    0.32
   2  -2 -13    1.16    0.22
   2   2 -13    1.85    0.33
   2   2 -13    1.46    0.24
   1  -2 -13    3.34    0.42
   1  -2 -13    4.01    0.55
   1   2 -13    3.90    0.50
   1   2 -13    3.02    0.39
   0  -2 -13    3.81    0.54
   0  -2 -13    3.16    0.46
   0   2 -13    3.79    0.45
   0   2 -13    3.74    0.51
  -1  -2 -13    0.14    0.14
  -1  -2 -13   -0.07    0.16
  -1   2 -13    0.20    0.18
  -1   2 -13    0.04    0.12
  -2  -2 -13    0.79    0.30
  -2  -2 -13    0.98    0.26
  -2   2 -13    0.88    0.27
  -3  -2 -13    0.33    0.23
  -3  -2 -13    0.31    0.19
  -3   2 -13    0.83    0.28
  -4  -2 -13    1.00    0.30
  -4  -2 -13    1.38    0.35
  -4   2 -13    0.99    0.29
  -5  -2 -13    0.18    0.19
  -5  -2 -13   -0.04    0.19
  -5   2 -13    0.16    0.19
  -6  -2 -13    0.09    0.20
  -6  -2 -13    0.06    0.22
  -6   2 -13    0.01    0.19
  15   3 -13    1.17    0.22
  14   3 -13    0.04    0.11
  13   3 -13    2.89    0.33
  12   3 -13    7.79    0.64
  11  -3 -13    6.79    0.55
  11   3 -13    5.94    0.55
  11   3 -13    7.10    0.58
  10  -3 -13    1.66    0.24
  10   3 -13    1.92    0.33
  10   3 -13    1.76    0.27
  10   3 -13    1.62    0.24
   9  -3 -13    0.28    0.13
   9   3 -13    0.21    0.16
   9   3 -13    0.17    0.13
   9   3 -13    0.09    0.10
   8   3 -13    2.00    0.30
   8   3 -13    2.44    0.35
   8   3 -13    2.27    0.29
   7   3 -13   11.32    0.93
   7   3 -13   10.33    0.87
   7   3 -13   12.54    1.00
   6   3 -13    0.41    0.16
   6   3 -13    0.36    0.14
   6   3 -13    0.48    0.16
   5  -3 -13    7.92    0.66
   5   3 -13    8.51    0.72
   5   3 -13    7.82    0.73
   5   3 -13    8.97    0.69
   4  -3 -13    4.42    0.57
   4  -3 -13    3.57    0.37
   4   3 -13    4.00    0.37
   4   3 -13    3.56    0.40
   4   3 -13    4.29    0.49
   3  -3 -13    4.70    0.53
   3  -3 -13    5.89    0.70
   3   3 -13    6.07    0.53
   3   3 -13    5.81    0.63
   3   3 -13    6.07    0.50
   2  -3 -13    0.10    0.10
   2  -3 -13   -0.02    0.16
   2   3 -13   -0.03    0.13
   2   3 -13   -0.06    0.09
   1  -3 -13    1.05    0.25
   1  -3 -13    1.27    0.31
   1   3 -13    1.75    0.28
   1   3 -13    1.36    0.29
   0  -3 -13    3.93    0.51
   0  -3 -13    5.05    0.63
   0   3 -13    3.65    0.50
   0   3 -13    4.10    0.45
  -1  -3 -13    3.03    0.51
  -1  -3 -13    2.95    0.46
  -1   3 -13    3.36    0.41
  -1   3 -13    3.74    0.51
  -2  -3 -13    1.21    0.30
  -2  -3 -13    1.86    0.38
  -2   3 -13    1.06    0.24
  -2   3 -13    1.11    0.30
  -3  -3 -13   -0.09    0.14
  -3  -3 -13   -0.10    0.16
  -3   3 -13   -0.19    0.10
  -4  -3 -13   -0.02    0.17
  -4  -3 -13    0.15    0.20
  -4   3 -13    0.17    0.20
  -5  -3 -13   -0.09    0.18
  -5  -3 -13   -0.22    0.16
  -5   3 -13    0.33    0.23
  -6  -3 -13    2.98    0.57
  -6  -3 -13    2.67    0.51
  -6   3 -13    2.33    0.46
  15   4 -13    1.27    0.23
  14   4 -13    8.02    0.67
  13   4 -13    1.03    0.21
  12   4 -13    6.04    0.53
  11   4 -13    3.91    0.40
  11   4 -13    4.12    0.40
  10   4 -13    2.02    0.27
  10   4 -13    1.64    0.26
   9   4 -13    2.44    0.38
   9   4 -13    1.76    0.28
   9   4 -13    1.63    0.26
   8   4 -13    0.29    0.18
   8   4 -13    0.21    0.12
   8   4 -13    0.19    0.14
   7   4 -13    2.53    0.34
   7   4 -13    2.28    0.30
   7   4 -13    3.04    0.40
   6  -4 -13    1.96    0.20
   6   4 -13    2.08    0.29
   6   4 -13    2.51    0.34
   6   4 -13    2.17    0.32
   5  -4 -13    0.03    0.07
   5   4 -13   -0.24    0.09
   5   4 -13    0.10    0.11
   5   4 -13   -0.03    0.10
   4  -4 -13    5.76    0.55
   4   4 -13    6.90    0.57
   4   4 -13    5.69    0.59
   4   4 -13    6.14    0.55
   3  -4 -13    0.22    0.12
   3   4 -13    0.22    0.12
   3   4 -13    0.15    0.14
   3   4 -13    0.20    0.09
   2  -4 -13   17.71    1.64
   2   4 -13   21.37    1.58
   2   4 -13   22.05    1.50
   2   4 -13   20.16    1.59
   1  -4 -13    1.61    0.30
   1   4 -13    1.91    0.34
   1   4 -13    1.48    0.26
   0  -4 -13    5.49    0.61
   0   4 -13    5.57    0.53
   0   4 -13    5.08    0.61
  -1  -4 -13    0.34    0.17
  -1   4 -13    0.20    0.13
  -1   4 -13   -0.04    0.15
  -2  -4 -13    1.02    0.29
  -2   4 -13    1.12    0.29
  -2   4 -13    1.10    0.24
  -3  -4 -13    0.05    0.18
  -3   4 -13    0.05    0.15
  -3   4 -13   -0.06    0.11
  -4  -4 -13    1.45    0.39
  -4   4 -13    1.87    0.37
  -5  -4 -13   -0.13    0.19
  -5   4 -13    0.10    0.18
  -6  -4 -13    1.10    0.40
  -6   4 -13    1.24    0.33
  15   5 -13    0.63    0.19
  14   5 -13    1.07    0.21
  13   5 -13    0.17    0.13
  12   5 -13    0.08    0.12
  11   5 -13    0.30    0.15
  11   5 -13    0.18    0.13
  10   5 -13    1.50    0.25
  10   5 -13    1.94    0.28
   9   5 -13    0.12    0.12
   9   5 -13    0.28    0.14
   8   5 -13    0.06    0.10
   8   5 -13    0.05    0.11
   7   5 -13    1.17    0.27
   7   5 -13    1.01    0.21
   7   5 -13    1.02    0.22
   6  -5 -13   -0.05    0.06
   6   5 -13   -0.14    0.10
   6   5 -13    0.01    0.14
   6   5 -13   -0.04    0.09
   5  -5 -13    0.52    0.13
   5   5 -13    0.61    0.18
   5   5 -13    0.72    0.21
   5   5 -13    0.56    0.17
   4  -5 -13    3.62    0.39
   4   5 -13    3.74    0.47
   4   5 -13    3.81    0.40
   4   5 -13    3.41    0.40
   3  -5 -13    0.51    0.16
   3   5 -13    0.29    0.18
   3   5 -13    0.47    0.17
   3   5 -13    0.61    0.15
   2  -5 -13    4.40    0.53
   2   5 -13    5.89    0.51
   2   5 -13    5.50    0.61
   1  -5 -13    0.38    0.19
   1   5 -13    0.60    0.18
   1   5 -13    0.75    0.22
   0  -5 -13    0.14    0.16
   0   5 -13    0.17    0.17
   0   5 -13   -0.06    0.09
  -1  -5 -13    1.27    0.30
  -1   5 -13    0.41    0.20
  -1   5 -13    0.69    0.20
  -2  -5 -13    0.58    0.24
  -2   5 -13    0.44    0.17
  -2   5 -13    0.49    0.22
  -3  -5 -13    0.27    0.21
  -3   5 -13    0.26    0.20
  -3   5 -13    0.19    0.15
  -4  -5 -13    5.42    0.71
  -4   5 -13    3.52    0.55
  -5  -5 -13    0.12    0.23
  -5   5 -13    0.17    0.19
  14   6 -13    3.49    0.42
  13   6 -13    0.08    0.14
  12   6 -13   10.07    0.82
  11   6 -13    1.41    0.25
  11   6 -13    1.47    0.26
  10   6 -13    0.12    0.12
  10   6 -13    0.18    0.14
   9   6 -13   -0.11    0.08
   9   6 -13    0.17    0.13
   8   6 -13    0.96    0.20
   8   6 -13    0.74    0.21
   7   6 -13    2.45    0.35
   7   6 -13    2.72    0.34
   6  -6 -13    1.62    0.22
   6   6 -13    1.39    0.27
   6   6 -13    1.38    0.24
   5  -6 -13    8.65    0.72
   5   6 -13    7.31    0.68
   5   6 -13    8.41    0.74
   4  -6 -13    1.72    0.27
   4   6 -13    1.83    0.29
   4   6 -13    2.66    0.37
   3  -6 -13    5.40    0.57
   3   6 -13    5.62    0.58
   3   6 -13    6.05    0.54
   2  -6 -13    2.43    0.38
   2   6 -13    2.66    0.35
   2   6 -13    2.99    0.42
   1  -6 -13    0.46    0.21
   1   6 -13    1.05    0.28
   1   6 -13    1.52    0.25
   0  -6 -13    4.00    0.59
   0   6 -13    6.08    0.66
   0   6 -13    5.63    0.52
  -1  -6 -13   -0.16    0.12
  -1   6 -13   -0.11    0.10
  -1   6 -13   -0.12    0.12
  -2  -6 -13    3.16    0.52
  -2   6 -13    2.36    0.41
  -2   6 -13    2.65    0.38
  -3  -6 -13    0.01    0.19
  -3   6 -13   -0.05    0.12
  -3   6 -13   -0.08    0.15
  -4  -6 -13    0.04    0.21
  -4   6 -13    0.10    0.15
  -4   6 -13    0.27    0.21
  -5  -6 -13   -0.04    0.21
  -5   6 -13   -0.10    0.16
  13   7 -13    0.25    0.17
  12   7 -13    2.12    0.32
  11   7 -13    0.38    0.16
  11   7 -13    0.08    0.13
  10   7 -13    1.01    0.22
  10   7 -13    0.78    0.20
   9   7 -13    0.02    0.13
   9   7 -13    0.01    0.10
   8   7 -13    0.18    0.15
   8   7 -13    0.34    0.15
   7   7 -13   -0.07    0.11
   7   7 -13    0.05    0.12
   6  -7 -13    0.22    0.12
   6   7 -13    0.14    0.12
   6   7 -13    0.19    0.16
   5  -7 -13    1.10    0.21
   5   7 -13    1.52    0.28
   5   7 -13    1.41    0.25
   4  -7 -13    1.32    0.24
   4   7 -13    1.19    0.24
   4   7 -13    1.08    0.25
   3  -7 -13    1.62    0.31
   3   7 -13    3.21    0.42
   3   7 -13    2.82    0.35
   2  -7 -13   10.57    1.05
   2   7 -13   12.26    0.94
   2   7 -13   12.40    1.02
   1  -7 -13    2.12    0.39
   1   7 -13    2.45    0.33
   1   7 -13    2.65    0.42
   0  -7 -13    4.29    0.62
   0   7 -13    5.73    0.52
   0   7 -13    5.09    0.63
  -1  -7 -13    2.10    0.44
  -1   7 -13    3.01    0.39
  -1   7 -13    2.72    0.46
  -2  -7 -13    1.45    0.36
  -2   7 -13    1.21    0.25
  -2   7 -13    1.32    0.31
  -3  -7 -13    0.07    0.19
  -3   7 -13   -0.02    0.13
  -3   7 -13    0.10    0.17
  -4  -7 -13    0.69    0.32
  -4   7 -13    0.32    0.22
  -4   7 -13    0.72    0.22
  12   8 -13    2.32    0.35
  11   8 -13    7.28    0.65
  11   8 -13    6.92    0.67
  10   8 -13    0.02    0.12
  10   8 -13    0.12    0.13
   9   8 -13   -0.17    0.11
   9   8 -13    0.03    0.11
   8   8 -13   -0.01    0.10
   8   8 -13   -0.09    0.12
   7   8 -13    0.55    0.18
   7   8 -13    0.05    0.15
   6  -8 -13   -0.04    0.10
   6   8 -13    0.00    0.14
   6   8 -13    0.00    0.11
   5  -8 -13    4.97    0.54
   5   8 -13    6.45    0.60
   5   8 -13    5.90    0.55
   4  -8 -13   -0.05    0.11
   4   8 -13    0.35    0.18
   4   8 -13    0.24    0.14
   3  -8 -13    4.75    0.55
   3   8 -13    5.47    0.51
   3   8 -13    4.80    0.58
   2  -8 -13    1.67    0.32
   2   8 -13    1.40    0.32
   2   8 -13    1.45    0.26
   1  -8 -13    4.98    0.67
   1   8 -13    6.77    0.58
   1   8 -13    5.69    0.66
   0  -8 -13    0.45    0.22
   0   8 -13    0.01    0.16
   0   8 -13    0.25    0.14
  -1  -8 -13    0.32    0.22
  -1   8 -13    1.01    0.29
  -1   8 -13    0.60    0.19
  -2  -8 -13    0.09    0.18
  -2   8 -13   -0.15    0.11
  -2   8 -13   -0.34    0.13
  -3  -8 -13    0.30    0.25
  -3   8 -13    0.23    0.17
  -3   8 -13    0.07    0.18
  11   9 -13    0.41    0.18
  10   9 -13   -0.07    0.12
  10   9 -13   -0.08    0.14
   9   9 -13    0.02    0.14
   9   9 -13    0.19    0.14
   8   9 -13    0.01    0.14
   8   9 -13    0.14    0.13
   7   9 -13    0.02    0.14
   7   9 -13    0.17    0.13
   6  -9 -13    0.05    0.11
   6   9 -13    0.14    0.13
   6   9 -13    0.18    0.15
   5  -9 -13    0.59    0.18
   5   9 -13    1.19    0.27
   5   9 -13    0.54    0.19
   4  -9 -13   -0.09    0.11
   4   9 -13    0.12    0.14
   4   9 -13    0.03    0.17
   3  -9 -13    2.41    0.38
   3   9 -13    2.87    0.44
   3   9 -13    2.26    0.35
   2  -9 -13    0.59    0.22
   2   9 -13    1.00    0.23
   2   9 -13    0.13    0.21
   1  -9 -13    0.34    0.22
   1   9 -13    0.53    0.23
   1   9 -13    0.57    0.19
   0  -9 -13    0.56    0.24
   0   9 -13   -0.09    0.15
   0   9 -13    0.10    0.13
  -1  -9 -13    0.02    0.20
  -1   9 -13   -0.09    0.15
  -1   9 -13   -0.12    0.11
  -2  -9 -13   -0.21    0.18
  -2   9 -13   -0.22    0.15
  -2   9 -13   -0.07    0.11
   9  10 -13    0.51    0.19
   9  10 -13    0.44    0.18
   8  10 -13    0.87    0.23
   8  10 -13    0.33    0.16
   7  10 -13    0.71    0.23
   7  10 -13    0.68    0.20
   6 -10 -13    0.53    0.20
   6  10 -13    0.73    0.23
   6  10 -13    0.58    0.20
   5 -10 -13    4.17    0.55
   5  10 -13    5.98    0.54
   5  10 -13    5.05    0.59
   4 -10 -13    0.10    0.15
   4  10 -13   -0.09    0.12
   4  10 -13   -0.06    0.15
   3 -10 -13   11.27    1.11
   3  10 -13   12.38    1.01
   3  10 -13   13.27    1.09
   2 -10 -13   -0.04    0.15
   2  10 -13   -0.05    0.13
   2  10 -13    0.06    0.19
   1 -10 -13    1.22    0.32
   1  10 -13    1.13    0.31
   1  10 -13    1.53    0.28
   0 -10 -13    1.73    0.40
   0  10 -13    1.81    0.38
   0  10 -13    2.26    0.35
   6 -11 -13   -0.09    0.12
   6  11 -13    0.02    0.17
   6  11 -13   -0.02    0.13
   5 -11 -13    0.17    0.15
   5  11 -13   -0.04    0.13
   5  11 -13    0.27    0.20
   4 -11 -13   -0.05    0.14
   4  11 -13   -0.04    0.14
   4  11 -13   -0.21    0.14
   3 -11 -13   -0.12    0.13
   3  11 -13   -0.14    0.13
   3  11 -13   -0.13    0.15
  13   0 -14    0.09    0.11
  12   0 -14    2.51    0.31
  11   0 -14    0.01    0.10
  10   0 -14    5.93    0.56
  10   0 -14    5.47    0.50
   9   0 -14    0.06    0.14
   9   0 -14   -0.06    0.09
   8   0 -14    5.39    0.50
   8   0 -14    5.51    0.56
   7   0 -14    0.31    0.14
   7   0 -14    0.31    0.17
   6   0 -14    0.79    0.24
   6   0 -14    1.16    0.23
   5   0 -14   -0.44    0.12
   5   0 -14   -0.18    0.10
   5   0 -14    0.02    0.04
   4   0 -14   56.72    4.15
   4   0 -14   59.05    3.99
   3   0 -14   -0.19    0.16
   3   0 -14   -0.01    0.13
   2   0 -14   11.59    1.12
   2   0 -14   14.29    1.06
   1   0 -14   -0.20    0.12
   0   0 -14   30.02    2.32
  -1   0 -14   -0.19    0.14
  -2   0 -14    6.10    0.73
  -3   0 -14   -0.15    0.16
  -4   0 -14    3.68    0.59
  -5   0 -14   -0.15    0.16
  -6   0 -14    0.96    0.32
  14   1 -14   10.51    0.82
  13   1 -14    0.93    0.19
  12  -1 -14    0.64    0.16
  12   1 -14    0.83    0.18
  11  -1 -14    3.34    0.36
  11   1 -14    2.87    0.35
  11   1 -14    3.38    0.39
  10  -1 -14    3.13    0.38
  10   1 -14    3.73    0.40
  10   1 -14    4.46    0.47
   9  -1 -14    0.00    0.14
   9  -1 -14    0.32    0.13
   9   1 -14    0.01    0.13
   9   1 -14    0.11    0.10
   9   1 -14    0.29    0.13
   8  -1 -14    2.06    0.28
   8  -1 -14    1.99    0.34
   8   1 -14    1.41    0.24
   8   1 -14    1.94    0.31
   8   1 -14    1.57    0.23
   7  -1 -14    1.41    0.29
   7  -1 -14    1.44    0.24
   7   1 -14    1.21    0.19
   7   1 -14    0.89    0.23
   7   1 -14    1.16    0.22
   6  -1 -14    0.69    0.18
   6  -1 -14    0.11    0.18
   6   1 -14    0.68    0.18
   6   1 -14    0.82    0.23
   6   1 -14    0.62    0.13
   5  -1 -14   16.54    1.21
   5  -1 -14   15.22    1.28
   5   1 -14   14.86    1.26
   5   1 -14   15.96    1.19
   5   1 -14   15.56    1.22
   4  -1 -14    2.68    0.45
   4  -1 -14    2.96    0.39
   4   1 -14    2.98    0.36
   4   1 -14    2.47    0.41
   3  -1 -14    5.15    0.63
   3  -1 -14    5.65    0.55
   3   1 -14    5.21    0.63
   3   1 -14    5.73    0.54
   2  -1 -14    1.53    0.37
   2   1 -14    3.01    0.46
   2   1 -14    2.21    0.32
   1  -1 -14    0.55    0.23
   1   1 -14    1.34    0.26
   1   1 -14    0.70    0.24
   0  -1 -14    4.59    0.66
   0   1 -14    6.31    0.57
   0   1 -14    4.85    0.65
  -1  -1 -14    2.39    0.44
  -1   1 -14    2.84    0.46
  -2  -1 -14    0.11    0.21
  -2   1 -14    0.22    0.20
  -3  -1 -14    0.18    0.22
  -3   1 -14    0.15    0.19
  -4  -1 -14    0.16    0.22
  -4   1 -14   -0.03    0.17
  -5  -1 -14    0.17    0.21
  -5  -1 -14    0.46    0.27
  -5   1 -14    0.05    0.18
  -6  -1 -14    0.12    0.22
  -6  -1 -14   -0.11    0.18
  -6   1 -14   -0.15    0.17
  15   2 -14    1.38    0.23
  14   2 -14   -0.01    0.11
  13   2 -14   -0.03    0.10
  12  -2 -14    1.83    0.24
  12   2 -14    1.12    0.22
  11  -2 -14    0.01    0.10
  11   2 -14   -0.09    0.13
  11   2 -14    0.02    0.10
  10  -2 -14    0.69    0.18
  10   2 -14    0.73    0.17
  10   2 -14    1.42    0.25
  10   2 -14    0.91    0.22
   9  -2 -14    1.13    0.21
   9   2 -14    0.52    0.19
   9   2 -14    0.86    0.21
   9   2 -14    0.56    0.16
   8  -2 -14    3.00    0.35
   8   2 -14    2.24    0.31
   8   2 -14    2.22    0.35
   8   2 -14    2.76    0.34
   7  -2 -14    0.60    0.23
   7  -2 -14    0.37    0.16
   7   2 -14    0.46    0.19
   7   2 -14    0.43    0.14
   7   2 -14    0.44    0.15
   6  -2 -14    0.86    0.21
   6  -2 -14    1.01    0.28
   6   2 -14    0.98    0.21
   6   2 -14    0.72    0.23
   6   2 -14    0.97    0.18
   5  -2 -14    5.27    0.67
   5   2 -14    6.15    0.57
   5   2 -14    5.61    0.66
   5   2 -14    6.75    0.55
   4  -2 -14    2.27    0.26
   4  -2 -14    1.47    0.35
   4   2 -14    2.95    0.35
   4   2 -14    3.09    0.43
   4   2 -14    2.34    0.24
   3  -2 -14    4.55    0.47
   3  -2 -14    5.51    0.65
   3   2 -14    5.21    0.50
   3   2 -14    5.28    0.61
   2  -2 -14    8.53    0.77
   2  -2 -14    8.25    0.84
   2   2 -14    8.14    0.72
   2   2 -14    8.86    0.82
   1  -2 -14    1.17    0.32
   1  -2 -14    0.96    0.22
   1   2 -14    1.22    0.29
   1   2 -14    0.90    0.22
   0  -2 -14    5.74    0.61
   0  -2 -14    4.78    0.68
   0   2 -14    5.34    0.67
   0   2 -14    5.64    0.55
  -1  -2 -14    1.30    0.30
  -1  -2 -14    1.22    0.34
  -1   2 -14    1.61    0.29
  -1   2 -14    1.58    0.35
  -2  -2 -14    0.55    0.25
  -2  -2 -14    0.54    0.24
  -2   2 -14    0.44    0.23
  -3  -2 -14   -0.02    0.15
  -3  -2 -14   -0.12    0.15
  -3   2 -14    0.25    0.20
  -4  -2 -14    1.25    0.35
  -4  -2 -14    0.68    0.29
  -4   2 -14    0.92    0.30
  -5  -2 -14    0.05    0.22
  -5  -2 -14    0.31    0.24
  -5   2 -14    0.12    0.19
  15   3 -14    2.50    0.32
  14   3 -14    3.96    0.40
  13   3 -14    3.65    0.40
  12   3 -14    0.00    0.11
  11  -3 -14    3.55    0.38
  11   3 -14    3.68    0.42
  11   3 -14    3.39    0.39
  10  -3 -14    0.13    0.12
  10   3 -14    0.21    0.12
  10   3 -14    0.02    0.16
  10   3 -14    0.17    0.16
   9   3 -14    2.81    0.41
   9   3 -14    3.54    0.42
   9   3 -14    3.10    0.37
   8   3 -14    0.20    0.17
   8   3 -14    0.21    0.13
   8   3 -14    0.05    0.14
   7   3 -14    7.33    0.69
   7   3 -14    6.92    0.67
   7   3 -14    7.84    0.64
   6   3 -14    7.73    0.67
   6   3 -14    7.12    0.70
   6   3 -14    8.39    0.72
   5  -3 -14    7.72    0.69
   5   3 -14    8.52    0.78
   5   3 -14    9.98    0.74
   5   3 -14    9.06    0.75
   4  -3 -14    1.97    0.38
   4  -3 -14    1.94    0.25
   4   3 -14    2.07    0.25
   4   3 -14    1.91    0.34
   4   3 -14    1.99    0.30
   3  -3 -14    7.16    0.78
   3  -3 -14    5.12    0.59
   3   3 -14    7.46    0.61
   3   3 -14    6.69    0.56
   3   3 -14    7.02    0.66
   2  -3 -14    0.97    0.30
   2  -3 -14    0.38    0.16
   2   3 -14    0.46    0.20
   2   3 -14    0.56    0.18
   1  -3 -14    2.87    0.41
   1  -3 -14    3.65    0.55
   1   3 -14    3.26    0.46
   1   3 -14    3.17    0.41
   0  -3 -14    0.21    0.21
   0  -3 -14    0.05    0.14
   0   3 -14    0.18    0.18
   0   3 -14   -0.03    0.11
  -1  -3 -14    0.32    0.19
  -1  -3 -14    0.19    0.19
  -1   3 -14   -0.08    0.15
  -1   3 -14    0.92    0.22
  -2  -3 -14    1.69    0.36
  -2  -3 -14    1.99    0.42
  -2   3 -14    1.47    0.29
  -2   3 -14    1.66    0.37
  -3  -3 -14    0.29    0.22
  -3  -3 -14    0.12    0.18
  -3   3 -14    0.14    0.19
  -4  -3 -14   -0.03    0.20
  -4  -3 -14   -0.07    0.19
  -4   3 -14    0.08    0.20
  -5  -3 -14    0.03    0.20
  -5  -3 -14    0.30    0.26
  -5   3 -14    0.32    0.21
  15   4 -14    0.61    0.18
  14   4 -14   -0.01    0.11
  13   4 -14    6.72    0.58
  12   4 -14    0.57    0.17
  11   4 -14    1.56    0.27
  11   4 -14    1.54    0.25
  10   4 -14    0.41    0.15
  10   4 -14    0.45    0.17
   9   4 -14    0.95    0.23
   9   4 -14    1.02    0.21
   9   4 -14    0.90    0.26
   8   4 -14    1.60    0.31
   8   4 -14    1.18    0.23
   8   4 -14    1.76    0.29
   7   4 -14    1.79    0.28
   7   4 -14    2.68    0.37
   7   4 -14    2.03    0.32
   6  -4 -14    3.21    0.30
   6   4 -14    3.24    0.43
   6   4 -14    4.00    0.42
   6   4 -14    3.82    0.41
   5  -4 -14    5.26    0.50
   5   4 -14    6.53    0.57
   5   4 -14    5.94    0.59
   5   4 -14    5.88    0.54
   4  -4 -14    1.22    0.20
   4   4 -14    1.40    0.25
   4   4 -14    1.35    0.21
   4   4 -14    1.45    0.29
   3  -4 -14    6.41    0.64
   3   4 -14    6.90    0.60
   3   4 -14    7.25    0.63
   3   4 -14    7.18    0.69
   2  -4 -14    0.21    0.15
   2   4 -14    0.29    0.18
   2   4 -14    0.39    0.17
   1  -4 -14    5.68    0.66
   1   4 -14    6.57    0.74
   1   4 -14    7.31    0.62
   0  -4 -14    0.45    0.20
   0   4 -14    1.10    0.24
   0   4 -14    1.16    0.29
  -1  -4 -14    9.13    0.99
  -1   4 -14   10.86    0.98
  -1   4 -14   11.14    0.89
  -2  -4 -14    0.90    0.28
  -2   4 -14    1.27    0.30
  -2   4 -14    0.51    0.19
  -3  -4 -14    1.26    0.35
  -3   4 -14    1.89    0.40
  -4  -4 -14    0.07    0.20
  -4   4 -14    0.73    0.28
  -5  -4 -14    0.06    0.22
  -5   4 -14   -0.07    0.18
  14   5 -14   -0.09    0.11
  13   5 -14    1.72    0.27
  12   5 -14   -0.13    0.11
  11   5 -14    9.48    0.75
  11   5 -14    8.52    0.75
  10   5 -14   -0.04    0.14
  10   5 -14    0.31    0.15
   9   5 -14    1.05    0.22
   9   5 -14    0.98    0.22
   8   5 -14   -0.10    0.12
   8   5 -14    0.01    0.10
   7   5 -14    1.31    0.23
   7   5 -14    0.75    0.21
   6  -5 -14    3.11    0.31
   6   5 -14    3.18    0.39
   6   5 -14    3.19    0.42
   5  -5 -14    2.31    0.29
   5   5 -14    2.66    0.35
   5   5 -14    3.33    0.41
   4  -5 -14    0.80    0.17
   4   5 -14    0.44    0.19
   4   5 -14    0.87    0.20
   3  -5 -14    0.28    0.14
   3   5 -14    0.52    0.16
   3   5 -14    0.50    0.20
   2  -5 -14    1.51    0.29
   2   5 -14    1.71    0.32
   2   5 -14    1.71    0.27
   1  -5 -14    2.72    0.42
   1   5 -14    3.26    0.40
   1   5 -14    3.27    0.46
   0  -5 -14    0.32    0.19
   0   5 -14    0.08    0.14
   0   5 -14   -0.06    0.13
  -1  -5 -14    0.13    0.17
  -1   5 -14    0.13    0.18
  -1   5 -14    0.24    0.14
  -2  -5 -14   -0.04    0.17
  -2   5 -14    0.13    0.17
  -2   5 -14    0.32    0.18
  -3  -5 -14    1.28    0.37
  -3   5 -14    1.81    0.39
  -3   5 -14    1.42    0.30
  -4  -5 -14   -0.09    0.16
  -4   5 -14    0.36    0.21
  14   6 -14    0.06    0.14
  13   6 -14    1.59    0.28
  12   6 -14   -0.01    0.13
  11   6 -14    0.18    0.14
  11   6 -14   -0.13    0.11
  10   6 -14    0.23    0.14
  10   6 -14    0.37    0.17
   9   6 -14    1.70    0.28
   9   6 -14    2.21    0.33
   8   6 -14    2.93    0.40
   8   6 -14    2.87    0.37
   7   6 -14    1.06    0.25
   7   6 -14    1.15    0.22
   6  -6 -14    0.16    0.09
   6   6 -14    0.13    0.13
   6   6 -14    0.15    0.15
   5  -6 -14    0.03    0.09
   5   6 -14    0.09    0.12
   5   6 -14   -0.09    0.13
   4  -6 -14    3.00    0.38
   4   6 -14    3.26    0.45
   4   6 -14    3.27    0.40
   3  -6 -14    4.47    0.53
   3   6 -14    5.12    0.60
   3   6 -14    5.96    0.53
   2  -6 -14    1.01    0.25
   2   6 -14    0.86    0.21
   2   6 -14    1.03    0.27
   1  -6 -14    4.63    0.62
   1   6 -14    5.07    0.62
   1   6 -14    6.11    0.55
   0  -6 -14    0.24    0.18
   0   6 -14    0.07    0.17
   0   6 -14    0.29    0.15
  -1  -6 -14    5.81    0.76
  -1   6 -14    5.63    0.72
  -1   6 -14    7.08    0.63
  -2  -6 -14   -0.11    0.15
  -2   6 -14   -0.16    0.14
  -2   6 -14    0.04    0.14
  -3  -6 -14   -0.03    0.18
  -3   6 -14    0.22    0.21
  -3   6 -14    0.07    0.15
  -4  -6 -14    0.15    0.24
  -4   6 -14    0.07    0.19
  -4   6 -14    0.37    0.19
  13   7 -14    8.14    0.71
  12   7 -14    2.72    0.37
  11   7 -14    3.65    0.43
  10   7 -14    0.30    0.17
  10   7 -14    0.09    0.13
   9   7 -14    0.42    0.17
   9   7 -14    0.61    0.21
   8   7 -14    0.53    0.19
   8   7 -14    0.41    0.17
   7   7 -14    0.41    0.16
   7   7 -14    0.34    0.19
   6  -7 -14    0.34    0.12
   6   7 -14    0.16    0.13
   6   7 -14   -0.11    0.11
   5  -7 -14    0.13    0.11
   5   7 -14    0.14    0.12
   5   7 -14   -0.07    0.14
   4  -7 -14    0.41    0.15
   4   7 -14    0.27    0.15
   4   7 -14    0.26    0.17
   3  -7 -14    0.75    0.21
   3   7 -14    0.58    0.18
   3   7 -14    0.68    0.25
   2  -7 -14    1.16    0.27
   2   7 -14    1.37    0.32
   2   7 -14    1.11    0.24
   1  -7 -14   -0.06    0.14
   1   7 -14   -0.18    0.14
   1   7 -14   -0.01    0.11
   0  -7 -14   -0.01    0.15
   0   7 -14   -0.07    0.11
   0   7 -14   -0.01    0.17
  -1  -7 -14   -0.08    0.14
  -1   7 -14   -0.04    0.14
  -1   7 -14   -0.05    0.12
  -2  -7 -14    0.13    0.20
  -2   7 -14    0.02    0.13
  -2   7 -14   -0.16    0.15
  -3  -7 -14    0.20    0.22
  -3   7 -14    0.26    0.18
  -3   7 -14   -0.15    0.16
  12   8 -14    3.54    0.44
  11   8 -14   -0.11    0.12
  10   8 -14    1.50    0.29
  10   8 -14    1.56    0.29
   9   8 -14    0.08    0.13
   9   8 -14    0.33    0.16
   8   8 -14    0.72    0.20
   8   8 -14    1.07    0.24
   7   8 -14    1.01    0.26
   7   8 -14    0.99    0.23
   6  -8 -14    1.83    0.27
   6   8 -14    1.96    0.33
   6   8 -14    1.96    0.31
   5  -8 -14    0.44    0.15
   5   8 -14    0.35    0.16
   5   8 -14    0.55    0.22
   4  -8 -14    5.10    0.58
   4   8 -14    7.01    0.65
   4   8 -14    5.98    0.58
   3  -8 -14    0.13    0.14
   3   8 -14   -0.06    0.12
   3   8 -14    0.20    0.20
   2  -8 -14   19.72    1.76
   2   8 -14   21.01    1.57
   2   8 -14   21.81    1.68
   1  -8 -14    0.80    0.26
   1   8 -14    1.25    0.32
   1   8 -14    1.36    0.27
   0  -8 -14    7.25    0.86
   0   8 -14    7.70    0.88
   0   8 -14    8.92    0.75
  -1  -8 -14    0.33    0.23
  -1   8 -14    0.53    0.20
  -1   8 -14    0.11    0.20
  -2  -8 -14    2.31    0.48
  -2   8 -14    2.71    0.46
  -2   8 -14    2.47    0.38
  10   9 -14    4.53    0.52
  10   9 -14    3.91    0.48
   9   9 -14   -0.12    0.12
   9   9 -14   -0.05    0.15
   8   9 -14    2.08    0.32
   8   9 -14    1.79    0.35
   7   9 -14    0.30    0.20
   7   9 -14    0.50    0.18
   6  -9 -14    0.21    0.13
   6   9 -14    0.19    0.19
   6   9 -14    0.10    0.13
   5  -9 -14    1.29    0.25
   5   9 -14    1.90    0.31
   5   9 -14    1.64    0.33
   4  -9 -14    0.07    0.14
   4   9 -14    0.09    0.18
   4   9 -14    0.22    0.17
   3  -9 -14   -0.12    0.11
   3   9 -14   -0.10    0.17
   3   9 -14    0.09    0.14
   2  -9 -14    0.16    0.17
   2   9 -14    0.46    0.23
   2   9 -14    0.59    0.20
   1  -9 -14   -0.14    0.14
   1   9 -14    0.21    0.15
   1   9 -14    0.11    0.20
   0  -9 -14    0.19    0.21
   0   9 -14    0.50    0.20
   0   9 -14    0.71    0.26
   8  10 -14   -0.09    0.16
   8  10 -14    0.05    0.14
   7  10 -14   -0.01    0.11
   7  10 -14    0.07    0.17
   6 -10 -14    3.24    0.45
   6  10 -14    4.19    0.53
   6  10 -14    4.68    0.53
   5 -10 -14    1.07    0.25
   5  10 -14    1.49    0.28
   5  10 -14    1.22    0.32
   4 -10 -14   11.09    1.07
   4  10 -14   12.95    1.02
   4  10 -14   12.08    1.07
   3 -10 -14    0.02    0.16
   3  10 -14    0.16    0.20
   3  10 -14    0.16    0.16
   2 -10 -14    5.31    0.69
   2  10 -14    6.32    0.62
   2  10 -14    6.68    0.75
  13   0 -15    6.18    0.54
  12   0 -15    0.18    0.13
  11   0 -15    1.57    0.25
  10   0 -15    0.01    0.19
  10   0 -15   -0.06    0.10
   9   0 -15    0.07    0.19
   9   0 -15   -0.04    0.10
   8   0 -15    0.04    0.13
   8   0 -15    0.27    0.19
   7   0 -15   -0.25    0.15
   7   0 -15    0.03    0.12
   6   0 -15   -0.17    0.14
   6   0 -15    0.01    0.11
   5   0 -15    0.50    0.18
   5   0 -15    0.50    0.08
   5   0 -15    0.36    0.20
   4   0 -15   -0.21    0.13
   4   0 -15    0.07    0.14
   3   0 -15    4.24    0.58
   3   0 -15    4.66    0.52
   2   0 -15   -0.18    0.17
   2   0 -15   -0.02    0.12
   1   0 -15   -0.08    0.20
   0   0 -15    0.11    0.20
  -1   0 -15    0.40    0.26
  -2   0 -15   -0.27    0.13
  -3   0 -15    0.51    0.28
  -4   0 -15   -0.05    0.18
  14   1 -15    0.89    0.20
  13   1 -15    3.22    0.37
  12  -1 -15    0.25    0.14
  12   1 -15    0.04    0.11
  11  -1 -15    3.89    0.44
  11   1 -15    4.14    0.44
  11   1 -15    4.40    0.48
  10  -1 -15    3.56    0.39
  10   1 -15    2.89    0.41
  10   1 -15    3.02    0.36
   9  -1 -15    9.32    0.89
   9  -1 -15   10.13    0.83
   9   1 -15   10.49    0.87
   9   1 -15   10.02    0.88
   9   1 -15   10.71    0.83
   8  -1 -15    0.11    0.13
   8  -1 -15    0.00    0.15
   8   1 -15    0.13    0.11
   8   1 -15   -0.09    0.14
   8   1 -15    0.06    0.11
   7  -1 -15    4.96    0.58
   7  -1 -15    4.36    0.49
   7   1 -15    4.35    0.55
   7   1 -15    4.62    0.43
   7   1 -15    4.84    0.47
   6  -1 -15    3.18    0.38
   6  -1 -15    2.25    0.40
   6   1 -15    2.56    0.27
   6   1 -15    2.53    0.34
   6   1 -15    2.13    0.38
   5  -1 -15    0.93    0.22
   5  -1 -15    0.79    0.27
   5   1 -15    1.08    0.14
   5   1 -15    0.41    0.17
   5   1 -15    0.63    0.24
   4  -1 -15    0.09    0.13
   4  -1 -15    0.06    0.17
   4   1 -15    0.06    0.16
   4   1 -15   -0.05    0.12
   3  -1 -15    0.64    0.27
   3   1 -15    0.95    0.28
   3   1 -15    1.10    0.24
   2  -1 -15    5.56    0.68
   2   1 -15    4.99    0.63
   2   1 -15    5.45    0.59
   1  -1 -15    4.32    0.61
   1   1 -15    4.73    0.64
   1   1 -15    5.46    0.59
   0  -1 -15    1.29    0.36
   0   1 -15    0.47    0.25
  -1  -1 -15    3.80    0.63
  -1   1 -15    4.93    0.66
  -2  -1 -15    0.90    0.31
  -2   1 -15    0.63    0.27
  -3  -1 -15    2.24    0.48
  -3   1 -15    1.81    0.44
  -4  -1 -15    0.32    0.23
  -4  -1 -15    0.17    0.21
  -4   1 -15   -0.01    0.18
  15   2 -15    5.12    0.49
  14   2 -15    4.33    0.43
  13   2 -15    0.63    0.18
  12   2 -15    0.17    0.14
  11  -2 -15    0.43    0.16
  11   2 -15    0.53    0.20
  11   2 -15    0.39    0.15
  10  -2 -15    2.13    0.31
  10   2 -15    2.14    0.30
  10   2 -15    2.00    0.32
  10   2 -15    2.15    0.34
   9  -2 -15    0.03    0.13
   9   2 -15   -0.07    0.10
   9   2 -15    0.00    0.12
   9   2 -15    0.22    0.16
   8  -2 -15   -0.05    0.11
   8   2 -15   -0.19    0.13
   8   2 -15    0.01    0.12
   8   2 -15   -0.14    0.09
   7  -2 -15    0.84    0.21
   7  -2 -15    0.53    0.24
   7   2 -15    0.63    0.16
   7   2 -15    0.54    0.17
   7   2 -15    0.78    0.23
   6  -2 -15    0.75    0.22
   6  -2 -15    0.77    0.26
   6   2 -15    0.61    0.18
   6   2 -15    0.63    0.22
   6   2 -15    0.64    0.15
   5  -2 -15    3.42    0.50
   5   2 -15    2.87    0.38
   5   2 -15    3.14    0.31
   5   2 -15    2.70    0.43
   4  -2 -15    1.67    0.22
   4  -2 -15    1.43    0.34
   4   2 -15    1.82    0.33
   4   2 -15    1.54    0.27
   4   2 -15    1.55    0.20
   3  -2 -15    0.63    0.16
   3  -2 -15    0.80    0.28
   3   2 -15    0.71    0.24
   3   2 -15    0.72    0.20
   2  -2 -15    0.85    0.21
   2  -2 -15    0.88    0.31
   2   2 -15    0.80    0.22
   2   2 -15    0.82    0.27
   1  -2 -15    0.20    0.14
   1  -2 -15    0.17    0.20
   1   2 -15   -0.17    0.13
   1   2 -15    0.13    0.13
   0  -2 -15    1.21    0.34
   0  -2 -15    1.05    0.26
   0   2 -15    1.16    0.26
   0   2 -15    0.62    0.26
  -1  -2 -15    7.22    0.86
  -1  -2 -15    6.98    0.76
  -1   2 -15    6.35    0.79
  -2  -2 -15    3.00    0.48
  -2  -2 -15    2.53    0.50
  -2   2 -15    2.47    0.45
  -3  -2 -15    1.32    0.34
  -3  -2 -15    1.62    0.41
  -3   2 -15    1.46    0.39
  -4  -2 -15   -0.03    0.19
  -4  -2 -15    0.12    0.21
  -4   2 -15    0.18    0.23
  15   3 -15    1.64    0.27
  14   3 -15    7.06    0.62
  13   3 -15    1.44    0.26
  12   3 -15    2.42    0.33
  11   3 -15    2.36    0.34
  11   3 -15    2.10    0.31
  10   3 -15    6.74    0.65
  10   3 -15    7.21    0.71
  10   3 -15    7.23    0.62
   9   3 -15    0.46    0.21
   9   3 -15    0.44    0.16
   9   3 -15    0.80    0.22
   8   3 -15    3.82    0.50
   8   3 -15    4.16    0.47
   8   3 -15    4.97    0.50
   7   3 -15    0.39    0.19
   7   3 -15    0.53    0.17
   7   3 -15    0.30    0.15
   6   3 -15    0.21    0.16
   6   3 -15    0.42    0.16
   6   3 -15    0.12    0.12
   5  -3 -15    0.01    0.17
   5  -3 -15    0.05    0.07
   5   3 -15    0.16    0.15
   5   3 -15    0.07    0.09
   5   3 -15    0.00    0.11
   4  -3 -15    1.52    0.22
   4  -3 -15    1.74    0.37
   4   3 -15    1.95    0.30
   4   3 -15    1.34    0.20
   4   3 -15    1.13    0.28
   3  -3 -15    1.67    0.38
   3  -3 -15    1.66    0.27
   3   3 -15    1.66    0.22
   3   3 -15    2.05    0.30
   3   3 -15    2.34    0.40
   2  -3 -15    2.87    0.38
   2  -3 -15    1.93    0.42
   2   3 -15    3.22    0.49
   2   3 -15    3.94    0.44
   1  -3 -15    1.33    0.28
   1  -3 -15    1.79    0.39
   1   3 -15    2.22    0.40
   1   3 -15    1.74    0.30
   0  -3 -15    4.65    0.59
   0  -3 -15    4.09    0.63
   0   3 -15    4.89    0.65
   0   3 -15    6.09    0.56
  -1  -3 -15    4.06    0.57
  -1  -3 -15    4.23    0.63
  -1   3 -15    3.98    0.59
  -1   3 -15    4.85    0.54
  -2  -3 -15    0.29    0.24
  -2  -3 -15    0.79    0.27
  -2   3 -15    1.07    0.31
  -3  -3 -15    1.99    0.45
  -3  -3 -15    2.81    0.50
  -3   3 -15    2.40    0.46
  -4  -3 -15    3.82    0.62
  -4  -3 -15    2.58    0.51
  -4   3 -15    2.55    0.48
  14   4 -15    0.10    0.12
  13   4 -15    1.07    0.23
  12   4 -15    3.32    0.40
  11   4 -15    0.24    0.18
  11   4 -15    0.51    0.18
  10   4 -15    7.37    0.71
  10   4 -15    8.22    0.68
   9   4 -15   -0.05    0.13
   9   4 -15   -0.08    0.12
   8   4 -15    2.74    0.40
   8   4 -15    2.01    0.35
   8   4 -15    2.34    0.33
   7   4 -15    0.09    0.13
   7   4 -15    0.12    0.15
   7   4 -15   -0.08    0.14
   6  -4 -15    1.67    0.18
   6   4 -15    2.34    0.33
   6   4 -15    1.74    0.28
   6   4 -15    2.09    0.35
   5  -4 -15    0.02    0.07
   5   4 -15   -0.05    0.10
   5   4 -15    0.10    0.14
   5   4 -15    0.06    0.11
   4  -4 -15    0.06    0.10
   4   4 -15   -0.01    0.10
   4   4 -15    0.23    0.16
   3  -4 -15    0.10    0.11
   3   4 -15    0.00    0.11
   3   4 -15    0.02    0.15
   2  -4 -15    0.06    0.13
   2   4 -15    0.02    0.14
   2   4 -15    0.04    0.11
   1  -4 -15    0.97    0.25
   1   4 -15    0.96    0.28
   1   4 -15    1.13    0.24
   0  -4 -15    0.53    0.22
   0   4 -15    0.66    0.25
   0   4 -15    0.63    0.20
  -1  -4 -15    0.78    0.27
  -1   4 -15    1.40    0.28
  -1   4 -15    1.16    0.33
  -2  -4 -15    0.04    0.15
  -2   4 -15   -0.08    0.13
  -2   4 -15    0.02    0.16
  -3  -4 -15    2.03    0.44
  -3   4 -15    1.13    0.33
  -4   4 -15   -0.01    0.18
  14   5 -15    0.71    0.20
  13   5 -15    0.47    0.18
  12   5 -15   11.98    0.95
  11   5 -15    0.26    0.18
  11   5 -15    0.24    0.15
  10   5 -15   10.56    0.94
  10   5 -15   12.36    0.94
   9   5 -15    3.01    0.39
   9   5 -15    3.22    0.42
   8   5 -15    4.73    0.57
   8   5 -15    5.94    0.54
   7   5 -15    0.70    0.19
   7   5 -15    0.44    0.19
   6  -5 -15    1.96    0.23
   6   5 -15    1.98    0.34
   6   5 -15    1.87    0.30
   5  -5 -15    1.44    0.22
   5   5 -15    1.81    0.34
   5   5 -15    2.49    0.33
   4  -5 -15   -0.02    0.09
   4   5 -15    0.07    0.15
   4   5 -15   -0.06    0.10
   3  -5 -15   -0.07    0.10
   3   5 -15   -0.10    0.09
   3   5 -15    0.10    0.16
   2  -5 -15    3.12    0.44
   2   5 -15    3.63    0.44
   2   5 -15    3.20    0.49
   1  -5 -15    0.05    0.15
   1   5 -15    0.27    0.15
   1   5 -15    0.22    0.19
   0  -5 -15   13.55    1.28
   0   5 -15   14.25    1.14
   0   5 -15   14.17    1.24
  -1  -5 -15    0.49    0.23
  -1   5 -15    1.31    0.33
  -1   5 -15    0.88    0.24
  -2  -5 -15    6.58    0.87
  -2   5 -15    8.42    0.75
  -2   5 -15    7.73    0.89
  -3  -5 -15    0.12    0.20
  -3   5 -15    0.18    0.22
  -3   5 -15    0.27    0.18
  13   6 -15    0.85    0.22
  12   6 -15    4.09    0.47
  11   6 -15    1.00    0.23
  10   6 -15    1.38    0.27
  10   6 -15    1.36    0.28
   9   6 -15    2.63    0.39
   9   6 -15    3.13    0.40
   8   6 -15    2.42    0.37
   8   6 -15    3.03    0.38
   7   6 -15    2.62    0.41
   7   6 -15    4.21    0.46
   6  -6 -15    0.03    0.08
   6   6 -15    0.00    0.11
   6   6 -15    0.04    0.14
   5  -6 -15    0.06    0.09
   5   6 -15   -0.03    0.11
   5   6 -15    0.10    0.16
   4  -6 -15    1.17    0.22
   4   6 -15    1.51    0.31
   4   6 -15    0.93    0.21
   3  -6 -15    1.21    0.24
   3   6 -15    0.81    0.22
   3   6 -15    1.36    0.30
   2  -6 -15    5.02    0.60
   2   6 -15    5.69    0.67
   2   6 -15    6.22    0.58
   1  -6 -15    0.51    0.21
   1   6 -15    0.24    0.19
   1   6 -15    0.50    0.20
   0  -6 -15    1.30    0.34
   0   6 -15    1.86    0.38
   0   6 -15    1.57    0.30
  -1  -6 -15    0.13    0.19
  -1   6 -15    0.39    0.19
  -1   6 -15    0.30    0.22
  -2  -6 -15    2.29    0.47
  -2   6 -15    3.10    0.44
  -2   6 -15    2.30    0.46
  12   7 -15    2.49    0.37
  11   7 -15   -0.05    0.13
  10   7 -15    5.84    0.56
  10   7 -15    5.57    0.57
   9   7 -15    1.31    0.27
   9   7 -15    1.32    0.28
   8   7 -15    0.11    0.14
   8   7 -15    0.16    0.18
   7   7 -15    0.58    0.19
   7   7 -15    0.18    0.18
   6  -7 -15    1.18    0.20
   6   7 -15    0.97    0.26
   6   7 -15    1.00    0.23
   5  -7 -15    0.73    0.17
   5   7 -15    0.42    0.21
   5   7 -15    0.65    0.19
   4  -7 -15    1.91    0.30
   4   7 -15    1.81    0.30
   4   7 -15    1.90    0.38
   3  -7 -15    1.35    0.28
   3   7 -15    2.65    0.40
   3   7 -15    1.57    0.29
   2  -7 -15    2.68    0.44
   2   7 -15    3.64    0.44
   2   7 -15    3.86    0.52
   1  -7 -15    0.46    0.21
   1   7 -15    0.63    0.21
   1   7 -15    0.63    0.25
   0  -7 -15    3.83    0.60
   0   7 -15    5.10    0.64
   0   7 -15    5.00    0.55
  -1  -7 -15    2.79    0.50
  -1   7 -15    3.47    0.54
  -1   7 -15    2.65    0.40
  11   8 -15    0.31    0.18
  10   8 -15   -0.10    0.15
  10   8 -15   -0.05    0.13
   9   8 -15    1.94    0.32
   9   8 -15    1.70    0.32
   8   8 -15    1.11    0.27
   8   8 -15    1.38    0.27
   7   8 -15    0.08    0.15
   7   8 -15    0.03    0.15
   6  -8 -15    0.08    0.10
   6   8 -15    0.03    0.16
   6   8 -15    0.08    0.13
   5  -8 -15    0.15    0.12
   5   8 -15    0.14    0.16
   5   8 -15    0.03    0.13
   4  -8 -15   -0.04    0.11
   4   8 -15    0.10    0.14
   4   8 -15    0.15    0.17
   3  -8 -15    2.27    0.37
   3   8 -15    2.57    0.37
   3   8 -15    3.07    0.47
   2  -8 -15    0.76    0.24
   2   8 -15    0.63    0.22
   2   8 -15    0.64    0.26
   1  -8 -15    2.37    0.43
   1   8 -15    2.70    0.40
   1   8 -15    2.96    0.47
   0  -8 -15    0.26    0.20
   0   8 -15    0.50    0.26
   0   8 -15    0.07    0.15
   9   9 -15    4.98    0.60
   9   9 -15    4.82    0.55
   8   9 -15    0.18    0.17
   8   9 -15   -0.05    0.12
   7   9 -15    2.96    0.41
   7   9 -15    3.06    0.46
   6  -9 -15    1.07    0.22
   6   9 -15    0.99    0.28
   6   9 -15    1.11    0.26
   5  -9 -15    0.22    0.13
   5   9 -15    0.48    0.24
   5   9 -15    0.30    0.17
   4  -9 -15    0.15    0.14
   4   9 -15    0.00    0.13
   4   9 -15    0.06    0.19
   3  -9 -15    3.41    0.46
   3   9 -15    3.38    0.46
   3   9 -15    3.24    0.51
   2  -9 -15    1.17    0.30
   2   9 -15    1.21    0.34
   2   9 -15    1.87    0.33
  13   0 -16   -0.01    0.11
  12   0 -16   11.05    0.88
  11   0 -16    0.03    0.13
  10   0 -16   18.94    1.49
  10   0 -16   19.06    1.42
   9   0 -16    0.10    0.13
   9   0 -16   -0.12    0.16
   8   0 -16    8.92    0.74
   8   0 -16    7.86    0.79
   7   0 -16    0.09    0.15
   7   0 -16    0.11    0.17
   6   0 -16    5.72    0.70
   6   0 -16    5.64    0.56
   5   0 -16    0.09    0.18
   5   0 -16   -0.08    0.13
   5   0 -16   -0.06    0.04
   4   0 -16    2.06    0.41
   4   0 -16    2.36    0.36
   3   0 -16   -0.08    0.12
   3   0 -16   -0.07    0.16
   2   0 -16   17.60    1.49
   1   0 -16   -0.01    0.17
   0   0 -16    6.93    0.83
  -1   0 -16   -0.26    0.15
  -2   0 -16    1.54    0.41
  -3   0 -16   -0.10    0.18
  14   1 -16    0.20    0.14
  13   1 -16   -0.10    0.11
  12  -1 -16    0.08    0.13
  12   1 -16    0.08    0.13
  11  -1 -16    1.71    0.29
  11   1 -16    1.60    0.32
  11   1 -16    1.83    0.28
  10  -1 -16    3.27    0.40
  10   1 -16    2.91    0.37
  10   1 -16    2.82    0.44
   9  -1 -16    0.69    0.21
   9  -1 -16    1.17    0.30
   9   1 -16    1.02    0.23
   9   1 -16    0.77    0.24
   9   1 -16    0.86    0.18
   8  -1 -16    1.83    0.31
   8  -1 -16    1.96    0.40
   8   1 -16    2.35    0.27
   8   1 -16    2.41    0.34
   8   1 -16    2.22    0.39
   7  -1 -16    0.16    0.19
   7  -1 -16    0.02    0.15
   7   1 -16    0.02    0.16
   7   1 -16    0.15    0.11
   7   1 -16   -0.04    0.12
   6  -1 -16    5.76    0.56
   6  -1 -16    4.32    0.61
   6   1 -16    5.08    0.64
   6   1 -16    6.40    0.56
   6   1 -16    5.22    0.48
   5  -1 -16    1.04    0.15
   5  -1 -16    0.75    0.27
   5  -1 -16    0.74    0.24
   5   1 -16    1.06    0.29
   5   1 -16    0.73    0.21
   5   1 -16    1.00    0.14
   4  -1 -16    1.34    0.34
   4   1 -16    1.56    0.35
   4   1 -16    1.21    0.26
   4   1 -16    1.39    0.17
   3  -1 -16    0.99    0.30
   3   1 -16    0.85    0.24
   3   1 -16    0.78    0.27
   2  -1 -16    0.00    0.21
   2   1 -16    0.29    0.17
   2   1 -16   -0.23    0.14
   1  -1 -16    0.25    0.23
   1   1 -16    0.26    0.21
   0  -1 -16    1.62    0.43
   0   1 -16    2.97    0.49
  -1  -1 -16    1.11    0.35
  -1   1 -16    1.41    0.36
  -2  -1 -16    1.47    0.36
  -2  -1 -16    1.67    0.42
  -2   1 -16    2.14    0.46
  -3  -1 -16    0.52    0.29
  -3  -1 -16    0.52    0.25
  -3   1 -16    0.77    0.31
  14   2 -16    0.73    0.19
  13   2 -16    0.96    0.22
  12   2 -16    3.72    0.43
  11  -2 -16    9.66    0.79
  11   2 -16    9.92    0.85
  11   2 -16    9.17    0.79
  10  -2 -16   14.16    1.08
  10   2 -16   12.73    1.06
  10   2 -16   13.17    1.13
  10   2 -16   14.71    1.18
   9  -2 -16    1.80    0.30
   9   2 -16    1.46    0.30
   9   2 -16    1.50    0.27
   9   2 -16    1.58    0.27
   8  -2 -16    5.47    0.57
   8   2 -16    6.03    0.57
   8   2 -16    5.78    0.56
   8   2 -16    6.03    0.66
   7  -2 -16    3.59    0.52
   7  -2 -16    3.44    0.44
   7   2 -16    2.76    0.44
   7   2 -16    3.84    0.44
   7   2 -16    3.40    0.38
   6  -2 -16    0.02    0.18
   6   2 -16    0.06    0.12
   6   2 -16    0.11    0.11
   6   2 -16   -0.09    0.16
   5  -2 -16    1.31    0.33
   5   2 -16    1.20    0.26
   5   2 -16    1.53    0.20
   5   2 -16    1.38    0.31
   4  -2 -16    0.34    0.12
   4  -2 -16    0.33    0.24
   4   2 -16    0.33    0.10
   4   2 -16    0.34    0.21
   4   2 -16    0.49    0.19
   3  -2 -16    1.01    0.21
   3  -2 -16    1.12    0.31
   3   2 -16    1.03    0.29
   3   2 -16    0.97    0.23
   2  -2 -16    1.30    0.25
   2  -2 -16    1.02    0.32
   2   2 -16    1.42    0.28
   2   2 -16    1.79    0.37
   1  -2 -16    0.77    0.30
   1  -2 -16    0.63    0.19
   1   2 -16    0.58    0.21
   1   2 -16    1.01    0.29
   0  -2 -16    0.63    0.29
   0  -2 -16    0.52    0.22
   0   2 -16    0.40    0.26
   0   2 -16    0.73    0.23
  -1  -2 -16    0.05    0.20
  -1  -2 -16   -0.04    0.15
  -1   2 -16   -0.11    0.15
  -2  -2 -16   -0.22    0.19
  -2  -2 -16   -0.04    0.16
  -2   2 -16   -0.36    0.14
  -3  -2 -16    1.18    0.35
  -3  -2 -16    0.77    0.32
  -3   2 -16    1.03    0.34
  14   3 -16    0.10    0.14
  13   3 -16    0.16    0.14
  12   3 -16    0.17    0.16
  11   3 -16    0.10    0.19
  11   3 -16    0.01    0.13
  10   3 -16    0.08    0.14
  10   3 -16    0.17    0.18
   9   3 -16    1.48    0.28
   9   3 -16    1.12    0.28
   9   3 -16    1.01    0.24
   8   3 -16    0.24    0.18
   8   3 -16    0.32    0.16
   8   3 -16    0.17    0.17
   7   3 -16    3.99    0.46
   7   3 -16    3.51    0.50
   7   3 -16    3.83    0.45
   6   3 -16   -0.01    0.12
   6   3 -16   -0.17    0.09
   6   3 -16   -0.05    0.13
   5  -3 -16    1.02    0.32
   5  -3 -16    0.90    0.15
   5   3 -16    0.98    0.28
   5   3 -16    1.10    0.19
   5   3 -16    0.90    0.23
   4  -3 -16   -0.03    0.17
   4  -3 -16    0.21    0.10
   4   3 -16   -0.04    0.11
   4   3 -16    0.08    0.15
   4   3 -16    0.01    0.08
   3  -3 -16    0.59    0.27
   3  -3 -16    0.53    0.17
   3   3 -16    0.33    0.21
   3   3 -16    0.44    0.17
   2  -3 -16    0.14    0.13
   2  -3 -16    0.34    0.23
   2   3 -16    0.08    0.17
   2   3 -16    0.28    0.16
   1  -3 -16    0.09    0.20
   1  -3 -16   -0.15    0.11
   1   3 -16    0.06    0.18
   1   3 -16    0.10    0.14
   0  -3 -16    6.43    0.83
   0  -3 -16    7.69    0.78
   0   3 -16    7.36    0.83
   0   3 -16    7.03    0.69
  -1  -3 -16    3.60    0.61
  -1  -3 -16    3.28    0.51
  -1   3 -16    2.86    0.51
  -2  -3 -16    2.77    0.50
  -2  -3 -16    3.24    0.57
  -2   3 -16    3.40    0.56
  -3  -3 -16    1.46    0.43
  -3  -3 -16    1.85    0.42
  -3   3 -16    2.40    0.47
  13   4 -16    3.90    0.46
  12   4 -16   -0.23    0.10
  11   4 -16    4.36    0.49
  10   4 -16    2.35    0.38
  10   4 -16    2.91    0.38
   9   4 -16   16.76    1.28
   9   4 -16   16.49    1.34
   8   4 -16    0.26    0.18
   8   4 -16    0.14    0.14
   7   4 -16    6.76    0.71
   7   4 -16    8.06    0.68
   6  -4 -16    2.51    0.24
   6   4 -16    2.89    0.42
   6   4 -16    2.93    0.40
   5  -4 -16    0.08    0.08
   5   4 -16    0.38    0.20
   5   4 -16    0.29    0.15
   4  -4 -16    0.24    0.13
   4   4 -16    0.49    0.21
   4   4 -16    0.27    0.16
   3  -4 -16   -0.12    0.09
   3   4 -16   -0.03    0.14
   3   4 -16    0.07    0.12
   2  -4 -16    0.08    0.14
   2   4 -16   -0.03    0.11
   2   4 -16    0.03    0.17
   1  -4 -16    0.39    0.18
   1   4 -16    0.54    0.24
   1   4 -16    0.69    0.21
   0  -4 -16    0.06    0.16
   0   4 -16   -0.10    0.13
   0   4 -16    0.07    0.20
  -1  -4 -16    0.47    0.23
  -1   4 -16    0.61    0.27
  -1   4 -16    0.51    0.20
  -2  -4 -16   -0.03    0.15
  -2   4 -16    0.24    0.22
  13   5 -16    0.39    0.18
  12   5 -16    0.59    0.20
  11   5 -16    0.22    0.17
  10   5 -16    2.11    0.32
  10   5 -16    1.09    0.28
   9   5 -16   12.98    1.11
   9   5 -16   14.05    1.08
   8   5 -16    0.05    0.14
   8   5 -16    0.22    0.18
   7   5 -16    2.30    0.39
   7   5 -16    2.61    0.37
   6  -5 -16    0.94    0.15
   6   5 -16    0.94    0.22
   6   5 -16    0.81    0.26
   5  -5 -16    1.58    0.23
   5   5 -16    2.04    0.32
   5   5 -16    2.18    0.38
   4  -5 -16    0.12    0.12
   4   5 -16   -0.02    0.11
   4   5 -16    0.17    0.19
   3  -5 -16    0.39    0.16
   3   5 -16    0.45    0.23
   3   5 -16    0.36    0.17
   2  -5 -16    0.14    0.15
   2   5 -16    0.14    0.15
   2   5 -16   -0.07    0.15
   1  -5 -16    5.66    0.69
   1   5 -16    6.15    0.75
   1   5 -16    8.29    0.69
   0  -5 -16    0.81    0.26
   0   5 -16    0.54    0.20
   0   5 -16    0.24    0.21
  -1  -5 -16    4.13    0.62
  -1   5 -16    5.04    0.68
  -1   5 -16    4.56    0.55
  -2   5 -16   -0.03    0.16
  12   6 -16    2.13    0.34
  11   6 -16    2.07    0.33
  10   6 -16    1.72    0.31
  10   6 -16    1.61    0.32
   9   6 -16    0.83    0.23
   9   6 -16    0.53    0.21
   8   6 -16   -0.02    0.16
   8   6 -16    0.24    0.16
   7   6 -16    4.08    0.54
   7   6 -16    4.81    0.54
   6  -6 -16    0.12    0.08
   6   6 -16   -0.01    0.12
   6   6 -16    0.25    0.19
   5  -6 -16    0.86    0.18
   5   6 -16    0.69    0.25
   5   6 -16    1.22    0.25
   4  -6 -16    0.53    0.16
   4   6 -16    0.32    0.22
   4   6 -16    0.66    0.20
   3  -6 -16   -0.01    0.12
   3   6 -16    0.28    0.21
   3   6 -16    0.14    0.14
   2  -6 -16    0.06    0.16
   2   6 -16    0.23    0.20
   2   6 -16   -0.10    0.11
   1  -6 -16   -0.05    0.15
   1   6 -16    0.29    0.22
   1   6 -16   -0.09    0.11
   0  -6 -16    0.39    0.22
   0   6 -16    0.26    0.18
   0   6 -16    0.16    0.21
  -1  -6 -16    0.39    0.23
  -1   6 -16    0.47    0.21
  -1   6 -16    0.31    0.21
  11   7 -16    0.39    0.19
  10   7 -16   -0.06    0.13
  10   7 -16   -0.13    0.14
   9   7 -16    0.10    0.16
   9   7 -16   -0.12    0.14
   8   7 -16    0.39    0.18
   8   7 -16    0.18    0.17
   7   7 -16    2.00    0.34
   7   7 -16    1.78    0.35
   6  -7 -16    0.68    0.15
   6   7 -16    0.76    0.24
   6   7 -16    0.57    0.20
   5  -7 -16    0.45    0.15
   5   7 -16    0.21    0.18
   5   7 -16    0.63    0.20
   4  -7 -16    0.31    0.16
   4   7 -16    0.36    0.21
   4   7 -16    0.33    0.18
   3  -7 -16    2.08    0.35
   3   7 -16    2.41    0.37
   3   7 -16    2.70    0.44
   2  -7 -16    0.68    0.23
   2   7 -16    0.73    0.23
   2   7 -16    1.14    0.31
   1  -7 -16    2.70    0.44
   1   7 -16    2.39    0.39
   1   7 -16    3.12    0.48
   0   7 -16    2.25    0.45
   9   8 -16    2.89    0.44
   9   8 -16    3.09    0.43
   8   8 -16    0.99    0.27
   8   8 -16    1.57    0.30
   7   8 -16    0.10    0.15
   7   8 -16   -0.19    0.15
   6  -8 -16    0.73    0.17
   6   8 -16    0.80    0.23
   6   8 -16    1.01    0.29
   5  -8 -16    0.11    0.11
   5   8 -16   -0.05    0.13
   5   8 -16   -0.28    0.14
   4  -8 -16    0.02    0.13
   4   8 -16    0.10    0.14
   4   8 -16    0.14    0.19
   3  -8 -16   -0.02    0.13
   3   8 -16   -0.04    0.17
   3   8 -16    0.30    0.16
   2  -8 -16   -0.03    0.14
   2   8 -16   -0.12    0.16
   2   8 -16    0.03    0.15
  13   0 -17    0.20    0.15
  12   0 -17   -0.05    0.12
  11   0 -17    1.55    0.34
  11   0 -17    1.64    0.29
  10   0 -17    0.03    0.19
  10   0 -17   -0.05    0.13
   9   0 -17   13.20    1.07
   9   0 -17   13.50    1.15
   8   0 -17   -0.05    0.13
   8   0 -17   -0.09    0.18
   7   0 -17   21.61    1.48
   7   0 -17   16.40    1.52
   6   0 -17    0.04    0.16
   6   0 -17    0.14    0.19
   5   0 -17    2.20    0.22
   5   0 -17    2.19    0.44
   5   0 -17    2.94    0.42
   4   0 -17   -0.05    0.17
   4   0 -17   -0.10    0.14
   3   0 -17    2.87    0.50
   2   0 -17   -0.07    0.18
   1   0 -17    2.20    0.44
   0   0 -17    0.27    0.22
  -1   0 -17    1.12    0.34
  -2   0 -17    0.26    0.22
  13   1 -17   -0.05    0.12
  12  -1 -17    0.13    0.14
  12   1 -17   -0.13    0.10
  11  -1 -17    1.49    0.28
  11   1 -17    1.54    0.28
  10  -1 -17    2.19    0.34
  10   1 -17    1.72    0.31
  10   1 -17    2.28    0.39
   9  -1 -17    1.69    0.31
   9  -1 -17    1.13    0.36
   9   1 -17    1.11    0.34
   9   1 -17    2.10    0.33
   8  -1 -17    0.10    0.17
   8  -1 -17    0.18    0.23
   8   1 -17    0.17    0.17
   8   1 -17    0.00    0.20
   8   1 -17    0.28    0.11
   7  -1 -17   -0.36    0.25
   7  -1 -17    0.42    0.20
   7   1 -17    0.42    0.19
   7   1 -17   -0.24    0.23
   7   1 -17    0.19    0.10
   6  -1 -17    0.17    0.22
   6  -1 -17   -0.02    0.15
   6   1 -17   -0.11    0.18
   6   1 -17    0.08    0.10
   6   1 -17    0.06    0.14
   5  -1 -17    1.67    0.21
   5  -1 -17    1.99    0.42
   5   1 -17    1.45    0.36
   5   1 -17    2.25    0.35
   5   1 -17    1.78    0.21
   4  -1 -17    0.09    0.20
   4  -1 -17   -0.01    0.09
   4   1 -17    0.03    0.07
   4   1 -17   -0.09    0.16
   4   1 -17   -0.16    0.13
   3  -1 -17   -0.03    0.10
   3  -1 -17   -0.27    0.17
   3   1 -17   -0.08    0.13
   3   1 -17   -0.30    0.15
   2  -1 -17    0.09    0.22
   2   1 -17    0.28    0.18
   2   1 -17    0.48    0.25
   1  -1 -17    0.54    0.29
   1   1 -17    0.71    0.29
   0  -1 -17   -0.01    0.18
   0  -1 -17   -0.05    0.14
   0   1 -17   -0.08    0.17
  -1  -1 -17    0.44    0.29
  -1  -1 -17    0.94    0.27
  -1   1 -17    0.47    0.27
  -2  -1 -17   -0.03    0.20
  -2   1 -17    0.19    0.22
  13   2 -17    0.07    0.12
  12   2 -17    0.97    0.22
  11  -2 -17    5.35    0.55
  11   2 -17    4.57    0.53
  10  -2 -17    1.46    0.29
  10   2 -17    1.97    0.31
  10   2 -17    1.74    0.35
  10   2 -17    1.39    0.27
   9  -2 -17   12.57    0.98
   9   2 -17   11.46    0.99
   9   2 -17   10.89    1.01
   9   2 -17   11.61    0.95
   8  -2 -17    4.52    0.52
   8   2 -17    3.68    0.53
   8   2 -17    3.77    0.43
   8   2 -17    4.35    0.50
   7  -2 -17   15.94    1.33
   7   2 -17   13.39    1.25
   7   2 -17   15.26    1.24
   7   2 -17   15.59    1.20
   6  -2 -17    2.47    0.46
   6   2 -17    2.57    0.32
   6   2 -17    2.64    0.39
   6   2 -17    2.33    0.43
   5  -2 -17    3.24    0.34
   5  -2 -17    3.52    0.56
   5   2 -17    4.59    0.51
   5   2 -17    3.81    0.36
   5   2 -17    3.32    0.53
   4  -2 -17    1.71    0.40
   4  -2 -17    1.74    0.25
   4   2 -17    1.33    0.33
   4   2 -17    1.84    0.32
   4   2 -17    1.80    0.22
   3  -2 -17    0.57    0.18
   3  -2 -17    1.00    0.32
   3   2 -17    0.85    0.29
   3   2 -17    0.96    0.25
   2  -2 -17    0.26    0.14
   2  -2 -17   -0.08    0.20
   2   2 -17    0.18    0.20
   2   2 -17    0.09    0.16
   1  -2 -17    0.94    0.25
   1  -2 -17    0.77    0.32
   1   2 -17    1.16    0.28
   1   2 -17    2.22    0.43
   0  -2 -17   -0.17    0.18
   0  -2 -17    0.07    0.15
   0   2 -17    0.50    0.26
  -1  -2 -17    2.10    0.49
  -1  -2 -17    1.47    0.34
  -1   2 -17    2.05    0.46
  13   3 -17    2.02    0.32
  12   3 -17    0.87    0.23
  11   3 -17    2.25    0.33
  10   3 -17    4.73    0.52
  10   3 -17    4.96    0.58
   9   3 -17    0.10    0.13
   9   3 -17   -0.01    0.15
   9   3 -17   -0.11    0.15
   8   3 -17    2.58    0.43
   8   3 -17    2.33    0.37
   8   3 -17    2.71    0.38
   7   3 -17   -0.06    0.14
   7   3 -17    0.00    0.18
   7   3 -17   -0.04    0.12
   6   3 -17   -0.06    0.11
   6   3 -17   -0.05    0.12
   6   3 -17   -0.05    0.16
   5  -3 -17    0.87    0.15
   5  -3 -17    1.24    0.35
   5   3 -17    1.27    0.26
   5   3 -17    1.01    0.29
   4  -3 -17    0.43    0.15
   4  -3 -17    1.06    0.35
   4   3 -17    0.45    0.24
   4   3 -17    0.85    0.23
   3  -3 -17    0.10    0.21
   3  -3 -17    0.06    0.12
   3   3 -17    0.33    0.17
   3   3 -17    0.12    0.20
   2  -3 -17    0.05    0.12
   2  -3 -17    0.09    0.21
   2   3 -17    0.01    0.14
   2   3 -17    0.14    0.18
   1  -3 -17    0.03    0.20
   1  -3 -17   -0.03    0.13
   1   3 -17    0.06    0.14
   1   3 -17   -0.03    0.17
   0  -3 -17    2.04    0.46
   0  -3 -17    1.33    0.32
   0   3 -17    1.33    0.35
   0   3 -17    1.11    0.28
  -1  -3 -17    1.88    0.39
  -1  -3 -17    2.20    0.48
  -1   3 -17    1.93    0.45
  12   4 -17    0.05    0.14
  11   4 -17    0.33    0.18
  10   4 -17    2.68    0.38
  10   4 -17    2.73    0.42
   9   4 -17   -0.05    0.13
   9   4 -17    0.00    0.17
   8   4 -17    0.85    0.27
   8   4 -17    0.93    0.24
   7   4 -17    5.62    0.67
   7   4 -17    6.32    0.60
   6  -4 -17    0.09    0.05
   6   4 -17    0.08    0.13
   6   4 -17    0.17    0.19
   5  -4 -17    0.53    0.13
   5   4 -17    0.66    0.21
   5   4 -17    0.35    0.21
   4  -4 -17    3.88    0.47
   4   4 -17    6.16    0.56
   4   4 -17    5.67    0.68
   3  -4 -17    0.20    0.14
   3   4 -17    0.48    0.19
   3   4 -17    0.41    0.23
   2  -4 -17    0.00    0.13
   2   4 -17    0.01    0.19
   2   4 -17    0.04    0.14
   1  -4 -17    1.12    0.28
   1   4 -17    1.08    0.33
   1   4 -17    1.35    0.30
   0  -4 -17    2.90    0.48
   0   4 -17    3.42    0.47
   0   4 -17    4.17    0.62
  12   5 -17    1.52    0.29
  11   5 -17    0.08    0.15
  10   5 -17    3.42    0.48
  10   5 -17    3.80    0.46
   9   5 -17    0.66    0.21
   9   5 -17    0.74    0.25
   8   5 -17    8.30    0.75
   8   5 -17    6.74    0.68
   7   5 -17   -0.08    0.16
   7   5 -17    0.21    0.16
   6  -5 -17    0.26    0.09
   6   5 -17    0.36    0.22
   6   5 -17    0.14    0.15
   5  -5 -17    0.18    0.11
   5   5 -17    0.04    0.17
   5   5 -17    0.30    0.17
   4  -5 -17    0.14    0.12
   4   5 -17    0.18    0.19
   4   5 -17    0.10    0.14
   3  -5 -17    0.04    0.13
   3   5 -17    0.10    0.16
   3   5 -17    0.13    0.14
   2  -5 -17    2.12    0.39
   2   5 -17    3.22    0.45
   2   5 -17    3.21    0.51
   1  -5 -17    0.04    0.17
   1   5 -17    0.24    0.22
   1   5 -17    0.24    0.18
   0  -5 -17   -0.10    0.15
   0   5 -17   -0.06    0.20
   0   5 -17    0.05    0.15
  11   6 -17   -0.09    0.14
  10   6 -17    2.27    0.39
  10   6 -17    2.63    0.39
   9   6 -17    2.23    0.39
   9   6 -17    2.48    0.37
   8   6 -17    2.82    0.41
   8   6 -17    3.13    0.46
   7   6 -17    1.35    0.28
   7   6 -17    1.51    0.34
   6  -6 -17    3.43    0.35
   6   6 -17    3.20    0.49
   6   6 -17    3.49    0.45
   5  -6 -17    0.12    0.11
   5   6 -17    0.33    0.21
   5   6 -17    0.18    0.15
   4  -6 -17    2.77    0.37
   4   6 -17    2.85    0.47
   4   6 -17    2.46    0.38
   3  -6 -17    0.43    0.18
   3   6 -17    0.61    0.21
   3   6 -17    0.52    0.25
   2  -6 -17   -0.08    0.14
   2   6 -17    0.12    0.15
   2   6 -17   -0.15    0.15
   1  -6 -17    0.13    0.17
   1   6 -17    0.90    0.25
   1   6 -17    0.48    0.23
   9   7 -17    0.45    0.22
   9   7 -17    0.23    0.18
   8   7 -17    0.20    0.19
   8   7 -17    0.22    0.18
   7   7 -17   -0.10    0.16
   7   7 -17   -0.18    0.12
   6  -7 -17    0.01    0.08
   6   7 -17   -0.37    0.14
   6   7 -17    0.04    0.15
   5  -7 -17    0.01    0.10
   5   7 -17    0.11    0.15
   5   7 -17   -0.10    0.16
   4  -7 -17    0.22    0.15
   4   7 -17    0.77    0.22
   4   7 -17    0.27    0.21
   3  -7 -17    0.22    0.17
   3   7 -17    0.14    0.16
   3   7 -17    0.09    0.21
  12   0 -18    3.68    0.46
  11   0 -18   -0.08    0.13
  10   0 -18    2.46    0.36
  10   0 -18    1.62    0.39
   9   0 -18   -0.08    0.17
   9   0 -18    0.03    0.15
   8   0 -18    1.91    0.42
   8   0 -18    2.17    0.35
   7   0 -18   -0.20    0.21
   7   0 -18   -0.22    0.13
   6   0 -18    4.36    0.67
   6   0 -18    6.42    0.66
   5   0 -18   -0.03    0.06
   5   0 -18    0.09    0.17
   5   0 -18   -0.02    0.20
   4   0 -18    2.39    0.46
   3   0 -18    0.17    0.22
   2   0 -18    0.05    0.21
   1   0 -18   -0.04    0.21
   0   0 -18    1.46    0.42
  12  -1 -18    0.14    0.15
  12   1 -18    0.06    0.14
  11  -1 -18   -0.03    0.14
  11   1 -18   -0.09    0.12
  10  -1 -18    4.08    0.49
  10   1 -18    4.20    0.49
  10   1 -18    3.04    0.49
   9  -1 -18   -0.16    0.14
   9  -1 -18    0.08    0.19
   9   1 -18    0.09    0.16
   9   1 -18    0.22    0.20
   8  -1 -18    6.18    0.68
   8  -1 -18    5.16    0.72
   8   1 -18    7.32    0.65
   8   1 -18    6.07    0.74
   7  -1 -18    2.45    0.46
   7  -1 -18    2.56    0.39
   7   1 -18    2.52    0.39
   7   1 -18    2.33    0.44
   7   1 -18    1.92    0.25
   6  -1 -18    7.21    0.83
   6  -1 -18    6.08    0.69
   6   1 -18    7.15    0.82
   6   1 -18    6.20    0.57
   6   1 -18    7.46    0.68
   5  -1 -18    0.45    0.13
   5  -1 -18    0.53    0.27
   5   1 -18    0.58    0.27
   5   1 -18    0.54    0.12
   5   1 -18    0.49    0.21
   4  -1 -18    0.42    0.14
   4  -1 -18    0.39    0.29
   4   1 -18    0.65    0.29
   4   1 -18    0.29    0.19
   3  -1 -18    0.49    0.28
   3  -1 -18    0.71    0.19
   3   1 -18    0.75    0.29
   3   1 -18    0.55    0.23
   2  -1 -18   -0.06    0.11
   2  -1 -18   -0.05    0.20
   2   1 -18   -0.13    0.17
   1  -1 -18    0.49    0.29
   1  -1 -18    1.01    0.26
   1   1 -18    1.31    0.36
   0  -1 -18    1.17    0.30
   0  -1 -18    1.36    0.41
   0   1 -18    0.55    0.31
  12   2 -18    0.07    0.14
  11  -2 -18    0.01    0.15
  11   2 -18   -0.03    0.13
  10  -2 -18   -0.27    0.13
  10   2 -18   -0.10    0.17
  10   2 -18    0.14    0.15
  10   2 -18    0.04    0.13
   9   2 -18    0.24    0.18
   9   2 -18    0.26    0.15
   9   2 -18    0.13    0.19
   8   2 -18    0.73    0.20
   8   2 -18    1.14    0.32
   8   2 -18    0.94    0.25
   7  -2 -18   -0.01    0.21
   7   2 -18    0.02    0.12
   7   2 -18    0.17    0.21
   7   2 -18    0.01    0.14
   6  -2 -18    1.55    0.41
   6   2 -18    1.36    0.23
   6   2 -18    1.39    0.37
   6   2 -18    1.73    0.31
   5  -2 -18   -0.23    0.18
   5   2 -18   -0.23    0.17
   5   2 -18    0.00    0.16
   4  -2 -18    2.24    0.49
   4  -2 -18    2.35    0.31
   4   2 -18    3.27    0.43
   4   2 -18    2.36    0.45
   3  -2 -18    1.03    0.23
   3  -2 -18    1.29    0.38
   3   2 -18    1.36    0.30
   3   2 -18    1.08    0.31
   2  -2 -18    0.02    0.21
   2  -2 -18   -0.03    0.13
   2   2 -18    0.36    0.20
   2   2 -18    0.11    0.20
   1  -2 -18   -0.14    0.19
   1  -2 -18   -0.06    0.13
   1   2 -18    0.53    0.27
   0  -2 -18    2.40    0.51
   0   2 -18    1.90    0.47
  12   3 -18    0.98    0.24
  11   3 -18    0.15    0.16
  10   3 -18    0.70    0.22
  10   3 -18    1.09    0.29
   9   3 -18    3.47    0.46
   9   3 -18    3.46    0.50
   8   3 -18    0.97    0.24
   8   3 -18    0.50    0.24
   7   3 -18    4.18    0.56
   7   3 -18    3.70    0.49
   6   3 -18    0.56    0.21
   6   3 -18    0.15    0.20
   5  -3 -18    3.65    0.37
   5   3 -18    5.44    0.58
   5   3 -18    3.49    0.54
   4  -3 -18    0.13    0.12
   4  -3 -18    0.02    0.20
   4   3 -18    0.18    0.20
   4   3 -18    0.05    0.15
   3  -3 -18    2.31    0.46
   3  -3 -18    2.19    0.33
   3   3 -18    2.21    0.43
   3   3 -18    1.57    0.33
   2  -3 -18    0.16    0.24
   2  -3 -18    0.19    0.15
   2   3 -18    0.05    0.16
   2   3 -18   -0.09    0.17
   1  -3 -18    0.97    0.35
   1  -3 -18    0.70    0.24
   1   3 -18    0.84    0.30
   1   3 -18    1.18    0.30
  11   4 -18    0.15    0.15
  10   4 -18    0.05    0.15
  10   4 -18    0.16    0.18
   9   4 -18    0.15    0.20
   9   4 -18   -0.02    0.14
   8   4 -18   -0.02    0.17
   8   4 -18   -0.07    0.12
   7   4 -18    0.71    0.28
   7   4 -18    0.40    0.20
   6   4 -18    1.72    0.37
   6   4 -18    1.56    0.31
   5  -4 -18    0.83    0.16
   5   4 -18    0.80    0.28
   5   4 -18    0.95    0.26
   4  -4 -18    0.25    0.14
   4   4 -18    0.31    0.18
   4   4 -18    0.48    0.24
   3  -4 -18    0.39    0.17
   3   4 -18    0.61    0.23
   3   4 -18    0.35    0.22
   2  -4 -18    0.63    0.21
   2   4 -18    0.90    0.27
   2   4 -18    0.34    0.23
  10   5 -18    0.57    0.21
  10   5 -18    0.49    0.23
   9   5 -18    6.77    0.73
   9   5 -18    7.90    0.71
   8   5 -18   -0.06    0.18
   8   5 -18    0.25    0.18
   7   5 -18    5.52    0.69
   7   5 -18    6.57    0.64
   6  -5 -18    0.41    0.10
   6   5 -18    0.39    0.20
   6   5 -18    0.43    0.24
   5  -5 -18    1.20    0.21
   5   5 -18    1.88    0.39
   5   5 -18    1.78    0.33
   4  -5 -18    0.03    0.12
   4   5 -18    0.39    0.23
   4   5 -18    0.13    0.15
   3  -5 -18    3.25    0.45
   3   5 -18    3.40    0.55
   3   5 -18    3.81    0.50
   8   6 -18   -0.03    0.13
   8   6 -18    0.15    0.20
   7   6 -18    0.00    0.14
   7   6 -18    0.20    0.19
   6  -6 -18    0.03    0.07
   6   6 -18    0.18    0.20
   6   6 -18    0.04    0.14
   5  -6 -18    1.36    0.23
   5   6 -18    1.72    0.38
   5   6 -18    1.80    0.34
   4   6 -18    0.02    0.18
  11   0 -19    0.59    0.22
  10   0 -19    0.10    0.21
  10   0 -19   -0.05    0.15
   9   0 -19    0.31    0.19
   9   0 -19   -0.28    0.19
   8   0 -19   -0.11    0.19
   8   0 -19   -0.16    0.16
   7   0 -19    0.21    0.20
   7   0 -19   -0.37    0.26
   6   0 -19   -0.07    0.19
   6   0 -19   -0.13    0.16
   5   0 -19    8.84    0.80
   5   0 -19    8.02    0.94
   5   0 -19    7.79    0.65
   4   0 -19    0.02    0.21
   3   0 -19    0.15    0.24
   2   0 -19    0.03    0.21
  11  -1 -19    0.56    0.22
  11   1 -19    0.32    0.19
  10  -1 -19    0.00    0.16
  10   1 -19   -0.01    0.15
  10   1 -19   -0.08    0.18
   9  -1 -19    1.53    0.41
   9  -1 -19    3.00    0.44
   9   1 -19    3.13    0.49
   9   1 -19    2.86    0.42
   8  -1 -19    0.88    0.27
   8  -1 -19    0.43    0.29
   8   1 -19    0.98    0.27
   8   1 -19    1.11    0.32
   7  -1 -19   12.15    1.10
   7   1 -19   10.25    1.05
   7   1 -19   13.02    1.02
   7   1 -19   10.86    0.91
   6  -1 -19    0.71    0.31
   6   1 -19    1.10    0.18
   6   1 -19    1.29    0.31
   6   1 -19    1.53    0.37
   5  -1 -19    1.79    0.26
   5  -1 -19    2.68    0.53
   5  -1 -19    2.26    0.22
   5   1 -19    2.59    0.49
   5   1 -19    3.08    0.46
   4  -1 -19    0.71    0.18
   4  -1 -19    0.52    0.29
   4   1 -19    0.39    0.27
   4   1 -19    0.21    0.20
   3  -1 -19    1.84    0.31
   3  -1 -19    2.47    0.51
   3   1 -19    2.02    0.46
  10   2 -19    0.41    0.20
  10   2 -19    0.66    0.17
  10   2 -19   -0.09    0.19
   9   2 -19    0.28    0.23
   9   2 -19    0.70    0.18
   9   2 -19    0.61    0.22
   8   2 -19   -0.14    0.19
   8   2 -19    0.04    0.17
   8   2 -19    0.19    0.14
   7  -2 -19    0.21    0.29
   7   2 -19   -0.17    0.12
   7   2 -19   -0.21    0.19
   7   2 -19    0.01    0.15
   6  -2 -19    0.28    0.26
   6   2 -19   -0.09    0.18
   6   2 -19    0.19    0.18
   5  -2 -19    0.06    0.09
   5  -2 -19    0.02    0.24
   5   2 -19    0.04    0.16
   5   2 -19   -0.38    0.17
   4  -2 -19    0.08    0.12
   4  -2 -19    0.04    0.21
   4   2 -19    0.05    0.20
   4   2 -19    0.42    0.21
   3  -2 -19    0.84    0.22
   3  -2 -19    0.77    0.34
   3   2 -19    0.67    0.26
   3   2 -19    1.08    0.36
  10   3 -19   -0.33    0.16
  10   3 -19    0.12    0.17
   9   3 -19    0.40    0.22
   9   3 -19    0.15    0.17
   8   3 -19    1.25    0.29
   8   3 -19    0.61    0.27
   7   3 -19    0.46    0.21
   7   3 -19    0.23    0.23
   6   3 -19    1.77    0.34
   6   3 -19    0.83    0.31
   5  -3 -19    1.57    0.21
   5   3 -19    1.55    0.37
   5   3 -19    1.88    0.36
   4  -3 -19    0.96    0.37
   4  -3 -19    0.81    0.19
   4   3 -19    1.43    0.32
   4   3 -19    1.24    0.34
   9   4 -19    0.85    0.28
   8   4 -19    0.41    0.21
   8   4 -19    0.23    0.22
   7   4 -19    0.09    0.20
   7   4 -19    0.04    0.15
   6   4 -19   -0.17    0.18
   6   4 -19   -0.11    0.12
   5  -4 -19    0.05    0.08
   5   4 -19    0.01    0.16
   5   4 -19   -0.09    0.18
   0   0   0    0.00    0.00
;
_shelx_hkl_checksum              53006
#END Tags that were not found in dictionaries
loop_
_space_group_symop_operation_xyz
'x, y, z'
'-x+1/2, y+1/2, -z+1/2'
'-x, -y, -z'
'x-1/2, -y-1/2, z-1/2'
loop_
_atom_site_label
_atom_site_type_symbol
_atom_site_fract_x
_atom_site_fract_y
_atom_site_fract_z
_atom_site_U_iso_or_equiv
_atom_site_adp_type
_atom_site_occupancy
_atom_site_site_symmetry_order
_atom_site_calc_flag
_atom_site_refinement_flags_posn
_atom_site_refinement_flags_adp
_atom_site_refinement_flags_occupancy
_atom_site_disorder_assembly
_atom_site_disorder_group
S1 S 0.72190(5) 0.69600(4) 0.17296(4) 0.02782(19) Uani 1 1 d . . . . .
S2 S 0.80394(5) 0.70087(5) 0.03771(4) 0.0302(2) Uani 1 1 d . . . . .
N1 N 0.72483(15) 0.64547(15) 0.08005(13) 0.0281(5) Uani 1 1 d . . . . .
O1 O 0.82445(13) 0.73499(14) 0.22607(11) 0.0337(4) Uani 1 1 d . . . . .
O2 O 0.67760(14) 0.61095(13) 0.20577(12) 0.0354(4) Uani 1 1 d . . . . .
O3 O 0.80147(15) 0.81592(13) 0.04827(13) 0.0396(5) Uani 1 1 d . . . . .
O4 O 0.77079(14) 0.65298(15) -0.04815(12) 0.0370(4) Uani 1 1 d . . . . .
C1 C 0.5008(2) 0.6178(2) -0.1188(2) 0.0454(7) Uani 1 1 d . . . . .
H1 H 0.4456 0.6400 -0.1706 0.054 Uiso 1 1 calc R U . . .
C2 C 0.5707(2) 0.58957(19) -0.05306(18) 0.0328(6) Uani 1 1 d . . . . .
C3 C 0.65063(19) 0.55426(18) 0.03204(17) 0.0310(6) Uani 1 1 d . . . . .
H3 H 0.6133 0.5373 0.0688 0.037 Uiso 1 1 calc R U . . .
C4 C 0.71004(19) 0.45141(18) 0.03222(17) 0.0300(5) Uani 1 1 d . . . . .
C5 C 0.7684(2) 0.4021(2) 0.11297(18) 0.0392(6) Uani 1 1 d . . . . .
H5 H 0.7686 0.4316 0.1647 0.047 Uiso 1 1 calc R U . . .
C6 C 0.8263(2) 0.3096(2) 0.11770(19) 0.0414(7) Uani 1 1 d . . . . .
H6 H 0.8652 0.2783 0.1727 0.050 Uiso 1 1 calc R U . . .
C7 C 0.8275(2) 0.26210(19) 0.04147(19) 0.0370(6) Uani 1 1 d . . . . .
C8 C 0.7670(2) 0.3108(2) -0.0391(2) 0.0404(7) Uani 1 1 d . . . . .
H8 H 0.7651 0.2803 -0.0910 0.048 Uiso 1 1 calc R U . . .
C9 C 0.7084(2) 0.40505(19) -0.04409(18) 0.0351(6) Uani 1 1 d . . . . .
H9 H 0.6684 0.4362 -0.0989 0.042 Uiso 1 1 calc R U . . .
C10 C 0.8967(2) 0.1628(2) 0.0495(2) 0.0464(7) Uani 1 1 d D U . . .
C11 C 0.8757(5) 0.0757(4) 0.1049(4) 0.0613(14) Uani 0.7 1 d D U P A 1
H11A H 0.9116 0.0100 0.1030 0.092 Uiso 0.7 1 calc R U P A 1
H11B H 0.8024 0.0617 0.0815 0.092 Uiso 0.7 1 calc R U P A 1
H11C H 0.9000 0.1003 0.1651 0.092 Uiso 0.7 1 calc R U P A 1
C12 C 0.8666(5) 0.1116(4) -0.0442(3) 0.0506(12) Uani 0.7 1 d D U P A 1
H12A H 0.8836 0.1616 -0.0807 0.076 Uiso 0.7 1 calc R U P A 1
H12B H 0.7932 0.0968 -0.0711 0.076 Uiso 0.7 1 calc R U P A 1
H12C H 0.9043 0.0448 -0.0384 0.076 Uiso 0.7 1 calc R U P A 1
C13 C 1.0074(4) 0.1999(6) 0.0853(4) 0.0542(14) Uani 0.7 1 d D U P A 1
H13A H 1.0291 0.2233 0.1456 0.081 Uiso 0.7 1 calc R U P A 1
H13B H 1.0134 0.2595 0.0502 0.081 Uiso 0.7 1 calc R U P A 1
H13C H 1.0507 0.1408 0.0831 0.081 Uiso 0.7 1 calc R U P A 1
C11' C 0.9287(10) 0.0979(10) 0.1398(6) 0.064(3) Uani 0.3 1 d D U P A 2
H11D H 0.8673 0.0795 0.1480 0.095 Uiso 0.3 1 calc R U P A 2
H11E H 0.9733 0.1425 0.1882 0.095 Uiso 0.3 1 calc R U P A 2
H11F H 0.9647 0.0324 0.1377 0.095 Uiso 0.3 1 calc R U P A 2
C12' C 0.8529(13) 0.0800(11) -0.0245(7) 0.080(4) Uani 0.3 1 d D U P A 2
H12D H 0.7784 0.0849 -0.0513 0.120 Uiso 0.3 1 calc R U P A 2
H12E H 0.8734 0.0081 -0.0008 0.120 Uiso 0.3 1 calc R U P A 2
H12F H 0.8792 0.0945 -0.0683 0.120 Uiso 0.3 1 calc R U P A 2
C13' C 0.9996(10) 0.2084(15) 0.0530(9) 0.052(3) Uani 0.3 1 d D U P A 2
H13D H 1.0432 0.1492 0.0514 0.078 Uiso 0.3 1 calc R U P A 2
H13E H 1.0342 0.2491 0.1067 0.078 Uiso 0.3 1 calc R U P A 2
H13F H 0.9855 0.2552 0.0029 0.078 Uiso 0.3 1 calc R U P A 2
C14 C 0.6355(2) 0.80644(18) 0.14267(16) 0.0286(5) Uani 1 1 d . . . . .
C15 C 0.5299(2) 0.7874(2) 0.11164(18) 0.0366(6) Uani 1 1 d . . . . .
H15 H 0.5043 0.7166 0.1039 0.044 Uiso 1 1 calc R U . . .
C16 C 0.4629(2) 0.8758(2) 0.09225(19) 0.0394(6) Uani 1 1 d . . . . .
H16 H 0.3917 0.8632 0.0702 0.047 Uiso 1 1 calc R U . . .
C17 C 0.4993(2) 0.9826(2) 0.10487(17) 0.0354(6) Uani 1 1 d . . . . .
C18 C 0.6062(2) 0.9989(2) 0.13519(17) 0.0362(6) Uani 1 1 d . . . . .
H18 H 0.6319 1.0697 0.1426 0.043 Uiso 1 1 calc R U . . .
C19 C 0.6748(2) 0.91240(19) 0.15455(16) 0.0320(6) Uani 1 1 d . . . . .
H19 H 0.7459 0.9246 0.1751 0.038 Uiso 1 1 calc R U . . .
C20 C 0.4270(2) 1.0780(2) 0.0866(2) 0.0471(7) Uani 1 1 d . . . . .
H20A H 0.4436 1.1184 0.1404 0.071 Uiso 1 1 calc R U . . .
H20B H 0.3566 1.0523 0.0648 0.071 Uiso 1 1 calc R U . . .
H20C H 0.4346 1.1243 0.0430 0.071 Uiso 1 1 calc R U . . .
C21 C 0.9307(2) 0.6550(2) 0.10425(18) 0.0341(6) Uani 1 1 d . . . . .
C22 C 0.9998(2) 0.7237(2) 0.16843(19) 0.0427(7) Uani 1 1 d . . . . .
H22 H 0.9785 0.7920 0.1787 0.051 Uiso 1 1 calc R U . . .
C23 C 1.1009(2) 0.6885(3) 0.2168(2) 0.0547(9) Uani 1 1 d . . . . .
H23 H 1.1471 0.7337 0.2604 0.066 Uiso 1 1 calc R U . . .
C24 C 1.1349(2) 0.5884(3) 0.2019(2) 0.0577(9) Uani 1 1 d . . . . .
C25 C 1.0650(3) 0.5219(3) 0.1374(3) 0.0572(9) Uani 1 1 d . . . . .
H25 H 1.0871 0.4542 0.1267 0.069 Uiso 1 1 calc R U . . .
C26 C 0.9620(2) 0.5533(2) 0.0879(2) 0.0438(7) Uani 1 1 d . . . . .
H26 H 0.9155 0.5073 0.0451 0.053 Uiso 1 1 calc R U . . .
C27 C 1.2459(3) 0.5530(4) 0.2544(3) 0.0920(15) Uani 1 1 d . . . . .
H27A H 1.2529 0.4773 0.2434 0.138 Uiso 1 1 calc R U . . .
H27B H 1.2644 0.5639 0.3165 0.138 Uiso 1 1 calc R U . . .
H27C H 1.2911 0.5955 0.2367 0.138 Uiso 1 1 calc R U . . .
loop_
_atom_site_aniso_label
_atom_site_aniso_U_11
_atom_site_aniso_U_22
_atom_site_aniso_U_33
_atom_site_aniso_U_23
_atom_site_aniso_U_13
_atom_site_aniso_U_12
S1 0.0279(4) 0.0253(3) 0.0325(4) 0.0003(2) 0.0149(3) 0.0000(2)
S2 0.0291(4) 0.0287(3) 0.0368(4) 0.0019(2) 0.0176(3) 0.0001(2)
N1 0.0255(11) 0.0260(10) 0.0363(12) -0.0031(8) 0.0165(10) -0.0025(8)
O1 0.0284(10) 0.0355(9) 0.0348(10) -0.0025(7) 0.0106(8) -0.0013(7)
O2 0.0397(11) 0.0294(9) 0.0432(10) 0.0056(7) 0.0232(9) 0.0006(8)
O3 0.0423(12) 0.0305(9) 0.0532(12) 0.0058(8) 0.0270(10) -0.0013(8)
O4 0.0339(10) 0.0436(10) 0.0381(10) 0.0002(8) 0.0195(9) -0.0004(8)
C1 0.0323(16) 0.0482(16) 0.0474(17) 0.0091(13) 0.0084(15) -0.0035(13)
C2 0.0305(15) 0.0297(12) 0.0419(15) 0.0019(11) 0.0187(14) -0.0028(11)
C3 0.0302(14) 0.0279(12) 0.0354(14) -0.0028(10) 0.0142(12) -0.0022(10)
C4 0.0284(14) 0.0255(11) 0.0399(14) -0.0012(10) 0.0181(12) -0.0017(10)
C5 0.0473(17) 0.0367(14) 0.0385(15) 0.0003(11) 0.0227(14) 0.0104(12)
C6 0.0496(18) 0.0367(14) 0.0422(16) 0.0051(11) 0.0235(15) 0.0125(12)
C7 0.0422(16) 0.0227(11) 0.0591(18) -0.0027(11) 0.0340(15) -0.0030(11)
C8 0.0544(19) 0.0306(13) 0.0493(17) -0.0060(11) 0.0347(15) -0.0035(12)
C9 0.0438(16) 0.0287(12) 0.0363(14) -0.0022(10) 0.0201(13) -0.0045(11)
C10 0.0590(17) 0.0270(12) 0.0729(19) 0.0011(12) 0.0471(16) 0.0043(12)
C11 0.090(4) 0.028(2) 0.087(3) 0.008(2) 0.057(3) 0.010(2)
C12 0.062(3) 0.030(3) 0.078(3) -0.007(2) 0.047(2) 0.003(2)
C13 0.052(3) 0.039(3) 0.072(4) 0.007(3) 0.027(3) 0.016(2)
C11' 0.081(6) 0.039(5) 0.097(5) 0.022(4) 0.064(5) 0.018(5)
C12' 0.078(6) 0.042(6) 0.104(5) -0.019(5) 0.022(6) 0.008(5)
C13' 0.052(4) 0.040(5) 0.079(6) 0.017(5) 0.042(5) 0.011(4)
C14 0.0316(14) 0.0270(12) 0.0304(13) -0.0014(9) 0.0162(12) 0.0007(10)
C15 0.0354(15) 0.0314(13) 0.0479(16) -0.0014(11) 0.0222(14) -0.0026(11)
C16 0.0291(14) 0.0426(14) 0.0500(17) -0.0002(12) 0.0198(14) 0.0036(11)
C17 0.0437(17) 0.0368(13) 0.0305(13) 0.0014(11) 0.0202(13) 0.0101(12)
C18 0.0479(17) 0.0270(12) 0.0348(14) -0.0043(10) 0.0184(13) 0.0010(11)
C19 0.0359(15) 0.0285(12) 0.0336(13) -0.0035(10) 0.0165(12) -0.0025(11)
C20 0.056(2) 0.0429(15) 0.0486(17) 0.0005(13) 0.0275(16) 0.0181(14)
C21 0.0274(14) 0.0399(13) 0.0382(14) 0.0054(11) 0.0168(12) -0.0021(11)
C22 0.0350(16) 0.0535(16) 0.0457(16) 0.0005(13) 0.0228(14) -0.0088(13)
C23 0.0368(18) 0.087(3) 0.0431(18) 0.0057(16) 0.0193(15) -0.0185(17)
C24 0.0300(17) 0.089(3) 0.056(2) 0.0291(18) 0.0196(16) 0.0067(17)
C25 0.0376(18) 0.0596(19) 0.079(2) 0.0222(18) 0.0293(19) 0.0139(15)
C26 0.0319(16) 0.0439(15) 0.0573(18) 0.0075(14) 0.0203(15) 0.0049(12)
C27 0.037(2) 0.152(4) 0.080(3) 0.048(3) 0.017(2) 0.018(2)
loop_
_atom_type_symbol
_atom_type_description
_atom_type_scat_dispersion_real
_atom_type_scat_dispersion_imag
_atom_type_scat_source
C C 0.0033 0.0016 'International Tables Vol C Tables 4.2.6.8 and 6.1.1.4'
H H 0.0000 0.0000 'International Tables Vol C Tables 4.2.6.8 and 6.1.1.4'
N N 0.0061 0.0033 'International Tables Vol C Tables 4.2.6.8 and 6.1.1.4'
O O 0.0106 0.0060 'International Tables Vol C Tables 4.2.6.8 and 6.1.1.4'
S S 0.1246 0.1234 'International Tables Vol C Tables 4.2.6.8 and 6.1.1.4'
loop_
_geom_angle_atom_site_label_1
_geom_angle_atom_site_label_2
_geom_angle_atom_site_label_3
_geom_angle
O1 S1 O2 120.02(11)
O1 S1 N1 106.44(10)
O2 S1 N1 105.14(10)
O1 S1 C14 108.99(11)
O2 S1 C14 107.97(11)
N1 S1 C14 107.65(11)
O3 S2 O4 121.05(11)
O3 S2 N1 107.04(10)
O4 S2 N1 104.45(10)
O3 S2 C21 108.05(12)
O4 S2 C21 108.65(12)
N1 S2 C21 106.76(11)
C3 N1 S1 118.66(15)
C3 N1 S2 120.80(15)
S1 N1 S2 120.43(12)
C1 C2 C3 174.8(3)
C2 C3 N1 112.18(19)
C2 C3 C4 117.1(2)
N1 C3 C4 110.61(19)
C9 C4 C5 118.9(2)
C9 C4 C3 123.0(2)
C5 C4 C3 118.2(2)
C6 C5 C4 120.9(2)
C5 C6 C7 121.4(3)
C8 C7 C6 117.2(2)
C8 C7 C10 122.8(2)
C6 C7 C10 120.0(3)
C7 C8 C9 121.6(2)
C4 C9 C8 120.0(2)
C13 C10 C11 114.2(4)
C13 C10 C7 108.5(4)
C12' C10 C7 115.6(7)
C11 C10 C7 109.5(3)
C12' C10 C13' 109.6(7)
C7 C10 C13' 105.9(8)
C13 C10 C12 109.0(4)
C11 C10 C12 106.1(3)
C7 C10 C12 109.5(3)
C12' C10 C11' 106.7(6)
C7 C10 C11' 113.7(5)
C13' C10 C11' 104.7(6)
C15 C14 C19 121.0(2)
C15 C14 S1 119.53(18)
C19 C14 S1 119.4(2)
C14 C15 C16 118.9(2)
C15 C16 C17 121.8(3)
C16 C17 C18 117.8(2)
C16 C17 C20 121.8(3)
C18 C17 C20 120.4(2)
C19 C18 C17 121.6(2)
C18 C19 C14 118.8(2)
C26 C21 C22 121.0(3)
C26 C21 S2 119.2(2)
C22 C21 S2 119.6(2)
C23 C22 C21 118.8(3)
C24 C23 C22 121.8(3)
C23 C24 C25 118.4(3)
C23 C24 C27 120.6(4)
C25 C24 C27 121.0(4)
C24 C25 C26 121.9(3)
C21 C26 C25 118.2(3)
loop_
_geom_bond_atom_site_label_1
_geom_bond_atom_site_label_2
_geom_bond_distance
S1 O1 1.4298(18)
S1 O2 1.4356(17)
S1 N1 1.678(2)
S1 C14 1.752(2)
S2 O3 1.4244(18)
S2 O4 1.4273(19)
S2 N1 1.6910(19)
S2 C21 1.761(3)
N1 C3 1.514(3)
C1 C2 1.178(4)
C2 C3 1.459(4)
C3 C4 1.515(3)
C4 C9 1.379(3)
C4 C5 1.386(4)
C5 C6 1.381(4)
C6 C7 1.399(4)
C7 C8 1.386(4)
C7 C10 1.533(3)
C8 C9 1.405(4)
C10 C13 1.495(5)
C10 C12' 1.513(8)
C10 C11 1.516(5)
C10 C13' 1.537(8)
C10 C12 1.563(5)
C10 C11' 1.586(8)
C14 C15 1.381(4)
C14 C19 1.395(3)
C15 C16 1.386(4)
C16 C17 1.391(4)
C17 C18 1.395(4)
C17 C20 1.499(3)
C18 C19 1.383(4)
C21 C26 1.388(4)
C21 C22 1.390(4)
C22 C23 1.385(4)
C23 C24 1.379(5)
C24 C25 1.380(5)
C24 C27 1.508(4)
C25 C26 1.396(4)
loop_
_geom_torsion_atom_site_label_1
_geom_torsion_atom_site_label_2
_geom_torsion_atom_site_label_3
_geom_torsion_atom_site_label_4
_geom_torsion
O1 S1 N1 C3 151.39(17)
O2 S1 N1 C3 23.06(19)
C14 S1 N1 C3 -91.87(18)
O1 S1 N1 S2 -32.37(16)
O2 S1 N1 S2 -160.70(13)
C14 S1 N1 S2 84.37(15)
O3 S2 N1 C3 136.93(18)
O4 S2 N1 C3 7.4(2)
C21 S2 N1 C3 -107.55(19)
O3 S2 N1 S1 -39.23(17)
O4 S2 N1 S1 -168.72(13)
C21 S2 N1 S1 76.29(16)
S1 N1 C3 C2 111.1(2)
S2 N1 C3 C2 -65.1(2)
S1 N1 C3 C4 -116.21(19)
S2 N1 C3 C4 67.6(2)
C2 C3 C4 C9 14.6(3)
N1 C3 C4 C9 -115.6(3)
C2 C3 C4 C5 -165.4(2)
N1 C3 C4 C5 64.5(3)
C9 C4 C5 C6 1.7(4)
C3 C4 C5 C6 -178.4(2)
C4 C5 C6 C7 -0.5(4)
C5 C6 C7 C8 -0.9(4)
C5 C6 C7 C10 177.0(2)
C6 C7 C8 C9 1.2(4)
C10 C7 C8 C9 -176.7(2)
C5 C4 C9 C8 -1.4(4)
C3 C4 C9 C8 178.7(2)
C7 C8 C9 C4 -0.1(4)
C8 C7 C10 C13 104.8(4)
C6 C7 C10 C13 -73.0(4)
C8 C7 C10 C12' -36.9(7)
C6 C7 C10 C12' 145.3(7)
C8 C7 C10 C11 -129.9(3)
C6 C7 C10 C11 52.3(4)
C8 C7 C10 C13' 84.7(6)
C6 C7 C10 C13' -93.1(6)
C8 C7 C10 C12 -14.0(4)
C6 C7 C10 C12 168.2(3)
C8 C7 C10 C11' -160.9(5)
C6 C7 C10 C11' 21.3(6)
O1 S1 C14 C15 -163.1(2)
O2 S1 C14 C15 -31.2(2)
N1 S1 C14 C15 81.8(2)
O1 S1 C14 C19 13.6(2)
O2 S1 C14 C19 145.54(19)
N1 S1 C14 C19 -101.4(2)
C19 C14 C15 C16 0.0(4)
S1 C14 C15 C16 176.7(2)
C14 C15 C16 C17 -1.3(4)
C15 C16 C17 C18 2.1(4)
C15 C16 C17 C20 -178.0(2)
C16 C17 C18 C19 -1.7(4)
C20 C17 C18 C19 178.4(2)
C17 C18 C19 C14 0.5(4)
C15 C14 C19 C18 0.4(4)
S1 C14 C19 C18 -176.31(19)
O3 S2 C21 C26 -162.2(2)
O4 S2 C21 C26 -29.1(2)
N1 S2 C21 C26 83.0(2)
O3 S2 C21 C22 13.8(2)
O4 S2 C21 C22 146.9(2)
N1 S2 C21 C22 -101.0(2)
C26 C21 C22 C23 -0.5(4)
S2 C21 C22 C23 -176.5(2)
C21 C22 C23 C24 1.0(4)
C22 C23 C24 C25 -0.6(4)
C22 C23 C24 C27 178.9(3)
C23 C24 C25 C26 -0.2(5)
C27 C24 C25 C26 -179.8(3)
C22 C21 C26 C25 -0.3(4)
S2 C21 C26 C25 175.6(2)
C24 C25 C26 C21 0.7(4)
