#------------------------------------------------------------------------------
#$Date: 2016-02-18 17:37:37 +0200 (Thu, 18 Feb 2016) $
#$Revision: 176729 $
#$URL: svn://www.crystallography.net/cod/cif/1/51/79/1517961.cif $
#------------------------------------------------------------------------------
#
# This file is available in the Crystallography Open Database (COD),
# http://www.crystallography.net/
#
# All data on this site have been placed in the public domain by the
# contributors.
#
data_1517961
loop_
_publ_author_name
'Engl, Oliver D.'
'Fritz, Sven P.'
'K\"aslin, Alexander'
'Wennemers, Helma'
_publ_section_title
;
 Organocatalytic route to dihydrocoumarins and dihydroquinolinones in all
 stereochemical configurations.
;
_journal_issue                   20
_journal_name_full               'Organic letters'
_journal_page_first              5454
_journal_page_last               5457
_journal_paper_doi               10.1021/ol502697s
_journal_volume                  16
_journal_year                    2014
_chemical_absolute_configuration ad
_chemical_formula_moiety         'C19 H17 N O6 S'
_chemical_formula_sum            'C19 H17 N O6 S'
_chemical_formula_weight         387.39
_chemical_name_systematic
;
 ?
;
_space_group_crystal_system      monoclinic
_space_group_IT_number           5
_space_group_name_Hall           'C 2y'
_space_group_name_H-M_alt        'C 1 2 1'
_symmetry_space_group_name_Hall  'C 2y'
_symmetry_space_group_name_H-M   'C 1 2 1'
_atom_sites_solution_hydrogens   geom
_atom_sites_solution_primary     direct
_audit_creation_date             2013-11-12
_audit_creation_method
;
Olex2 1.2
(compiled 2013.09.17 svn.r2790 for OlexSys, GUI svn.r4601)
;
_cell_angle_alpha                90
_cell_angle_beta                 91.281(2)
_cell_angle_gamma                90
_cell_formula_units_Z            4
_cell_length_a                   24.1913(12)
_cell_length_b                   6.4335(3)
_cell_length_c                   11.2245(6)
_cell_measurement_reflns_used    9898
_cell_measurement_temperature    100
_cell_measurement_theta_max      27.56
_cell_measurement_theta_min      2.45
_cell_volume                     1746.49(15)
_computing_cell_refinement       'Bruker SAINT'
_computing_data_collection       'Bruker APEX2'
_computing_data_reduction        'Bruker SAINT'
_computing_molecular_graphics    OLEX2
_computing_publication_material  OLEX2
_computing_structure_refinement  'SHELXL-97 (Sheldrick, 2008)'
_computing_structure_solution    'SHELXS-97 (Sheldrick, 2008)'
_diffrn_ambient_temperature      99.99
_diffrn_detector                 'Bruker APEX2 area detector'
_diffrn_detector_area_resol_mean 8.33
_diffrn_detector_type            'CCD area detector'
_diffrn_measured_fraction_theta_full 0.999
_diffrn_measured_fraction_theta_max 1.000
_diffrn_measurement_device       'kappa-stage diffractometer'
_diffrn_measurement_device_type  'Bruker/Nonius Kappa Apex2'
_diffrn_measurement_method       '\w and \f scans'
_diffrn_radiation_monochromator  graphite
_diffrn_radiation_probe          x-ray
_diffrn_radiation_type           MoK\a
_diffrn_radiation_wavelength     0.71073
_diffrn_radiation_xray_symbol    K-L~3~
_diffrn_reflns_av_R_equivalents  0.0255
_diffrn_reflns_av_unetI/netI     0.0234
_diffrn_reflns_Laue_measured_fraction_full 0.999
_diffrn_reflns_Laue_measured_fraction_max 1.000
_diffrn_reflns_limit_h_max       31
_diffrn_reflns_limit_h_min       -31
_diffrn_reflns_limit_k_max       8
_diffrn_reflns_limit_k_min       -8
_diffrn_reflns_limit_l_max       14
_diffrn_reflns_limit_l_min       -14
_diffrn_reflns_number            21694
_diffrn_reflns_point_group_measured_fraction_full 1.000
_diffrn_reflns_point_group_measured_fraction_max 0.998
_diffrn_reflns_theta_full        25.242
_diffrn_reflns_theta_max         27.588
_diffrn_reflns_theta_min         1.684
_diffrn_source                   'sealed tube'
_diffrn_standards_number         0
_exptl_absorpt_coefficient_mu    0.223
_exptl_absorpt_correction_T_max  0.7456
_exptl_absorpt_correction_T_min  0.6906
_exptl_absorpt_correction_type   multi-scan
_exptl_absorpt_process_details
;
SADABS-2008/1 (Bruker,2008) was used for absorption correction.
wR2(int) was 0.0503 before and 0.0414 after correction.
The Ratio of minimum to maximum transmission is 0.9262.
The \l/2 correction factor is 0.0000.
;
_exptl_crystal_colour            colourless
_exptl_crystal_colour_lustre     clear
_exptl_crystal_colour_primary    colourless
_exptl_crystal_density_diffrn    1.473
_exptl_crystal_description       rod
_exptl_crystal_F_000             808
_exptl_crystal_size_max          0.40
_exptl_crystal_size_mid          0.12
_exptl_crystal_size_min          0.04
_refine_diff_density_max         0.278
_refine_diff_density_min         -0.169
_refine_diff_density_rms         0.038
_refine_ls_abs_structure_details
;
 Flack x determined using 1693 quotients [(I+)-(I-)]/[(I+)+(I-)]
 (Parsons and Flack (2004), Acta Cryst. A60, s61).
;
_refine_ls_abs_structure_Flack   0.018(17)
_refine_ls_extinction_method     none
_refine_ls_goodness_of_fit_ref   1.037
_refine_ls_hydrogen_treatment    constr
_refine_ls_matrix_type           full
_refine_ls_number_parameters     246
_refine_ls_number_reflns         4059
_refine_ls_number_restraints     1
_refine_ls_restrained_S_all      1.037
_refine_ls_R_factor_all          0.0290
_refine_ls_R_factor_gt           0.0269
_refine_ls_shift/su_max          0.001
_refine_ls_shift/su_mean         0.000
_refine_ls_structure_factor_coef Fsqd
_refine_ls_weighting_details
'w=1/[\s^2^(Fo^2^)+(0.0371P)^2^+0.5497P] where P=(Fo^2^+2Fc^2^)/3'
_refine_ls_weighting_scheme      calc
_refine_ls_wR_factor_gt          0.0649
_refine_ls_wR_factor_ref         0.0661
_reflns_Friedel_coverage         0.834
_reflns_Friedel_fraction_full    1.000
_reflns_Friedel_fraction_max     0.997
_reflns_number_gt                3875
_reflns_number_total             4059
_reflns_threshold_expression     'I > 2\s(I)'
_cod_data_source_file            ol502697s_si_002.cif
_cod_data_source_block           w091113_0m
_cod_depositor_comments          'Adding full bibliography for 1517961.cif.'
_cod_database_code               1517961
#BEGIN Tags that were not found in dictionaries:
_shelxl_version_number           2013-4
_shelx_space_group_comment
;
The symmetry employed for this shelxl refinement is uniquely defined
by the following loop, which should always be used as a source of
symmetry information in preference to the above space-group names.
They are only intended as comments.
;
_shelx_estimated_absorpt_t_max   0.991
_shelx_estimated_absorpt_t_min   0.916
_olex2_refinement_description
;
1. Fixed Uiso
 At 1.2 times of:
  All C(H) groups, All C(H,H) groups
 At 1.5 times of:
  All C(H,H,H) groups
2.a Ternary CH refined with riding coordinates:
 C8(H8)
2.b Secondary CH2 refined with riding coordinates:
 C13(H13A,H13B)
2.c Aromatic/amide H refined with riding coordinates:
 C3(H3), C4(H4), C10(H10), C11(H11), C12(H12), C15(H15), C16(H16), C19(H19)
2.d Idealised Me refined as rotating group:
 C1(H1A,H1B,H1C), C14(H14A,H14B,H14C)
;
_shelx_res_file
;
TITL w091113_0m in C2
CELL 0.71073 24.1913 6.4335 11.2245 90 91.281 90
ZERR 4 0.0012 0.0003 0.0006 0 0.002 0
LATT -7
SYMM -X,+Y,-Z

SFAC C H N O S
UNIT 76 68 4 24 4

L.S. 10
PLAN  -20 0 0
SIZE 0.04 0.12 0.4
TEMP -173.16
HTAB
BOND $H
MORE -1
fmap 2
acta
CONF
OMIT 0 0 1
REM <HKL>D:/SMoCC_Strukturen/w091113/work/w091113_0m.hkl</HKL>

WGHT    0.037100    0.549700
FVAR       0.15928
S1    5    0.510041    0.552540    0.179797    11.00000    0.02137    0.02400 =
         0.01815    0.00666   -0.00488   -0.00429
O1    4    0.372669   -0.115862    0.374389    11.00000    0.03905    0.01999 =
         0.01887   -0.00112    0.00588   -0.00904
O2    4    0.766883    0.648802    0.505911    11.00000    0.02865    0.03154 =
         0.02149    0.00026   -0.00992    0.00070
O3    4    0.776195    0.763313    0.327020    11.00000    0.02308    0.03535 =
         0.02935    0.00526   -0.00119   -0.00692
O4    4    0.581232    0.453103    0.352499    11.00000    0.02272    0.02166 =
         0.02133    0.00837   -0.00327   -0.00091
O5    4    0.626652    0.686926    0.026360    11.00000    0.02399    0.02143 =
         0.01447    0.00365   -0.00054    0.00227
O6    4    0.575506    0.955890    0.072198    11.00000    0.02770    0.02284 =
         0.02369    0.00926   -0.00032    0.00561
N1    3    0.748683    0.693141    0.406864    11.00000    0.02145    0.01866 =
         0.02357   -0.00462   -0.00425   -0.00047
C1    1    0.353151   -0.274660    0.296392    11.00000    0.02198    0.02376 =
         0.02214   -0.00263    0.00004   -0.00465
AFIX 137
H1A   2    0.333572   -0.211673    0.228071    11.00000   -1.50000
H1B   2    0.327868   -0.365958    0.338956    11.00000   -1.50000
H1C   2    0.384537   -0.355989    0.268297    11.00000   -1.50000
AFIX   0
C2    1    0.406106    0.031016    0.326179    11.00000    0.02165    0.01658 =
         0.01839    0.00070    0.00118    0.00037
C3    1    0.424096    0.024972    0.210393    11.00000    0.01677    0.02105 =
         0.01653   -0.00362   -0.00132   -0.00093
AFIX  43
H3    2    0.413370   -0.086262    0.159236    11.00000   -1.20000
AFIX   0
C4    1    0.457853    0.181883    0.169223    11.00000    0.01705    0.02622 =
         0.01469   -0.00152    0.00157    0.00011
AFIX  43
H4    2    0.470500    0.177254    0.089747    11.00000   -1.20000
AFIX   0
C5    1    0.473320    0.345159    0.242651    11.00000    0.01602    0.02038 =
         0.01806    0.00314   -0.00114   -0.00020
C6    1    0.570601    0.565121    0.270081    11.00000    0.01776    0.01523 =
         0.01383   -0.00092    0.00119    0.00276
C7    1    0.608057    0.749885    0.239264    11.00000    0.01846    0.01355 =
         0.01510    0.00061   -0.00141    0.00110
C8    1    0.669739    0.690523    0.257658    11.00000    0.01604    0.01535 =
         0.01626    0.00085   -0.00085   -0.00095
AFIX  13
H8    2    0.691718    0.810419    0.227539    11.00000   -1.20000
AFIX   0
C9    1    0.681731    0.509688    0.177249    11.00000    0.01392    0.01602 =
         0.01707    0.00042    0.00185   -0.00238
C10   1    0.714281    0.339138    0.206574    11.00000    0.01678    0.01887 =
         0.02024    0.00161   -0.00001   -0.00071
AFIX  43
H10   2    0.730413    0.328555    0.284282    11.00000   -1.20000
AFIX   0
C11   1    0.723592    0.183400    0.123573    11.00000    0.01717    0.01716 =
         0.02975    0.00078    0.00497   -0.00015
AFIX  43
H11   2    0.746523    0.068508    0.144314    11.00000   -1.20000
AFIX   0
C12   1    0.699562    0.195382    0.010976    11.00000    0.02425    0.01940 =
         0.02535   -0.00607    0.00687   -0.00500
AFIX  43
H12   2    0.706160    0.089039   -0.045680    11.00000   -1.20000
AFIX   0
C13   1    0.687259    0.660593    0.387140    11.00000    0.01665    0.01963 =
         0.01734   -0.00019   -0.00118   -0.00074
AFIX  23
H13A  2    0.666833    0.759942    0.437144    11.00000   -1.20000
H13B  2    0.677374    0.518237    0.412511    11.00000   -1.20000
AFIX   0
C14   1    0.590214    0.934321    0.315373    11.00000    0.02620    0.01644 =
         0.02223   -0.00138   -0.00105    0.00400
AFIX 137
H14A  2    0.616641    1.048496    0.306743    11.00000   -1.50000
H14B  2    0.589227    0.891942    0.399160    11.00000   -1.50000
H14C  2    0.553346    0.980670    0.288968    11.00000   -1.50000
AFIX   0
C15   1    0.421840    0.195051    0.400506    11.00000    0.03792    0.02262 =
         0.01442   -0.00200    0.00433   -0.00489
AFIX  43
H15   2    0.409648    0.198673    0.480348    11.00000   -1.20000
AFIX   0
C16   1    0.454772    0.351077    0.359152    11.00000    0.03622    0.01941 =
         0.01610   -0.00217    0.00071   -0.00442
AFIX  43
H16   2    0.464975    0.463442    0.409964    11.00000   -1.20000
AFIX   0
C17   1    0.601023    0.809458    0.108025    11.00000    0.01702    0.01803 =
         0.01876    0.00231   -0.00087   -0.00165
C18   1    0.657958    0.515933    0.063280    11.00000    0.01544    0.01779 =
         0.01840    0.00225    0.00191   -0.00114
C19   1    0.665990    0.361462   -0.019427    11.00000    0.02129    0.02484 =
         0.01654   -0.00163    0.00211   -0.00690
AFIX  43
H19   2    0.648715    0.369045   -0.096147    11.00000   -1.20000
AFIX   0
HKLF 4

REM  w091113_0m in C2
REM R1 =  0.0269 for    3875 Fo > 4sig(Fo)  and  0.0290 for all    4059 data
REM    246 parameters refined using      1 restraints

END

WGHT      0.0371      0.5497

REM Instructions for potential hydrogen bonds
EQIV $1 -x+1, y-1, -z
HTAB C3 O6_$1
HTAB C4 O6_$1
EQIV $2 -x+1, y+1, -z+1
HTAB C13 O1_$2
EQIV $3 -x+1, y, -z+1
HTAB C15 O4_$3

REM Highest difference peak  0.278,  deepest hole -0.169,  1-sigma level  0.038
Q1    1   0.6383  0.7189  0.2504  11.00000  0.05    0.28
Q2    1   0.5388  0.5589  0.2347  11.00000  0.05    0.24
Q3    1   0.6055  0.7829  0.1805  11.00000  0.05    0.23
Q4    1   0.6814  0.5335  0.1075  11.00000  0.05    0.23
Q5    1   0.7017  0.1779  0.0736  11.00000  0.05    0.21
Q6    1   0.4635  0.3513  0.2964  11.00000  0.05    0.20
Q7    1   0.5982  0.8263  0.2769  11.00000  0.05    0.18
Q8    1   0.7190  0.2129  0.0572  11.00000  0.05    0.18
Q9    1   0.4125  0.0331  0.2655  11.00000  0.05    0.18
Q10   1   0.5134  0.5558  0.0990  11.00000  0.05    0.18
Q11   1   0.5893  0.6711  0.2500  11.00000  0.05    0.18
Q12   1   0.6707  0.5809  0.2249  11.00000  0.05    0.18
Q13   1   0.6522  0.4020  0.0402  11.00000  0.05    0.17
Q14   1   0.4898  0.4415  0.2182  11.00000  0.05    0.16
Q15   1   0.6785  0.6804  0.3170  11.00000  0.05    0.16
Q16   1   0.6965  0.3168 -0.0157  11.00000  0.05    0.16
Q17   1   0.7174  0.6785  0.3958  11.00000  0.05    0.16
Q18   1   0.7004  0.4428  0.1839  11.00000  0.05    0.16
Q19   1   0.7028  0.2170  0.1783  11.00000  0.05    0.16
Q20   1   0.3795  0.2485  0.4624  11.00000  0.05    0.15
;
_shelx_res_checksum              64060
_shelx_hkl_file
;
   2   0   0    0.01    0.03
   2   0   0   -0.02    0.03
   2   0   0   -0.01    0.03
   2   0   0    0.01    0.03
   2   0   0    0.02    0.03
  -2   0   0   -0.01    0.03
  -2   0   0    0.03    0.03
  -2   0   0    0.03    0.03
  -2   0   0   -0.01    0.02
   4   0   0   14.72    0.52
  -4   0   0   15.51    0.48
   4   0   0   15.16    0.48
   4   0   0   15.38    0.49
   4   0   0   14.89    0.45
   4   0   0   15.24    0.48
   4   0   0   14.90    0.47
  -4   0   0   15.37    0.49
  -4   0   0   14.67    0.46
  -4   0   0   16.01    0.53
  -4   0   0   14.77    0.45
  -4   0   0   15.42    0.47
  -4   0   0   15.04    0.48
  -4   0   0   14.91    0.46
  -4   0   0   14.52    0.46
  -4   0   0   15.18    0.48
   6   0   0  138.35    3.05
  -6   0   0  136.16    3.04
  -6   0   0  138.64    2.98
   6   0   0  130.56    3.08
  -6   0   0  129.00    3.02
  -6   0   0  136.39    3.45
   6   0   0  141.19    3.11
   6   0   0  133.94    3.11
  -6   0   0  133.41    3.08
   6   0   0  133.37    2.95
   6   0   0  135.28    3.14
   6   0   0  128.10    3.03
   6   0   0  140.68    3.44
  -6   0   0  133.27    3.09
  -6   0   0  135.93    3.12
  -6   0   0  136.84    3.20
   6   0   0  133.21    3.20
  -8   0   0    0.77    0.19
  -8   0   0    0.93    0.18
  -8   0   0    0.74    0.19
   8   0   0    0.72    0.17
   8   0   0    0.68    0.17
  -8   0   0    0.75    0.19
  -8   0   0    0.76    0.17
  -8   0   0    0.66    0.15
   8   0   0    0.57    0.17
   8   0   0    0.85    0.16
   8   0   0    0.88    0.16
   8   0   0    0.92    0.20
  -8   0   0    0.83    0.18
  -8   0   0    0.98    0.19
   8   0   0    0.84    0.18
   8   0   0    0.63    0.18
   8   0   0    0.40    0.15
  10   0   0   32.17    1.15
 -10   0   0   31.56    1.03
  10   0   0   31.68    1.08
  10   0   0   31.60    1.04
 -10   0   0   31.15    1.18
 -10   0   0   33.29    1.02
  10   0   0   32.31    1.05
  10   0   0   33.52    1.02
  10   0   0   33.68    1.05
  10   0   0   33.22    1.07
  10   0   0   31.81    1.08
 -10   0   0   33.00    1.04
 -10   0   0   33.43    1.07
 -10   0   0   32.93    1.10
 -10   0   0   33.80    1.10
 -10   0   0   32.47    1.06
  10   0   0   32.49    0.98
 -12   0   0  122.29    3.07
  12   0   0  121.77    2.97
  12   0   0  121.65    3.02
  12   0   0  117.75    3.02
  12   0   0  116.63    3.10
  12   0   0  116.28    2.95
  12   0   0  116.67    3.30
  12   0   0  122.74    2.84
  12   0   0  118.80    2.98
 -12   0   0  120.37    3.01
 -12   0   0  120.64    2.89
  12   0   0  115.06    2.98
 -12   0   0  118.17    2.99
 -12   0   0  118.48    2.95
 -12   0   0  119.29    3.37
 -12   0   0  118.47    2.93
  14   0   0   12.86    0.66
  14   0   0   12.14    0.60
  14   0   0   12.32    0.66
  14   0   0   11.50    0.64
 -14   0   0   11.63    0.65
  14   0   0   13.18    0.69
  14   0   0   12.96    0.73
  14   0   0   12.17    0.61
 -14   0   0   12.31    0.64
 -14   0   0   11.67    0.68
  14   0   0   12.08    0.68
  14   0   0   12.97    0.69
 -14   0   0   11.04    0.63
 -14   0   0   12.60    0.75
 -16   0   0    1.70    0.34
  16   0   0    1.79    0.36
  16   0   0    1.53    0.28
 -16   0   0    2.23    0.36
  16   0   0    2.24    0.38
  16   0   0    1.89    0.29
 -16   0   0    2.14    0.40
 -16   0   0    1.92    0.37
 -16   0   0    2.00    0.33
  16   0   0    2.50    0.37
  16   0   0    1.27    0.28
  16   0   0    2.07    0.37
  16   0   0    2.01    0.34
  16   0   0    1.54    0.32
  18   0   0    0.33    0.22
  18   0   0    0.38    0.18
 -18   0   0    0.53    0.26
  18   0   0    0.56    0.24
  18   0   0    0.01    0.21
  18   0   0    0.25    0.19
 -18   0   0    0.63    0.28
  18   0   0    0.50    0.23
 -18   0   0    0.32    0.22
 -18   0   0    0.32    0.22
  20   0   0   26.32    1.06
  20   0   0   26.20    1.20
 -20   0   0   25.95    1.35
  20   0   0   26.11    1.18
 -20   0   0   27.54    1.23
  20   0   0   26.51    1.24
  20   0   0   26.41    1.18
 -20   0   0   23.49    1.21
  22   0   0    4.47    0.60
  22   0   0    4.94    0.62
 -22   0   0    4.50    0.62
 -22   0   0    4.63    0.61
 -22   0   0    5.08    0.70
  22   0   0    5.25    0.63
  22   0   0    5.33    0.55
  22   0   0    4.67    0.62
 -24   0   0    6.38    0.75
  24   0   0    5.65    0.69
 -24   0   0    5.96    0.76
  24   0   0    6.62    0.76
  24   0   0    6.99    0.77
 -26   0   0    3.88    0.67
  26   0   0    4.58    0.64
  26   0   0    4.29    0.66
 -26   0   0    4.69    0.69
 -28   0   0    0.30    0.39
  28   0   0    0.29    0.33
 -28   0   0   -0.03    0.31
 -30   0   0    0.48    0.37
   1  -1   0   67.94    1.74
  -1  -1   0   69.31    1.61
  -1  -1   0   70.10    1.49
  -1  -1   0   66.27    1.64
  -1  -1   0   67.57    1.48
   1  -1   0   66.42    1.54
   1  -1   0   66.42    1.66
   1  -1   0   67.84    1.54
   1  -1   0   70.30    1.45
  -1  -1   0   67.88    1.49
  -1  -1   0   66.13    1.55
  -1  -1   0   68.95    1.48
   1  -1   0   67.38    1.56
  -1   1   0   66.04    1.66
  -1   1   0   69.02    1.72
   1   1   0   70.80    1.78
   1   1   0   68.88    1.47
  -1   1   0   70.16    1.54
   1   1   0   69.33    1.62
  -1   1   0   67.80    1.55
  -1   1   0   67.37    1.74
  -1   1   0   71.03    1.52
   3  -1   0  106.66    2.71
  -3  -1   0  104.74    2.32
  -3  -1   0  110.15    2.33
   3  -1   0  109.27    2.40
  -3  -1   0  109.73    2.57
  -3  -1   0  111.58    2.33
  -3  -1   0  109.17    2.42
   3  -1   0  102.18    2.61
  -3  -1   0  115.66    2.57
   3  -1   0  107.26    2.45
   3  -1   0  106.58    2.42
   3  -1   0  111.28    2.34
  -3  -1   0  107.97    2.33
   3  -1   0  104.91    2.43
   3  -1   0  104.82    2.56
   3  -1   0  111.15    2.61
  -3   1   0  104.78    2.45
  -3   1   0  105.65    2.43
  -3   1   0  103.34    2.31
   3   1   0  107.83    2.25
   3   1   0  104.31    2.42
  -3   1   0   99.21    2.60
  -3   1   0  105.48    2.60
  -3   1   0  105.54    2.70
  -3   1   0  104.86    2.57
   3   1   0  106.32    2.69
   3   1   0  106.09    2.57
   3   1   0  108.69    2.32
  -3   1   0  103.08    2.40
   3   1   0  104.92    2.31
  -5  -1   0  783.31   16.89
  -5  -1   0  770.72   16.80
   5  -1   0  795.38   16.28
  -5  -1   0  786.94   16.68
  -5  -1   0  819.57   16.63
  -5  -1   0  786.60   16.91
  -5  -1   0  812.07   19.05
   5  -1   0  786.06   16.91
   5  -1   0  776.28   16.92
   5  -1   0  783.40   17.55
  -5  -1   0  777.92   16.79
   5  -1   0  786.68   18.87
   5  -1   0  797.40   16.64
  -5  -1   0  819.42   17.64
   5  -1   0  786.86   17.68
   5  -1   0  786.12   16.93
  -5   1   0  766.98   16.91
   5   1   0  812.39   16.79
  -5   1   0  794.62   16.65
  -5   1   0  783.94   17.56
  -5   1   0  791.57   16.27
   5   1   0  838.18   18.96
   5   1   0  803.58   17.64
   5   1   0  804.40   18.38
  -5   1   0  799.88   16.94
   5   1   0  792.25   16.79
   5   1   0  781.56   16.69
   5   1   0  773.96   16.98
  -5   1   0  782.73   17.56
   7  -1   0  690.20   15.43
   7  -1   0  693.59   14.68
   7  -1   0  694.33   15.55
  -7  -1   0  683.43   14.89
  -7  -1   0  692.69   14.89
   7  -1   0  695.46   16.74
  -7  -1   0  701.12   14.89
   7  -1   0  694.20   14.76
   7  -1   0  695.79   15.02
  -7  -1   0  690.27   14.90
   7  -1   0  705.10   15.03
  -7  -1   0  705.48   14.80
  -7  -1   0  704.99   16.61
  -7  -1   0  691.04   15.63
  -7  -1   0  706.85   14.58
   7  -1   0  697.29   14.44
  -7   1   0  705.07   15.56
   7   1   0  713.88   14.81
   7   1   0  691.90   14.88
   7   1   0  701.83   15.65
  -7   1   0  695.86   15.04
   7   1   0  677.78   14.87
  -7   1   0  700.77   15.01
  -7   1   0  705.49   14.44
  -7   1   0  704.68   15.44
  -7   1   0  680.86   14.76
   7   1   0  714.83   16.76
   7   1   0  695.91   15.11
   7   1   0  692.17   14.23
   7   1   0  695.08   14.63
  -9  -1   0   31.21    0.98
   9  -1   0   29.82    1.05
  -9  -1   0   29.90    1.05
  -9  -1   0   30.93    0.89
  -9  -1   0   31.25    0.95
   9  -1   0   30.48    1.14
  -9  -1   0   30.21    0.94
  -9  -1   0   32.01    1.04
   9  -1   0   30.38    0.98
  -9  -1   0   31.04    1.10
   9  -1   0   31.26    0.95
   9  -1   0   30.18    1.04
   9  -1   0   30.67    0.94
   9  -1   0   32.07    1.04
  -9   1   0   31.29    0.94
  -9   1   0   30.45    1.07
   9   1   0   30.16    1.02
   9   1   0   31.23    0.96
  -9   1   0   31.23    1.02
  -9   1   0   30.51    0.98
   9   1   0   30.42    0.92
   9   1   0   30.90    0.94
   9   1   0   30.91    0.94
   9   1   0   30.43    1.00
   9   1   0   32.19    0.79
  -9   1   0   32.17    1.07
  -9   1   0   30.00    1.01
 -11  -1   0  142.29    3.51
 -11  -1   0  147.37    3.36
  11  -1   0  147.25    3.59
 -11  -1   0  143.93    3.89
  11  -1   0  146.00    3.57
  11  -1   0  149.70    3.60
  11  -1   0  143.17    3.66
 -11  -1   0  143.40    3.48
  11  -1   0  145.20    3.62
 -11  -1   0  143.46    3.48
  11  -1   0  150.61    4.02
  11  -1   0  144.60    3.43
  11  -1   0  144.88    3.42
 -11  -1   0  147.57    3.55
  11   1   0  148.07    3.19
 -11   1   0  148.50    3.56
 -11   1   0  149.15    3.68
 -11   1   0  145.54    3.45
  11   1   0  148.73    3.78
  11   1   0  145.13    3.45
  11   1   0  146.23    3.81
  11   1   0  147.60    3.57
  11   1   0  143.57    3.46
 -11   1   0  146.91    4.00
 -11   1   0  144.24    3.54
 -11   1   0  146.88    3.59
  11   1   0  147.90    3.44
 -11   1   0  141.04    3.63
  11   1   0  146.04    3.49
  13  -1   0   24.81    1.03
  13  -1   0   24.52    0.91
  13  -1   0   24.03    1.00
 -13  -1   0   24.94    0.85
  13  -1   0   24.72    1.00
 -13  -1   0   24.07    0.94
  13  -1   0   25.14    0.93
 -13  -1   0   23.34    1.02
  13  -1   0   25.66    1.12
 -13  -1   0   24.18    0.92
  13   1   0   23.73    0.75
 -13   1   0   23.87    0.94
  13   1   0   22.53    0.91
 -13   1   0   22.86    0.97
 -13   1   0   24.47    1.03
  13   1   0   23.99    0.81
 -13   1   0   24.18    1.09
 -13   1   0   23.68    0.91
  13   1   0   23.86    0.90
  13   1   0   24.62    1.00
 -13   1   0   22.77    0.97
  13   1   0   23.59    0.88
  13   1   0   24.90    1.07
 -13   1   0   25.10    0.99
  13   1   0   23.46    0.95
 -15  -1   0   34.99    1.28
 -15  -1   0   35.13    1.24
 -15  -1   0   32.98    1.38
  15  -1   0   36.18    1.33
  15  -1   0   34.40    1.32
  15  -1   0   36.62    1.26
 -15  -1   0   35.56    1.15
  15  -1   0   36.87    1.48
  15  -1   0   34.44    1.21
  15   1   0   35.48    1.11
  15   1   0   36.00    1.26
  15   1   0   35.29    1.22
  15   1   0   35.53    1.32
 -15   1   0   33.05    1.34
  15   1   0   34.93    1.20
 -15   1   0   36.82    1.34
 -15   1   0   34.44    1.45
  15   1   0   34.77    1.03
  15   1   0   35.24    1.39
 -15   1   0   36.52    1.28
  15   1   0   37.47    1.33
 -15   1   0   38.43    1.33
 -17  -1   0   29.11    1.31
  17  -1   0   29.59    1.35
  17  -1   0   27.70    1.12
  17  -1   0   28.21    1.13
  17  -1   0   29.30    1.16
  17  -1   0   27.76    1.21
 -17  -1   0   28.54    1.05
 -17  -1   0   27.20    1.14
 -17  -1   0   29.21    1.21
  17  -1   0   28.72    1.21
  17   1   0   29.00    1.01
 -17   1   0   30.69    1.19
 -17   1   0   28.98    1.19
  17   1   0   29.89    1.18
 -17   1   0   29.60    1.37
 -17   1   0   28.76    1.27
  17   1   0   29.86    1.12
 -17   1   0   30.31    1.24
  17   1   0   28.43    1.14
  17   1   0   29.03    0.93
  17   1   0   29.90    1.14
  17   1   0   24.60    1.15
  17   1   0   30.38    1.30
  19  -1   0    5.17    0.66
  19  -1   0    6.49    0.66
 -19  -1   0    6.00    0.62
  19  -1   0    5.77    0.63
 -19  -1   0    5.56    0.60
  19  -1   0    6.17    0.53
 -19  -1   0    4.25    0.57
  19  -1   0    6.04    0.59
 -19   1   0    6.02    0.62
  19   1   0    6.20    0.66
  19   1   0    5.43    0.57
  19   1   0    4.41    0.59
 -19   1   0    6.33    0.66
  19   1   0    5.90    0.41
 -19   1   0    5.20    0.67
  19   1   0    5.54    0.61
 -19   1   0    6.56    0.70
  19   1   0    6.06    0.45
  19   1   0    6.06    0.64
  19   1   0    5.69    0.50
 -19   1   0    5.00    0.60
  21  -1   0    4.17    0.57
 -21  -1   0    4.48    0.63
  21  -1   0    4.16    0.63
 -21  -1   0    4.42    0.57
 -21  -1   0    5.01    0.61
  21  -1   0    4.76    0.61
  21  -1   0    3.52    0.51
  21  -1   0    4.60    0.55
  21   1   0    4.47    0.54
 -21   1   0    4.53    0.64
  21   1   0    4.62    0.38
  21   1   0    4.27    0.53
  21   1   0    4.13    0.62
  21   1   0    3.91    0.55
 -21   1   0    4.56    0.59
  23  -1   0    3.32    0.51
 -23  -1   0    4.52    0.63
 -23  -1   0    2.47    0.47
  23  -1   0    4.08    0.60
  23  -1   0    3.46    0.52
  23  -1   0    3.60    0.56
 -23  -1   0    2.33    0.50
 -23   1   0    2.25    0.48
  23   1   0    2.93    0.48
  23   1   0    3.93    0.57
  23   1   0    3.85    0.54
 -23   1   0    3.81    0.62
  23   1   0    2.99    0.35
  25  -1   0    2.17    0.45
 -25  -1   0    1.93    0.49
  25  -1   0    2.21    0.50
  25  -1   0    2.66    0.56
 -25  -1   0    1.24    0.41
  25   1   0    1.81    0.42
  25   1   0    2.23    0.49
 -25   1   0    1.43    0.47
 -25   1   0    2.42    0.55
  25   1   0    2.40    0.32
 -27  -1   0    1.12    0.42
  27  -1   0    0.83    0.34
  27  -1   0    0.95    0.40
  27   1   0    1.44    0.28
  27   1   0    1.32    0.45
 -27   1   0    1.12    0.46
 -27   1   0    1.94    0.54
  29  -1   0    3.36    0.61
 -29  -1   0    2.47    0.55
 -29   1   0    2.62    0.61
  29   1   0    3.43    0.36
 -31  -1   0    2.71    0.62
 -31   1   0    1.68    0.57
   0  -2   0   73.96    1.87
   0  -2   0   75.46    1.75
   0  -2   0   74.29    1.93
   0  -2   0   75.12    2.07
   0  -2   0   73.16    1.73
   0  -2   0   76.56    1.73
   0   2   0   76.68    1.94
   0   2   0   76.29    2.06
   0   2   0   74.74    2.10
   0   2   0   77.18    1.72
  -2  -2   0  472.68   10.00
   2  -2   0  462.31   10.11
  -2  -2   0  476.97    9.99
   2  -2   0  458.78   10.12
   2  -2   0  476.40   10.14
  -2  -2   0  463.12   10.02
   2  -2   0  481.46   10.84
  -2  -2   0  475.36   10.00
   2  -2   0  465.94   10.62
  -2  -2   0  476.08   10.83
  -2  -2   0  477.69   10.51
  -2  -2   0  475.03   10.60
  -2  -2   0  483.83   10.00
  -2   2   0  449.79   10.09
  -2   2   0  488.75   10.85
  -2   2   0  460.67   11.12
  -2   2   0  475.15    9.95
   2   2   0  476.04   10.51
   2   2   0  477.73   11.20
  -2   2   0  454.59   10.61
  -2   2   0  463.58   10.11
   4  -2   0  115.77    3.08
   4  -2   0  113.87    2.79
  -4  -2   0  118.84    2.95
  -4  -2   0  115.43    2.76
  -4  -2   0  118.56    2.59
  -4  -2   0  116.61    2.58
  -4  -2   0  117.74    2.58
   4  -2   0  116.98    3.03
   4  -2   0  115.04    2.76
  -4  -2   0  119.28    2.58
  -4   2   0  121.68    3.05
  -4   2   0  119.08    2.56
  -4   2   0  115.86    2.74
  -4   2   0  121.42    2.74
  -4   2   0  116.03    3.04
   4   2   0  118.96    2.77
   4   2   0  116.85    3.14
  -4   2   0  116.76    2.78
  -4   2   0  116.03    2.57
   4   2   0  118.33    2.78
  -4   2   0  114.98    2.96
   6  -2   0    9.36    0.49
   6  -2   0    9.03    0.52
  -6  -2   0    8.99    0.35
   6  -2   0    9.59    0.54
  -6  -2   0    9.53    0.53
  -6  -2   0    8.64    0.35
   6  -2   0    8.24    0.31
  -6  -2   0    9.35    0.36
  -6  -2   0    8.70    0.34
  -6  -2   0    8.30    0.46
   6  -2   0    8.70    0.47
   6   2   0    9.29    0.31
  -6   2   0    9.18    0.42
  -6   2   0    8.80    0.47
  -6   2   0    8.72    0.53
   6   2   0    9.06    0.56
  -6   2   0    9.18    0.49
   6   2   0    9.49    0.29
   6   2   0    9.14    0.53
   6   2   0    9.34    0.36
  -6   2   0    8.80    0.47
   6   2   0    9.38    0.50
   6   2   0    9.78    0.32
  -6   2   0   10.11    0.56
   8  -2   0   64.59    1.80
   8  -2   0   61.20    1.98
   8  -2   0   62.50    1.88
  -8  -2   0   62.63    1.59
  -8  -2   0   63.34    1.62
  -8  -2   0   66.23    1.78
   8  -2   0   62.95    1.81
  -8  -2   0   61.24    1.58
   8  -2   0   62.94    1.57
  -8  -2   0   64.04    1.78
  -8  -2   0   63.76    1.60
   8  -2   0   63.81    1.79
   8   2   0   64.43    1.80
  -8   2   0   66.01    1.78
   8   2   0   69.16    1.57
  -8   2   0   63.40    1.91
   8   2   0   67.58    1.56
  -8   2   0   63.63    1.78
  -8   2   0   65.19    1.68
  -8   2   0   63.88    1.83
  -8   2   0   69.37    1.96
   8   2   0   62.56    1.96
  -8   2   0   64.08    1.96
 -10  -2   0   29.47    0.92
 -10  -2   0   29.57    1.03
 -10  -2   0   30.30    1.08
  10  -2   0   30.70    1.12
  10  -2   0   29.33    1.08
  10  -2   0   29.15    1.08
  10  -2   0   27.61    1.17
 -10  -2   0   28.23    0.92
  10  -2   0   30.76    0.93
  10  -2   0   29.03    0.87
 -10  -2   0   30.87    0.95
 -10  -2   0   29.12    0.91
 -10   2   0   31.42    1.13
  10   2   0   28.95    0.90
 -10   2   0   29.19    1.07
 -10   2   0   28.20    0.99
  10   2   0   29.09    1.08
  10   2   0   30.61    0.82
  10   2   0   28.29    0.89
  10   2   0   28.73    1.16
  10   2   0   28.36    1.16
  10   2   0   30.32    0.82
  10   2   0   29.05    0.88
 -10   2   0   29.53    1.14
 -10   2   0   28.83    1.05
 -12  -2   0  192.21    4.96
  12  -2   0  193.14    5.20
 -12  -2   0  194.37    4.43
  12  -2   0  189.75    4.37
  12  -2   0  190.36    4.49
 -12  -2   0  187.38    4.45
  12  -2   0  191.41    4.65
  12  -2   0  188.55    4.64
  12   2   0  195.98    4.73
 -12   2   0  189.18    4.63
  12   2   0  192.35    4.37
  12   2   0  189.28    4.39
  12   2   0  191.97    4.91
  12   2   0  186.86    4.33
  12   2   0  189.19    4.61
  12   2   0  191.29    4.37
  12   2   0  191.42    5.00
 -12   2   0  191.58    4.84
  12   2   0  194.51    4.70
 -12   2   0  189.46    4.42
 -12   2   0  189.06    4.47
 -12   2   0  185.10    4.58
 -12   2   0  186.24    4.69
  14  -2   0   44.25    1.53
  14  -2   0   45.23    1.36
  14  -2   0   41.97    1.51
 -14  -2   0   43.77    1.40
 -14  -2   0   41.63    1.51
  14  -2   0   44.35    1.32
 -14  -2   0   44.59    1.37
  14  -2   0   42.86    1.70
  14   2   0   44.75    1.36
 -14   2   0   41.54    1.49
 -14   2   0   43.28    1.57
  14   2   0   44.75    1.35
  14   2   0   41.63    1.30
 -14   2   0   44.28    1.53
  14   2   0   41.81    1.57
  14   2   0   43.15    1.18
  14   2   0   41.35    1.27
 -14   2   0   42.31    1.29
 -14   2   0   44.39    1.44
  14   2   0   43.50    1.64
 -14   2   0   40.29    1.54
  14   2   0   43.72    1.35
 -16  -2   0   45.64    1.71
  16  -2   0   48.74    1.49
 -16  -2   0   49.13    1.55
  16  -2   0   49.03    1.91
  16  -2   0   48.06    1.51
 -16  -2   0   47.43    1.57
  16  -2   0   46.13    1.70
  16  -2   0   51.01    1.74
 -16   2   0   48.09    1.69
  16   2   0   46.96    1.47
  16   2   0   48.39    1.54
 -16   2   0   47.22    1.75
  16   2   0   47.87    1.32
  16   2   0   47.80    1.81
  16   2   0   47.21    1.52
 -16   2   0   44.98    1.57
 -16   2   0   49.33    1.70
  16   2   0   49.50    1.52
 -16   2   0   46.29    1.71
  16   2   0   46.19    1.43
  16   2   0   47.95    1.75
 -16   2   0   48.52    1.87
  16   2   0   43.86    1.65
  18  -2   0    9.30    0.80
  18  -2   0    9.66    0.73
  18  -2   0    9.29    0.61
 -18  -2   0    9.19    0.70
  18  -2   0   10.48    0.63
  18  -2   0    9.53    0.73
 -18  -2   0    9.07    0.66
 -18  -2   0   10.59    0.67
  18   2   0   10.02    0.73
  18   2   0   10.43    0.76
 -18   2   0   10.64    0.70
 -18   2   0   10.12    0.73
 -18   2   0   10.12    0.77
  18   2   0    9.12    0.58
 -18   2   0    8.29    0.70
 -18   2   0    9.84    0.80
 -20  -2   0    2.14    0.44
 -20  -2   0    2.35    0.43
  20  -2   0    1.59    0.32
  20  -2   0    2.26    0.39
  20  -2   0    2.05    0.43
 -20  -2   0    2.09    0.39
  20  -2   0    2.43    0.47
 -20   2   0    2.60    0.45
 -20   2   0    2.21    0.47
  20   2   0    2.21    0.44
  20   2   0    1.64    0.40
 -20   2   0    1.93    0.42
  20   2   0    2.00    0.35
 -20   2   0    1.89    0.41
  22  -2   0    1.08    0.34
 -22  -2   0    0.90    0.33
 -22  -2   0    1.74    0.44
  22  -2   0    1.40    0.43
  22  -2   0    0.38    0.27
  22  -2   0    0.94    0.36
  22   2   0    1.48    0.41
  22   2   0    1.11    0.36
  22   2   0    1.23    0.31
 -22   2   0    1.18    0.41
 -22   2   0    1.05    0.42
  24  -2   0    3.67    0.64
 -24  -2   0    3.61    0.56
  24  -2   0    2.11    0.43
  24  -2   0    3.41    0.59
 -24  -2   0    3.82    0.62
 -24   2   0    2.75    0.62
  24   2   0    2.68    0.53
  24   2   0    3.83    0.58
  24   2   0    3.45    0.49
 -24   2   0    3.51    0.61
  26  -2   0    4.88    0.73
  26  -2   0    3.92    0.58
 -26  -2   0    4.78    0.65
 -26   2   0    4.98    0.73
 -26   2   0    4.02    0.73
  26   2   0    3.69    0.53
 -28  -2   0    1.40    0.47
  28  -2   0    1.59    0.51
 -28   2   0    1.52    0.50
  30  -2   0    1.73    0.55
 -30  -2   0    1.74    0.53
 -30   2   0    0.89    0.48
  -1  -3   0   25.32    0.72
   1  -3   0   25.41    0.79
  -1  -3   0   24.53    0.91
  -1  -3   0   25.18    0.75
   1  -3   0   26.59    0.96
  -1  -3   0   25.69    0.89
  -1  -3   0   25.24    0.83
   1  -3   0   25.91    1.07
   1  -3   0   25.90    0.81
  -1  -3   0   25.96    0.74
  -1  -3   0   24.34    1.05
   1  -3   0   26.42    0.84
   1  -3   0   25.43    0.77
  -1   3   0   26.68    0.78
  -1   3   0   25.35    0.76
  -1   3   0   24.57    1.06
   1   3   0   26.46    0.66
   1   3   0   27.06    1.11
   1   3   0   25.95    0.62
   1   3   0   25.23    0.65
   1   3   0   27.11    0.93
  -1   3   0   27.24    0.98
   3  -3   0   45.95    1.57
   3  -3   0   46.36    1.33
  -3  -3   0   49.75    1.38
  -3  -3   0   45.61    1.33
  -3  -3   0   46.39    1.13
  -3  -3   0   40.66    1.39
  -3  -3   0   48.05    1.16
   3  -3   0   45.16    1.29
  -3  -3   0   46.47    1.58
  -3  -3   0   46.32    1.13
   3  -3   0   52.07    1.53
  -3   3   0   47.36    1.51
  -3   3   0   47.32    1.29
  -3   3   0   43.30    1.54
   3   3   0   47.54    1.37
  -3   3   0   46.84    1.29
   3   3   0   46.97    1.64
  -3   3   0   44.77    1.24
  -5  -3   0   53.78    1.27
   5  -3   0   51.54    1.73
  -5  -3   0   52.29    1.26
   5  -3   0   53.46    1.67
   5  -3   0   50.21    1.49
  -5  -3   0   54.06    1.53
  -5  -3   0   53.35    1.28
   5  -3   0   51.60    1.53
  -5  -3   0   54.41    1.37
  -5  -3   0   52.27    1.26
  -5   3   0   52.61    1.22
  -5   3   0   52.73    1.49
  -5   3   0   51.63    1.45
  -5   3   0   52.59    1.21
  -5   3   0   53.42    1.51
  -5   3   0   52.34    1.69
   5   3   0   53.02    1.82
   5   3   0   53.37    1.46
  -5   3   0   51.37    1.70
   7  -3   0    4.00    0.47
   7  -3   0    4.85    0.43
  -7  -3   0    4.12    0.24
  -7  -3   0    4.14    0.24
   7  -3   0    3.80    0.39
  -7  -3   0    4.24    0.25
   7  -3   0    4.38    0.43
   7  -3   0    4.21    0.21
  -7  -3   0    4.12    0.24
  -7  -3   0    4.83    0.40
  -7  -3   0    4.14    0.25
   7   3   0    4.20    0.22
  -7   3   0    3.88    0.29
   7   3   0    4.27    0.29
  -7   3   0    4.11    0.39
  -7   3   0    3.73    0.45
  -7   3   0    3.00    0.37
  -7   3   0    4.16    0.28
   7   3   0    3.41    0.47
  -7   3   0    3.30    0.38
  -9  -3   0   36.69    1.01
  -9  -3   0   36.14    1.00
  -9  -3   0   36.60    1.12
   9  -3   0   36.88    0.93
  -9  -3   0   35.77    1.02
   9  -3   0   33.95    1.23
  -9  -3   0   36.35    1.00
   9  -3   0   35.40    1.25
   9  -3   0   35.04    1.38
  -9   3   0   37.75    1.27
   9   3   0   37.30    1.47
   9   3   0   35.82    1.01
  -9   3   0   33.92    1.20
   9   3   0   34.80    1.26
   9   3   0   37.57    0.98
  -9   3   0   33.40    1.24
  -9   3   0   35.56    1.10
  -9   3   0   34.18    1.36
 -11  -3   0    3.89    0.31
  11  -3   0    4.32    0.24
  11  -3   0    3.54    0.48
 -11  -3   0    3.79    0.30
 -11  -3   0    4.39    0.32
 -11  -3   0    4.45    0.31
  11  -3   0    4.56    0.50
  11  -3   0    4.57    0.49
 -11  -3   0    4.15    0.34
  11   3   0    4.33    0.26
  11   3   0    4.61    0.32
  11   3   0    4.14    0.24
  11   3   0    4.10    0.54
  11   3   0    4.46    0.48
 -11   3   0    3.56    0.38
  11   3   0    3.78    0.21
  11   3   0    3.98    0.24
 -11   3   0    4.57    0.50
 -11   3   0    3.79    0.45
 -11   3   0    3.70    0.49
 -11   3   0    3.79    0.44
  13  -3   0   21.51    0.71
  13  -3   0   22.70    0.83
  13  -3   0   21.26    1.01
 -13  -3   0   22.71    0.83
  13  -3   0   21.91    1.14
 -13  -3   0   23.03    0.83
 -13  -3   0   21.43    0.92
 -13  -3   0   23.40    0.85
  13  -3   0   20.83    1.01
  13   3   0   20.95    1.01
 -13   3   0   22.34    1.09
 -13   3   0   21.26    0.98
 -13   3   0   20.79    1.08
  13   3   0   23.88    0.83
  13   3   0   22.50    0.73
  13   3   0   22.03    1.14
  13   3   0   22.15    0.67
 -13   3   0   21.11    0.90
 -13   3   0   21.48    1.01
 -13   3   0   23.06    1.07
  15  -3   0   27.48    1.23
  15  -3   0   27.18    1.23
 -15  -3   0   26.90    1.15
  15  -3   0   28.71    1.39
  15  -3   0   28.55    1.02
 -15  -3   0   30.30    1.05
 -15  -3   0   28.08    1.06
  15  -3   0   28.25    0.92
 -15   3   0   28.04    1.32
 -15   3   0   29.75    1.28
  15   3   0   29.82    1.06
 -15   3   0   26.78    1.25
 -15   3   0   29.15    1.23
 -15   3   0   29.88    1.35
  15   3   0   28.97    0.94
  15   3   0   29.48    1.37
  15   3   0   29.81    1.27
 -15   3   0   28.92    1.13
  17  -3   0    6.53    0.70
 -17  -3   0    6.05    0.52
  17  -3   0    5.99    0.41
 -17  -3   0    5.51    0.53
 -17  -3   0    6.50    0.52
  17  -3   0    6.10    0.69
  17  -3   0    6.92    0.49
  17   3   0    6.85    0.70
 -17   3   0    5.84    0.67
  17   3   0    7.02    0.76
 -17   3   0    6.45    0.70
 -17   3   0    5.93    0.59
 -17   3   0    6.28    0.71
  17   3   0    6.63    0.44
 -17   3   0    7.31    0.63
  19  -3   0    1.53    0.42
 -19  -3   0    2.90    0.43
  19  -3   0    2.38    0.49
  19  -3   0    2.90    0.40
 -19  -3   0    1.74    0.38
  19   3   0    2.58    0.35
  19   3   0    2.47    0.46
 -19   3   0    1.99    0.48
 -19   3   0    2.59    0.50
 -19   3   0    2.94    0.50
 -19   3   0    2.97    0.46
  19   3   0    2.28    0.49
 -19   3   0    2.14    0.46
 -21  -3   0    8.25    0.73
 -21  -3   0    7.12    0.69
  21  -3   0    7.71    0.84
  21  -3   0    7.87    0.61
  21  -3   0    7.56    0.83
 -21   3   0    8.78    0.81
  21   3   0    7.23    0.53
 -21   3   0    6.97    0.81
  21   3   0    7.88    0.86
 -21   3   0    8.48    0.86
  23  -3   0    5.11    0.73
 -23  -3   0    5.30    0.70
 -23  -3   0    5.00    0.61
  23  -3   0    5.09    0.72
 -23   3   0    5.87    0.76
  23   3   0    5.38    0.73
  23   3   0    5.64    0.77
  23   3   0    5.26    0.55
 -23   3   0    5.98    0.80
  25  -3   0    0.22    0.31
 -25  -3   0    0.15    0.29
  25  -3   0    0.47    0.36
 -25   3   0    0.54    0.39
  25   3   0    0.45    0.27
  25   3   0    0.71    0.40
 -27  -3   0    1.50    0.45
  27  -3   0    1.39    0.50
  27   3   0    1.39    0.35
 -27   3   0    2.82    0.62
 -29  -3   0    3.72    0.67
  29  -3   0    3.33    0.69
 -29   3   0    3.18    0.66
   0  -4   0   40.68    1.13
   0  -4   0   40.89    1.15
   0  -4   0   41.13    1.29
   0  -4   0   42.39    1.18
   0  -4   0   40.18    1.21
   0   4   0   40.68    1.61
   0   4   0   40.61    1.40
   0   4   0   40.02    1.13
   0   4   0   38.34    1.01
   0   4   0   38.65    1.02
   2  -4   0   55.10    1.50
  -2  -4   0   54.71    1.42
   2  -4   0   54.57    1.51
  -2  -4   0   53.99    1.39
  -2  -4   0   53.22    1.38
   2  -4   0   53.34    1.53
  -2  -4   0   53.92    1.93
  -2  -4   0   54.81    1.57
   2  -4   0   53.23    1.91
  -2   4   0   54.57    1.78
   2   4   0   53.37    1.67
  -2   4   0   55.79    1.94
  -2   4   0   52.50    1.43
  -2   4   0   55.52    1.51
   2   4   0   56.57    2.00
  -4  -4   0   39.33    1.04
   4  -4   0   38.72    1.38
   4  -4   0   40.44    1.26
   4  -4   0   40.22    1.16
  -4  -4   0   34.96    1.25
   4  -4   0   42.48    1.60
  -4  -4   0   39.02    1.05
  -4  -4   0   40.99    1.07
  -4  -4   0   40.05    1.59
  -4  -4   0   40.45    1.16
   4   4   0   40.84    1.31
  -4   4   0   41.04    1.23
   4   4   0   40.76    1.65
  -4   4   0   41.25    1.56
  -4   4   0   39.98    1.17
  -4   4   0   40.86    1.50
  -4   4   0   41.62    1.28
  -6  -4   0   54.89    1.95
   6  -4   0   53.62    1.41
  -6  -4   0   55.40    1.37
  -6  -4   0   54.84    1.49
   6  -4   0   55.11    1.96
  -6  -4   0   55.04    1.36
  -6  -4   0   53.15    1.34
  -6  -4   0   55.10    1.35
   6  -4   0   55.55    1.66
   6  -4   0   51.88    1.81
  -6   4   0   55.06    1.65
  -6   4   0   53.09    1.56
   6   4   0   54.65    1.29
   6   4   0   54.87    1.60
   6   4   0   56.87    2.06
  -6   4   0   52.71    1.86
  -6   4   0   53.74    1.62
  -6   4   0   57.46    1.93
  -8  -4   0   12.76    0.48
  -8  -4   0   11.90    0.46
   8  -4   0   14.51    0.73
  -8  -4   0   13.54    0.48
   8  -4   0   12.37    0.82
   8  -4   0   13.17    0.42
   8  -4   0   12.63    0.41
   8  -4   0   13.09    0.78
  -8  -4   0   12.41    0.51
  -8  -4   0   13.03    0.47
   8  -4   0   12.01    0.69
  -8   4   0   13.12    0.82
   8   4   0   13.84    0.47
   8   4   0   13.71    0.93
  -8   4   0   13.42    0.45
  -8   4   0   13.88    0.45
  -8   4   0   13.20    0.66
  -8   4   0   12.25    0.70
  -8   4   0   12.70    0.69
   8   4   0   13.74    0.59
  10  -4   0   30.35    1.34
 -10  -4   0   30.02    0.90
  10  -4   0   30.02    1.21
 -10  -4   0   29.92    1.00
 -10  -4   0   29.79    0.89
  10  -4   0   28.59    1.18
 -10  -4   0   28.26    0.88
 -10   4   0   28.64    1.19
 -10   4   0   28.75    1.19
 -10   4   0   30.16    1.14
 -10   4   0   30.18    0.95
  10   4   0   29.69    0.88
 -10   4   0   30.02    0.92
  10   4   0   29.41    0.95
 -10   4   0   28.71    1.33
  10   4   0   30.50    1.46
  12  -4   0   30.13    1.24
 -12  -4   0   28.54    0.93
 -12  -4   0   27.15    1.02
  12  -4   0   28.80    1.36
  12  -4   0   28.48    1.22
 -12  -4   0   27.96    0.91
  12   4   0   28.00    0.87
 -12   4   0   27.37    1.20
 -12   4   0   26.90    0.94
 -12   4   0   28.52    1.34
 -12   4   0   27.65    1.00
  12   4   0   27.55    1.42
 -12   4   0   27.90    1.16
 -12   4   0   27.52    1.22
  12   4   0   29.04    0.92
  14  -4   0    5.72    0.65
 -14  -4   0    5.28    0.40
  14  -4   0    5.28    0.62
  14  -4   0    5.67    0.41
 -14  -4   0    4.42    0.42
  14   4   0    5.80    0.74
 -14   4   0    4.69    0.56
 -14   4   0    5.36    0.62
 -14   4   0    5.13    0.47
 -14   4   0    5.42    0.61
  14   4   0    5.92    0.43
 -14   4   0    4.56    0.62
 -14   4   0    4.76    0.48
  16  -4   0    2.59    0.35
 -16  -4   0    2.38    0.34
  16  -4   0    2.15    0.45
 -16  -4   0    2.47    0.38
  16  -4   0    2.20    0.45
 -16   4   0    3.37    0.52
 -16   4   0    3.07    0.52
 -16   4   0    1.93    0.44
  16   4   0    2.37    0.53
 -16   4   0    1.72    0.46
 -16   4   0    2.87    0.41
  18  -4   0   26.48    1.33
 -18  -4   0   24.17    1.00
 -18  -4   0   24.53    1.16
  18  -4   0   22.36    1.25
 -18   4   0   22.13    1.29
  18   4   0   25.25    1.43
 -18   4   0   23.70    1.28
 -18   4   0   26.19    1.34
 -18   4   0   23.49    1.09
  18   4   0   23.41    1.26
 -18   4   0   25.66    1.26
  20  -4   0    7.20    0.83
  20  -4   0    5.68    0.77
 -20  -4   0    5.48    0.63
 -20  -4   0    4.94    0.55
 -20   4   0    6.38    0.76
  20   4   0    5.69    0.81
  20   4   0    5.67    0.73
 -20   4   0    6.50    0.65
 -20   4   0    4.29    0.69
 -20   4   0    6.13    0.77
 -20   4   0    4.14    0.68
  22  -4   0    1.63    0.49
 -22  -4   0    1.70    0.39
  22  -4   0    2.04    0.55
 -22   4   0    2.08    0.45
 -22   4   0    1.45    0.45
  22   4   0    1.80    0.56
  24  -4   0   11.72    1.17
 -24  -4   0   11.72    0.83
  24  -4   0   11.01    0.97
  24   4   0   13.63    1.13
 -24   4   0   11.74    0.88
 -24   4   0   11.68    0.99
  26  -4   0    2.65    0.61
 -26  -4   0    1.94    0.48
  26   4   0    2.21    0.62
 -26   4   0    3.22    0.67
  -1  -5   0   54.07    1.64
  -1  -5   0   55.62    1.52
   1  -5   0   55.34    1.59
   1  -5   0   54.22    1.60
   1  -5   0   54.26    2.10
  -1  -5   0   55.68    2.13
   1   5   0   56.93    1.54
  -1   5   0   55.68    1.39
   1   5   0   60.16    2.22
  -1   5   0   57.82    1.60
  -1   5   0   53.37    1.89
  -1   5   0   52.74    1.37
  -1   5   0   58.70    2.17
   1   5   0   56.53    1.88
   3  -5   0   50.11    1.68
   3  -5   0   47.91    1.49
   3  -5   0   48.14    1.42
  -3  -5   0   48.41    1.32
  -3  -5   0   48.98    1.51
  -3  -5   0   46.82    1.93
   3  -5   0   45.41    1.89
  -3   5   0   48.57    1.94
  -3   5   0   48.90    1.38
  -3   5   0   49.22    1.79
   3   5   0   50.64    2.03
   3   5   0   49.90    1.66
  -3   5   0   50.88    1.53
  -5  -5   0   33.31    1.55
   5  -5   0   32.73    1.55
   5  -5   0   35.37    1.39
  -5  -5   0   33.18    0.97
  -5  -5   0   35.39    1.12
   5  -5   0   34.80    1.24
  -5   5   0   32.39    1.43
   5   5   0   34.74    1.64
  -5   5   0   33.62    1.24
  -5   5   0   33.10    1.14
   5   5   0   34.42    1.26
  -5   5   0   38.56    1.63
   7  -5   0   39.01    1.54
  -7  -5   0   38.61    1.71
   7  -5   0   38.42    1.39
   7  -5   0   36.12    1.66
  -7  -5   0   39.00    1.05
   7  -5   0   39.18    1.38
  -7  -5   0   39.68    1.20
  -7   5   0   38.44    1.41
   7   5   0   37.74    1.31
  -7   5   0   37.23    1.63
   7   5   0   39.66    1.80
   7   5   0   38.23    1.04
  -7   5   0   36.50    1.31
  -7   5   0   36.23    1.58
   9  -5   0    1.03    0.32
  -9  -5   0    1.92    0.45
  -9  -5   0    1.48    0.22
  -9  -5   0    1.51    0.19
   9  -5   0    1.32    0.33
   9  -5   0    1.42    0.39
   9  -5   0    0.98    0.31
   9   5   0    1.26    0.20
  -9   5   0    1.17    0.36
   9   5   0    1.59    0.28
  -9   5   0    0.88    0.30
  -9   5   0    1.73    0.35
   9   5   0    1.55    0.45
 -11  -5   0    4.60    0.37
  11  -5   0    4.46    0.57
  11  -5   0    5.32    0.62
 -11  -5   0    5.46    0.33
 -11   5   0    5.11    0.68
 -11   5   0    5.08    0.57
  11   5   0    5.54    0.79
  11   5   0    5.54    0.36
 -11   5   0    5.03    0.60
 -13  -5   0   13.74    0.69
  13  -5   0   14.17    0.88
  13  -5   0   12.74    0.88
 -13  -5   0   13.73    0.59
  13   5   0   14.16    1.09
 -13   5   0   13.68    0.86
 -13   5   0   12.54    0.56
 -13   5   0   13.09    0.88
 -13   5   0   13.80    0.57
  13   5   0   14.20    0.62
 -13   5   0   13.88    1.01
  15  -5   0    1.35    0.40
 -15  -5   0    0.58    0.21
  15  -5   0    0.38    0.33
 -15  -5   0    0.44    0.21
 -15   5   0    0.49    0.19
 -15   5   0    0.42    0.32
 -15   5   0    0.24    0.29
  15   5   0    0.01    0.34
 -15   5   0    0.30    0.31
 -15   5   0    0.40    0.20
  17  -5   0    4.49    0.68
  17  -5   0    5.05    0.68
 -17  -5   0    4.17    0.44
 -17   5   0    3.15    0.56
 -17   5   0    2.55    0.54
  17   5   0    3.82    0.71
 -17   5   0    4.17    0.44
 -17   5   0    3.78    0.44
 -17   5   0    3.30    0.58
  19  -5   0   10.42    0.88
 -19  -5   0   11.16    0.65
  19  -5   0   10.11    1.02
 -19   5   0    9.13    0.99
  19   5   0    9.35    1.10
 -19   5   0    9.48    0.98
  21  -5   0    1.57    0.50
  21  -5   0    1.07    0.43
 -21  -5   0    0.87    0.31
 -21   5   0    0.54    0.28
  21   5   0    1.33    0.53
 -23  -5   0    2.80    0.48
  23  -5   0    3.17    0.67
  23  -5   0    2.95    0.66
 -23   5   0    2.22    0.44
  23   5   0    2.96    0.71
 -25  -5   0    0.57    0.34
  25  -5   0    0.38    0.41
 -25   5   0    1.44    0.42
  25   5   0    0.78    0.53
   0  -6   0  110.44    3.26
   0  -6   0  112.17    2.85
   0  -6   0  106.99    3.63
   0   6   0  114.13    2.88
   0   6   0  117.85    3.80
   0   6   0  111.48    3.31
  -2  -6   0   16.71    0.81
  -2  -6   0   14.39    1.08
   2  -6   0   13.88    0.82
  -2  -6   0   15.78    0.67
   2  -6   0   16.24    0.77
   2  -6   0   16.17    0.90
   2  -6   0   13.70    1.04
  -2   6   0   15.35    0.78
  -2   6   0   15.00    0.95
   2   6   0   16.69    0.94
  -2   6   0   16.94    1.18
   2   6   0   16.82    0.72
   2   6   0   16.19    1.16
   4  -6   0    3.69    0.46
  -4  -6   0    3.39    0.59
   4  -6   0    3.76    0.66
  -4  -6   0    3.31    0.32
   4  -6   0    3.84    0.52
  -4  -6   0    2.90    0.36
  -4   6   0    2.33    0.49
   4   6   0    2.56    0.57
  -4   6   0    2.38    0.39
  -4   6   0    3.08    0.63
   4   6   0    2.68    0.43
  -4   6   0    2.73    0.32
   6  -6   0   28.20    1.21
   6  -6   0   30.29    1.60
  -6  -6   0   31.13    0.92
  -6  -6   0   30.12    1.09
  -6  -6   0   29.85    1.59
   6   6   0   30.55    0.95
  -6   6   0   30.36    1.50
  -6   6   0   31.10    1.59
  -6   6   0   30.95    1.11
   6   6   0   28.27    1.21
  -6   6   0   30.20    1.27
   6   6   0   29.66    1.66
   8  -6   0   14.98    1.12
   8  -6   0   14.72    0.88
  -8  -6   0   18.64    1.22
  -8  -6   0   17.19    0.60
  -8  -6   0   17.08    0.74
  -8   6   0   16.62    0.83
   8   6   0   17.19    0.65
  -8   6   0   16.35    0.93
   8   6   0   17.60    1.26
  -8   6   0   17.00    1.11
  10  -6   0    3.80    0.56
 -10  -6   0    3.56    0.29
 -10  -6   0    4.22    0.69
 -10   6   0    5.19    0.63
  10   6   0    5.58    0.86
 -10   6   0    3.56    0.62
  10   6   0    3.84    0.35
 -10   6   0    3.46    0.48
 -12  -6   0    2.27    0.55
  12  -6   0    2.04    0.45
 -12  -6   0    1.92    0.24
 -12   6   0    2.44    0.44
 -12   6   0    1.85    0.50
  12   6   0    2.50    0.33
 -12   6   0    2.16    0.48
  12   6   0    1.83    0.56
  14  -6   0   12.62    0.93
 -14  -6   0   11.88    1.03
 -14   6   0   13.96    0.96
  14   6   0   12.19    1.12
 -14   6   0   13.37    0.90
 -14   6   0   13.07    1.07
  16  -6   0    3.67    0.63
 -16   6   0    4.65    0.72
  16   6   0    5.76    0.92
 -16   6   0    4.41    0.72
  18  -6   0    0.60    0.41
 -18   6   0    1.01    0.20
 -18   6   0    0.77    0.42
  18   6   0    1.06    0.51
 -18   6   0    0.82    0.20
  20  -6   0    2.70    0.63
 -20   6   0    2.23    0.33
  20   6   0    2.22    0.67
 -20   6   0    2.53    0.36
 -20   6   0    1.26    0.54
 -22   6   0    0.50    0.26
  -1  -7   0   -0.16    0.26
  -1  -7   0    0.33    0.22
   1  -7   0   -0.11    0.27
   1  -7   0   -0.02    0.20
  -1   7   0   -0.10    0.32
  -1   7   0   -0.18    0.23
   1   7   0    0.20    0.21
   1   7   0    0.12    0.34
   1   7   0   -0.20    0.25
  -1   7   0    0.52    0.25
   3  -7   0    4.76    0.54
  -3  -7   0    6.92    0.95
   3  -7   0    6.09    0.90
  -3  -7   0    6.00    0.44
  -3   7   0    5.59    0.89
  -3   7   0    5.45    0.60
   3   7   0    6.26    0.49
   3   7   0    7.03    1.00
  -3   7   0    5.62    0.75
  -5  -7   0    6.08    0.88
   5  -7   0    6.97    0.92
   5  -7   0    7.12    0.61
   5   7   0    5.90    0.92
  -5   7   0    6.69    0.82
  -5   7   0    7.32    0.73
   5   7   0    6.58    0.48
  -5   7   0    8.57    1.04
   7  -7   0   17.91    0.98
  -7  -7   0   16.67    1.27
   7  -7   0   18.38    1.34
   7   7   0   18.88    1.41
  -7   7   0   18.07    1.23
  -7   7   0   17.89    1.03
   9  -7   0    7.37    0.78
  -9  -7   0    7.45    1.01
  -9   7   0    7.46    0.59
  -9   7   0    8.43    0.85
   9   7   0    5.54    0.91
  -9   7   0    6.00    0.83
  11  -7   0    7.34    0.81
  11   7   0    6.82    1.01
 -11   7   0    6.95    0.69
 -11   7   0    6.97    0.82
  13  -7   0   12.32    0.97
  13   7   0   11.13    1.29
 -13   7   0   12.90    1.01
  15  -7   0    7.24    0.88
  15   7   0    6.07    1.01
 -15   7   0    5.90    0.81
  17  -7   0   11.65    1.16
  17   7   0   10.71    1.31
 -17   7   0   12.37    1.20
   0   8   0   22.46    1.66
   0   8   0   23.87    1.11
   2  -8   0    5.53    0.59
  -2   8   0    4.50    0.60
   2   8   0    6.97    1.06
   2   8   0    5.07    0.56
  -2   8   0    5.61    0.97
  -2   8   0    6.55    0.85
   4  -8   0    4.71    0.59
  -4   8   0    5.83    0.70
   4   8   0    6.07    1.02
  -4   8   0    4.75    0.93
   4   8   0    5.92    0.57
  -4   8   0    4.85    0.78
   6  -8   0    2.67    0.51
   6   8   0    2.88    0.75
   6   8   0    2.77    0.40
  -6   8   0    3.21    0.57
   8  -8   0    1.68    0.45
   8   8   0    1.16    0.28
  -8   8   0    1.52    0.49
   8   8   0    1.98    0.67
 -30   0   1   17.59    1.27
  28   0  -1    1.72    0.45
 -28   0   1    1.66    0.49
 -28   0   1    3.07    0.66
  26   0  -1    2.01    0.49
 -26   0   1    1.14    0.41
 -26   0   1    0.92    0.44
  26   0  -1    1.26    0.40
  24   0  -1   17.09    1.06
 -24   0   1   21.08    1.16
  24   0  -1   21.20    1.15
  24   0  -1   19.03    1.09
 -24   0   1   19.16    1.19
  22   0  -1    0.27    0.26
 -22   0   1   -0.45    0.26
  22   0  -1   -0.01    0.19
 -22   0   1   -0.20    0.24
  22   0  -1    0.44    0.28
 -20   0   1   36.35    1.49
  20   0  -1   38.15    1.62
 -20   0   1   38.64    1.57
  20   0  -1   36.76    1.48
  20   0  -1   38.47    1.48
 -20   0   1   38.41    1.70
  20   0  -1   37.04    1.47
  20   0  -1   35.86    1.32
 -18   0   1   93.62    3.05
 -18   0   1   93.81    2.72
 -18   0   1   93.82    2.60
  18   0  -1   94.37    2.68
 -18   0   1   95.08    2.79
  18   0  -1   90.20    2.63
  18   0  -1   95.89    2.97
  18   0  -1   91.52    2.48
  18   0  -1   88.98    2.68
 -18   0   1   93.21    2.62
  16   0  -1    2.86    0.42
  16   0  -1    2.30    0.32
  16   0  -1    2.51    0.38
  16   0  -1    2.39    0.36
 -16   0   1    2.42    0.40
  16   0  -1    1.93    0.36
 -16   0   1    2.15    0.36
 -16   0   1    2.29    0.39
 -16   0   1    2.16    0.34
  16   0  -1    2.61    0.38
 -16   0   1    1.88    0.34
  16   0  -1    2.50    0.40
 -14   0   1   66.83    2.03
 -14   0   1   72.47    2.32
  14   0  -1   70.03    2.00
  14   0  -1   69.62    2.03
  14   0  -1   70.17    2.01
 -14   0   1   70.82    2.11
  14   0  -1   71.68    2.26
 -14   0   1   68.61    1.98
  14   0  -1   72.33    2.05
 -14   0   1   72.47    1.97
  14   0  -1   70.45    1.91
 -14   0   1   71.75    2.00
  14   0  -1   73.26    2.10
  14   0  -1   68.96    2.06
  12   0  -1   34.98    1.18
  12   0  -1   34.43    1.30
 -12   0   1   36.22    1.20
 -12   0   1   33.52    1.32
  12   0  -1   36.08    1.16
  12   0  -1   35.21    1.22
  12   0  -1   36.17    1.22
  12   0  -1   34.84    1.18
 -12   0   1   36.57    1.16
  12   0  -1   34.81    1.11
 -12   0   1   35.12    1.19
  12   0  -1   35.22    1.15
 -12   0   1   34.74    1.23
 -12   0   1   33.61    1.15
 -12   0   1   35.36    1.14
  10   0  -1   12.37    0.61
 -10   0   1   12.27    0.59
  10   0  -1   12.65    0.57
  10   0  -1   13.57    0.61
 -10   0   1   12.41    0.67
  10   0  -1   13.18    0.63
  10   0  -1   12.95    0.60
 -10   0   1   12.87    0.60
 -10   0   1   13.70    0.59
  10   0  -1   13.33    0.67
 -10   0   1   14.19    0.60
  10   0  -1   13.10    0.58
 -10   0   1   12.82    0.60
  10   0  -1   12.76    0.56
 -10   0   1   12.71    0.63
 -10   0   1   14.00    0.62
  -8   0   1  116.68    3.16
  -8   0   1  121.09    2.72
   8   0  -1  113.14    2.78
  -8   0   1  117.68    2.83
  -8   0   1  121.03    2.88
   8   0  -1  117.08    2.84
   8   0  -1  116.79    2.83
  -8   0   1  119.91    2.91
  -8   0   1  119.83    2.77
   8   0  -1  121.04    2.78
  -8   0   1  119.86    2.85
   8   0  -1  117.30    3.15
   8   0  -1  120.08    2.86
  -8   0   1  110.86    2.76
   6   0  -1  341.38    7.45
  -6   0   1  329.95    7.30
   6   0  -1  340.29    7.32
   6   0  -1  342.99    7.44
   6   0  -1  341.34    7.44
  -6   0   1  338.36    7.43
   6   0  -1  342.86    8.29
  -6   0   1  344.29    8.30
  -6   0   1  334.44    7.45
  -6   0   1  339.52    7.70
  -6   0   1  346.78    7.30
  -6   0   1  338.82    7.15
   6   0  -1  347.58    7.31
  -6   0   1  340.70    7.44
  -4   0   1  142.10    3.15
  -4   0   1  140.56    3.08
  -4   0   1  134.61    3.09
  -4   0   1  143.55    3.17
   4   0  -1  140.60    3.15
   4   0  -1  142.77    3.16
   4   0  -1  143.43    3.16
  -4   0   1  139.67    3.02
  -4   0   1  141.82    3.14
   4   0  -1  141.77    3.08
  -4   0   1  138.55    3.15
   4   0  -1  135.02    3.09
  -4   0   1  138.86    3.51
   2   0  -1  167.84    3.54
  -2   0   1  169.98    3.55
  -2   0   1  147.09    3.39
   2   0  -1  145.92    3.47
  -2   0   1  171.48    3.54
   2   0  -1  167.31    3.95
  -2   0   1  156.13    3.47
   2   0  -1  170.35    3.54
   0   0   1    0.02    0.03
   0   0  -1    0.00    0.02
   0   0   1    0.03    0.03
   0   0   1    0.01    0.03
   0   0  -1    0.02    0.03
   0   0  -1   -0.03    0.03
   0   0  -1   -0.02    0.03
   0   0   1    0.00    0.03
   0   0   1    0.01    0.03
   2   0   1   10.98    0.37
   2   0   1   11.94    0.38
  -2   0  -1   10.97    0.34
  -2   0  -1   11.80    0.36
   2   0   1   11.29    0.34
   2   0   1   10.81    0.33
   2   0   1    9.10    0.34
   4   0   1    5.33    0.27
  -4   0  -1    5.13    0.29
  -4   0  -1    5.22    0.28
  -4   0  -1    4.94    0.24
  -4   0  -1    4.99    0.26
  -4   0  -1    5.28    0.28
  -4   0  -1    4.28    0.25
  -4   0  -1    4.89    0.24
   4   0   1    4.56    0.27
   4   0   1    5.06    0.24
   4   0   1    4.63    0.27
  -4   0  -1    5.27    0.27
  -4   0  -1    4.75    0.29
   4   0   1    5.14    0.23
   4   0   1    4.94    0.25
   6   0   1  172.10    4.00
  -6   0  -1  169.74    3.99
  -6   0  -1  170.97    3.82
   6   0   1  162.31    3.81
   6   0   1  169.10    3.64
   6   0   1  170.40    3.79
  -6   0  -1  172.77    4.27
   6   0   1  169.77    4.25
   6   0   1  168.66    3.88
   6   0   1  169.66    3.82
   6   0   1  173.46    4.28
  -6   0  -1  167.90    3.85
  -6   0  -1  162.57    3.74
  -6   0  -1  172.04    3.67
  -6   0  -1  170.64    3.88
   6   0   1  163.39    3.97
   6   0   1  171.43    3.85
  -8   0  -1   42.61    1.20
   8   0   1   42.54    1.22
  -8   0  -1   43.18    1.22
   8   0   1   42.54    1.18
   8   0   1   44.45    1.36
   8   0   1   43.41    1.39
  -8   0  -1   44.48    1.19
  -8   0  -1   44.58    1.18
   8   0   1   41.20    1.21
   8   0   1   43.35    1.30
  -8   0  -1   44.75    1.30
   8   0   1   42.71    1.23
   8   0   1   45.42    1.24
  -8   0  -1   41.58    1.25
   8   0   1   43.89    1.27
   8   0   1   43.10    1.15
  10   0   1  169.57    3.94
  10   0   1  166.10    3.91
 -10   0  -1  164.10    4.40
  10   0   1  167.18    4.41
  10   0   1  170.08    3.94
 -10   0  -1  167.31    4.10
 -10   0  -1  169.05    3.78
 -10   0  -1  165.87    3.93
  10   0   1  166.97    3.97
 -10   0  -1  167.52    3.99
  10   0   1  168.88    3.74
  10   0   1  167.61    4.12
 -10   0  -1  163.99    3.85
 -10   0  -1  169.92    3.96
  10   0   1  166.62    3.89
  10   0   1  163.73    4.36
  10   0   1  167.15    3.96
  12   0   1  108.26    2.79
  12   0   1  103.46    2.72
  12   0   1  108.26    2.75
  12   0   1  108.33    3.08
  12   0   1  108.79    2.71
 -12   0  -1  109.64    2.65
  12   0   1  110.68    3.05
  12   0   1  106.54    2.58
 -12   0  -1  106.93    2.81
 -12   0  -1  108.14    2.76
  12   0   1  105.57    2.73
 -12   0  -1  106.88    2.70
 -12   0  -1  101.27    3.05
  12   0   1  110.33    2.89
 -12   0  -1  106.37    2.67
  14   0   1    2.14    0.30
  14   0   1    2.57    0.36
  14   0   1    2.09    0.29
 -14   0  -1    2.46    0.32
  14   0   1    2.34    0.36
 -14   0  -1    2.53    0.37
 -14   0  -1    2.51    0.34
  14   0   1    2.74    0.38
  14   0   1    1.60    0.31
  14   0   1    2.24    0.36
  14   0   1    2.42    0.38
 -14   0  -1    2.19    0.37
 -14   0  -1    1.66    0.31
  14   0   1    1.50    0.29
  14   0   1    1.84    0.32
 -16   0  -1    8.58    0.57
  16   0   1    8.41    0.61
 -16   0  -1    8.75    0.64
  16   0   1    9.36    0.55
  16   0   1    9.95    0.67
  16   0   1    8.05    0.58
 -16   0  -1    8.34    0.65
  16   0   1    8.25    0.64
  16   0   1    8.31    0.57
  16   0   1    9.48    0.61
  16   0   1    9.75    0.61
 -16   0  -1    8.19    0.57
  16   0   1    8.62    0.53
  16   0   1    9.14    0.63
 -16   0  -1    8.20    0.59
  18   0   1    6.19    0.61
  18   0   1    6.44    0.70
  18   0   1    4.75    0.53
 -18   0  -1    6.08    0.62
  18   0   1    5.25    0.61
  18   0   1    5.25    0.49
 -18   0  -1    4.46    0.53
  18   0   1    4.76    0.56
 -18   0  -1    4.90    0.62
  18   0   1    6.58    0.69
  18   0   1    5.04    0.56
 -18   0  -1    4.58    0.52
 -20   0  -1   30.39    1.35
 -20   0  -1   26.57    1.38
  20   0   1   28.25    1.23
  20   0   1   29.54    1.28
  20   0   1   28.35    1.10
  20   0   1   29.03    1.32
 -20   0  -1   28.87    1.27
  20   0   1   27.77    1.25
  22   0   1   38.66    1.55
  22   0   1   35.09    1.52
 -22   0  -1   39.96    1.67
 -22   0  -1   38.78    1.59
  22   0   1   38.14    1.57
  22   0   1   39.48    1.66
  22   0   1   39.26    1.37
 -22   0  -1   38.39    1.78
 -24   0  -1    4.61    0.65
  24   0   1    4.52    0.62
  24   0   1    5.25    0.68
  24   0   1    5.17    0.66
 -24   0  -1    4.10    0.60
  24   0   1    4.79    0.66
 -26   0  -1    2.43    0.53
 -26   0  -1    2.00    0.52
  26   0   1    1.28    0.41
  26   0   1    2.39    0.52
  26   0   1    2.45    0.50
 -28   0  -1    3.68    0.65
 -30   0  -1    2.52    0.60
 -31  -1   1    9.39    1.06
  31   1  -1   10.56    0.57
 -31   1   1   10.70    1.15
 -29  -1   1    8.25    0.92
  29  -1  -1    7.69    0.88
  29   1  -1    7.92    0.53
 -29   1   1    7.42    0.93
  27  -1  -1    0.28    0.31
  27  -1  -1    0.31    0.30
 -27  -1   1   -0.40    0.24
  27   1  -1    0.24    0.18
 -27   1   1    0.54    0.35
  27   1  -1    0.27    0.33
 -27   1   1   -0.05    0.39
 -25  -1   1    6.18    0.74
  25  -1  -1    5.83    0.76
  25  -1  -1    6.24    0.71
 -25  -1   1    6.61    0.81
  25  -1  -1    5.61    0.74
  25   1  -1    6.46    0.73
 -25   1   1    6.80    0.84
  25   1  -1    6.77    0.78
  25   1  -1    5.89    0.47
 -25   1   1    6.56    0.82
 -23  -1   1    3.17    0.54
  23  -1  -1    3.53    0.57
  23  -1  -1    3.33    0.56
  23  -1  -1    3.57    0.52
 -23  -1   1    3.48    0.60
 -23  -1   1    3.27    0.55
 -23   1   1    2.63    0.52
  23   1  -1    3.40    0.40
  23   1  -1    2.79    0.51
  23   1  -1    3.31    0.50
 -23   1   1    2.91    0.54
 -21  -1   1    1.82    0.44
 -21  -1   1    1.96    0.43
  21  -1  -1    2.39    0.42
 -21  -1   1    1.83    0.42
  21  -1  -1    2.92    0.51
  21  -1  -1    1.56    0.39
 -21   1   1    1.82    0.44
  21   1  -1    1.93    0.38
  21   1  -1    2.32    0.33
  21   1  -1    2.32    0.43
 -21   1   1    1.99    0.43
  21   1  -1    2.60    0.45
  19  -1  -1   35.19    1.60
  19  -1  -1   35.29    1.47
  19  -1  -1   36.58    1.35
 -19  -1   1   35.72    1.46
 -19  -1   1   31.91    1.53
 -19  -1   1   38.31    1.44
  19  -1  -1   36.49    1.45
 -19   1   1   37.53    1.49
  19   1  -1   34.70    1.43
 -19   1   1   35.70    1.43
  19   1  -1   38.89    1.44
  19   1  -1   35.84    1.17
 -19   1   1   35.72    1.40
  19   1  -1   33.99    1.35
 -19   1   1   36.86    1.64
 -19   1   1   37.03    1.55
  19   1  -1   36.39    1.36
 -17  -1   1   89.95    2.62
  17  -1  -1   85.02    2.61
 -17  -1   1   84.69    2.84
  17  -1  -1   91.86    2.48
 -17  -1   1   92.17    2.57
  17  -1  -1   84.86    2.88
  17  -1  -1   87.48    2.60
 -17  -1   1   92.02    2.42
 -17   1   1   91.61    2.53
 -17   1   1   93.58    2.65
  17   1  -1   89.76    2.60
  17   1  -1   90.13    2.43
 -17   1   1   89.89    2.59
  17   1  -1   88.86    2.48
  17   1  -1   86.61    2.50
  17   1  -1   92.41    2.74
  17   1  -1   91.67    2.57
  17   1  -1   89.31    2.25
 -17   1   1   91.57    2.95
 -17   1   1   88.05    2.69
  17   1  -1   86.19    2.51
  15  -1  -1   16.13    0.72
 -15  -1   1   15.24    0.78
 -15  -1   1   14.47    0.69
  15  -1  -1   15.43    0.81
 -15  -1   1   13.25    0.72
  15  -1  -1   16.10    0.89
 -15  -1   1   14.03    0.82
  15  -1  -1   15.18    0.80
 -15   1   1   14.75    0.87
  15   1  -1   14.07    0.76
 -15   1   1   14.21    0.78
  15   1  -1   14.11    0.61
  15   1  -1   12.82    0.68
 -15   1   1   13.92    0.77
  15   1  -1   13.95    0.72
  15   1  -1   13.87    0.74
  15   1  -1   14.01    0.64
 -15   1   1   14.62    0.74
  15   1  -1   13.22    0.72
 -15   1   1   12.98    0.79
 -15   1   1   13.37    0.67
  15   1  -1   13.74    0.74
  13  -1  -1  170.74    4.27
  13  -1  -1  171.08    4.71
  13  -1  -1  174.41    4.04
 -13  -1   1  171.31    4.14
  13  -1  -1  170.91    4.04
  13  -1  -1  170.13    4.23
 -13  -1   1  171.78    4.20
 -13  -1   1  166.38    4.62
  13  -1  -1  170.11    4.25
 -13  -1   1  166.10    3.99
  13   1  -1  173.35    4.17
 -13   1   1  171.76    4.17
 -13   1   1  169.88    4.71
  13   1  -1  176.88    3.84
  13   1  -1  177.90    4.21
  13   1  -1  169.07    4.10
 -13   1   1  173.53    4.02
 -13   1   1  180.93    4.21
 -13   1   1  169.31    4.05
 -13   1   1  176.28    4.32
  13   1  -1  171.86    4.13
  13   1  -1  170.76    4.53
 -13   1   1  171.93    4.24
 -11  -1   1    4.74    0.41
  11  -1  -1    5.73    0.48
 -11  -1   1    4.82    0.35
  11  -1  -1    5.21    0.45
  11  -1  -1    5.00    0.36
  11  -1  -1    5.32    0.43
  11  -1  -1    4.79    0.42
  11  -1  -1    4.93    0.44
 -11  -1   1    5.23    0.43
 -11  -1   1    5.07    0.39
 -11  -1   1    4.75    0.38
 -11  -1   1    5.31    0.40
  11  -1  -1    4.96    0.49
  11   1  -1    5.59    0.41
  11   1  -1    4.93    0.38
  11   1  -1    5.28    0.42
 -11   1   1    5.12    0.41
 -11   1   1    5.34    0.36
 -11   1   1    5.06    0.35
 -11   1   1    5.13    0.48
 -11   1   1    5.00    0.48
  11   1  -1    5.19    0.32
  11   1  -1    5.16    0.38
 -11   1   1    5.70    0.45
  11   1  -1    4.72    0.39
 -11   1   1    5.04    0.46
 -11   1   1    4.85    0.42
  -9  -1   1   24.98    0.80
  -9  -1   1   24.97    0.95
   9  -1  -1   25.89    1.02
   9  -1  -1   24.98    0.92
   9  -1  -1   24.58    0.90
   9  -1  -1   26.70    0.80
  -9  -1   1   25.49    0.85
  -9  -1   1   23.50    0.86
  -9  -1   1   23.71    0.89
   9  -1  -1   24.35    0.92
   9  -1  -1   24.77    0.86
   9  -1  -1   25.48    0.95
  -9  -1   1   24.12    0.84
  -9  -1   1   24.54    0.95
   9   1  -1   25.37    0.91
  -9   1   1   26.69    0.92
   9   1  -1   26.41    0.74
   9   1  -1   27.27    0.93
  -9   1   1   26.75    0.80
  -9   1   1   26.23    0.95
  -9   1   1   25.83    0.79
   9   1  -1   25.62    0.86
  -9   1   1   24.42    1.00
  -9   1   1   26.36    0.92
   9   1  -1   24.12    0.82
  -9   1   1   26.34    0.87
   9   1  -1   25.90    0.85
  -9   1   1   25.74    0.91
  -7  -1   1  268.33    6.47
  -7  -1   1  255.90    5.78
  -7  -1   1  265.59    5.79
   7  -1  -1  266.21    5.64
   7  -1  -1  253.35    5.75
   7  -1  -1  271.07    5.65
   7  -1  -1  262.35    5.88
   7  -1  -1  265.18    6.09
   7  -1  -1  265.38    5.90
  -7  -1   1  264.33    5.65
   7  -1  -1  272.96    6.57
   7  -1  -1  256.53    5.87
  -7  -1   1  259.12    5.81
  -7  -1   1  261.08    5.80
  -7  -1   1  262.12    5.79
   7   1  -1  263.31    6.42
  -7   1   1  255.62    5.78
   7   1  -1  265.25    5.78
  -7   1   1  257.62    5.62
  -7   1   1  257.93    5.86
   7   1  -1  262.03    5.47
   7   1  -1  250.71    5.76
  -7   1   1  257.86    5.90
   7   1  -1  260.24    5.79
   7   1  -1  260.66    5.80
  -7   1   1  262.30    5.91
  -7   1   1  264.27    5.87
  -7   1   1  264.08    5.63
  -5  -1   1   17.97    0.58
   5  -1  -1   18.09    0.62
  -5  -1   1   18.59    0.60
   5  -1  -1   18.76    0.51
  -5  -1   1   17.64    0.58
  -5  -1   1   18.25    0.54
  -5  -1   1   19.82    0.66
   5  -1  -1   17.77    0.70
   5  -1  -1   18.26    0.64
  -5  -1   1   18.42    0.58
   5  -1  -1   18.18    0.64
   5  -1  -1   17.92    0.64
  -5   1   1   18.20    0.59
   5   1  -1   19.43    0.48
   5   1  -1   18.06    0.49
   5   1  -1   19.04    0.62
   5   1  -1   18.64    0.57
  -5   1   1   16.94    0.62
  -5   1   1   18.39    0.50
   5   1  -1   18.50    0.59
   5   1  -1   18.20    0.57
  -5   1   1   17.61    0.62
  -5   1   1   17.11    0.49
  -5   1   1   17.05    0.61
   5   1  -1   18.23    0.59
  -5   1   1   17.88    0.64
   3  -1  -1  263.46    5.88
   3  -1  -1  264.35    6.15
   3  -1  -1  270.12    5.88
   3  -1  -1  272.79    5.78
   3  -1  -1  274.42    6.57
  -3  -1   1  271.04    5.85
  -3  -1   1  273.35    5.86
  -3  -1   1  267.66    5.72
  -3  -1   1  274.10    6.52
   3  -1  -1  267.82    5.89
   3  -1  -1  266.00    5.64
   3  -1  -1  263.65    5.89
  -3  -1   1  272.40    5.86
  -3  -1   1  280.03    5.60
  -3  -1   1  264.48    5.85
   3   1  -1  269.21    5.85
   3   1  -1  281.76    6.50
  -3   1   1  267.31    5.63
   3   1  -1  279.68    5.55
  -3   1   1  267.39    5.89
  -3   1   1  270.71    5.88
   3   1  -1  270.86    5.55
   3   1  -1  265.43    5.85
  -3   1   1  274.43    6.24
  -3   1   1  267.68    5.88
   3   1  -1  274.46    5.74
  -3   1   1  274.29    6.55
   3   1  -1  273.85    5.84
  -3   1   1  269.85    5.79
   1  -1  -1  368.49    8.52
  -1  -1   1  359.34    8.57
   1  -1  -1  347.04    7.65
  -1  -1   1  348.79    7.68
   1  -1  -1  375.01    7.49
   1  -1  -1  365.30    8.00
   1  -1  -1  350.80    7.65
  -1  -1   1  352.17    7.36
   1  -1  -1  355.02    7.65
   1  -1  -1  357.26    7.47
  -1  -1   1  352.03    7.67
  -1  -1   1  352.78    7.69
   1  -1  -1  347.71    7.65
  -1  -1   1  354.16    7.68
   1  -1  -1  361.16    8.13
   1  -1  -1  360.37    7.92
   1   1  -1  346.20    7.67
  -1   1   1  365.72    8.49
  -1   1   1  359.94    8.13
  -1   1   1  363.39    7.64
   1   1  -1  376.12    7.34
   1   1  -1  358.32    7.68
   1   1  -1  361.79    7.34
  -1   1   1  352.34    7.64
  -1   1   1  375.83    7.52
   1   1  -1  348.21    7.67
   1   1  -1  369.99    8.55
  -1   1   1  359.38    7.92
   1  -1   1   89.81    2.10
   1  -1   1   94.17    2.01
  -1  -1  -1   94.86    1.98
  -1  -1  -1   90.92    2.18
  -1  -1  -1   92.36    2.23
  -1  -1  -1   92.63    2.13
   1  -1   1   93.63    2.23
   1  -1   1   92.24    2.37
   1  -1   1   91.84    2.10
   1  -1   1   93.35    2.26
  -1  -1  -1   92.30    1.98
  -1  -1  -1   95.71    2.04
   1  -1   1   91.70    2.13
  -1  -1  -1   90.30    1.98
  -1  -1  -1   93.19    1.98
  -1   1  -1   93.97    2.23
  -1   1  -1   90.49    2.12
   1   1   1   93.61    2.34
  -1   1  -1   88.08    2.09
  -1   1  -1   90.62    2.26
   1   1   1   94.86    2.19
  -1   1  -1   85.92    2.28
  -1   1  -1   91.85    1.99
  -1   1  -1   91.19    2.35
  -1   1  -1   92.10    2.00
   1   1   1   94.83    2.03
   3  -1   1  164.72    3.58
  -3  -1  -1  163.38    3.57
   3  -1   1  162.88    3.83
   3  -1   1  159.24    3.63
  -3  -1  -1  163.46    3.58
   3  -1   1  157.09    3.85
   3  -1   1  161.49    3.80
  -3  -1  -1  159.74    3.48
  -3  -1  -1  164.28    3.49
  -3  -1  -1  161.96    3.48
  -3  -1  -1  166.03    3.80
   3  -1   1  163.68    4.08
  -3   1  -1  163.29    3.66
   3   1   1  166.48    3.57
  -3   1  -1  160.87    3.83
  -3   1  -1  154.88    3.47
   3   1   1  164.14    3.45
  -3   1  -1  157.91    3.58
   3   1   1  166.50    3.45
  -3   1  -1  154.02    3.84
   3   1   1  164.88    3.96
  -3   1  -1  161.66    3.63
   3   1   1  166.73    3.45
  -3   1  -1  162.65    3.80
  -5  -1  -1  429.16    9.24
   5  -1   1  418.79    9.99
  -5  -1  -1  441.38   10.29
  -5  -1  -1  429.59    9.25
  -5  -1  -1  437.56    9.78
  -5  -1  -1  446.32   10.31
   5  -1   1  421.46    9.02
   5  -1   1  433.43    9.41
   5  -1   1  432.60    9.24
   5  -1   1  435.76    9.66
  -5  -1  -1  425.42    9.23
   5  -1   1  430.32   10.47
   5  -1   1  434.67    9.73
  -5  -1  -1  437.40    9.24
  -5  -1  -1  433.41    9.01
   5  -1   1  427.79    9.39
  -5   1  -1  441.77    9.42
  -5   1  -1  427.86    9.24
  -5   1  -1  440.66    9.75
   5   1   1  458.44   10.30
   5   1   1  429.62    9.24
   5   1   1  446.29    9.80
   5   1   1  430.51    9.22
  -5   1  -1  431.34    9.84
   5   1   1  433.78    9.06
   5   1   1  436.19   10.23
  -5   1  -1  425.54    9.02
   5   1   1  426.34   10.16
  -5   1  -1  425.51    9.38
  -5   1  -1  406.58    9.98
   7  -1   1  133.34    3.22
   7  -1   1  129.42    3.46
  -7  -1  -1  131.95    3.26
  -7  -1  -1  132.52    3.07
  -7  -1  -1  133.02    2.85
   7  -1   1  125.48    3.10
   7  -1   1  128.63    3.11
   7  -1   1  127.87    2.98
  -7  -1  -1  130.63    3.00
   7  -1   1  128.07    3.12
  -7  -1  -1  130.19    2.98
   7  -1   1  128.76    3.07
   7  -1   1  136.89    3.17
  -7  -1  -1  129.74    2.98
  -7  -1  -1  132.89    3.32
  -7  -1  -1  127.53    2.97
   7   1   1  130.33    3.30
  -7   1  -1  128.57    3.07
  -7   1  -1  134.48    3.22
   7   1   1  130.89    2.99
   7   1   1  130.84    2.97
   7   1   1  128.20    2.91
   7   1   1  128.01    2.92
   7   1   1  134.23    3.25
   7   1   1  128.85    3.26
   7   1   1  131.64    3.25
  -7   1  -1  128.54    2.98
   7   1   1  126.89    2.95
  -7   1  -1  135.32    3.48
  -7   1  -1  131.78    3.12
   7   1   1  129.68    3.07
   9  -1   1  124.15    3.04
  -9  -1  -1  122.60    3.24
  -9  -1  -1  124.82    2.91
   9  -1   1  124.98    3.38
   9  -1   1  124.40    2.92
   9  -1   1  121.27    3.02
  -9  -1  -1  121.09    2.89
  -9  -1  -1  125.84    2.95
   9  -1   1  119.61    3.02
  -9  -1  -1  120.78    2.77
  -9  -1  -1  119.04    2.89
   9  -1   1  123.78    3.08
   9  -1   1  122.99    3.10
  -9   1  -1  123.34    2.90
   9   1   1  121.54    3.18
   9   1   1  123.75    3.16
  -9   1  -1  125.46    3.09
   9   1   1  122.48    2.86
  -9   1  -1  120.62    2.98
  -9   1  -1  121.54    3.02
  -9   1  -1  124.89    3.38
   9   1   1  120.98    2.58
  -9   1  -1  127.42    3.12
   9   1   1  123.18    2.91
   9   1   1  124.88    3.00
   9   1   1  121.82    3.17
   9   1   1  117.79    3.14
   9   1   1  122.49    2.81
  -9   1  -1  125.40    3.02
   9   1   1  121.44    2.87
   9   1   1  122.12    2.88
  11  -1   1    9.22    0.56
  11  -1   1    9.93    0.60
 -11  -1  -1   11.30    0.60
  11  -1   1   10.83    0.65
 -11  -1  -1   10.27    0.52
 -11  -1  -1   10.35    0.58
  11  -1   1    9.19    0.52
  11  -1   1    9.84    0.58
  11  -1   1   10.72    0.59
 -11  -1  -1    9.39    0.45
 -11  -1  -1   10.08    0.54
  11  -1   1   10.32    0.58
  11  -1   1    9.90    0.53
  11   1   1   10.63    0.55
  11   1   1   10.17    0.36
 -11   1  -1   10.57    0.57
  11   1   1   10.99    0.53
  11   1   1   10.40    0.52
  11   1   1   11.13    0.52
 -11   1  -1   10.20    0.61
  11   1   1    9.94    0.49
  11   1   1   10.03    0.62
 -11   1  -1   11.25    0.59
 -11   1  -1   10.50    0.54
  11   1   1   10.92    0.41
 -11   1  -1    9.68    0.56
  11   1   1    9.48    0.56
  11   1   1   10.08    0.56
  11   1   1   10.49    0.53
 -11   1  -1    9.71    0.56
 -11   1  -1   10.59    0.65
  13  -1   1   20.30    0.84
  13  -1   1   19.26    0.91
 -13  -1  -1   20.07    0.93
 -13  -1  -1   20.52    0.83
  13  -1   1   20.51    0.99
  13  -1   1   20.70    0.91
 -13  -1  -1   20.16    0.86
  13  -1   1   20.64    0.85
  13  -1   1   20.61    0.90
 -13  -1  -1   21.17    0.76
  13   1   1   20.29    0.64
 -13   1  -1   21.11    0.87
 -13   1  -1   21.99    0.90
 -13   1  -1   20.23    0.94
  13   1   1   20.11    0.82
  13   1   1   20.41    0.96
  13   1   1   21.03    0.88
  13   1   1   19.86    0.68
  13   1   1   20.93    0.90
  13   1   1   21.22    0.82
 -13   1  -1   20.31    0.90
 -13   1  -1   20.77    0.90
  13   1   1   20.85    0.85
  13   1   1   20.99    0.85
 -13   1  -1   20.13    0.98
  13   1   1   20.87    0.80
 -15  -1  -1   35.65    1.28
  15  -1   1   34.84    1.30
 -15  -1  -1   34.47    1.12
  15  -1   1   38.09    1.49
  15  -1   1   32.54    1.21
  15  -1   1   34.36    1.29
 -15  -1  -1   35.24    1.23
 -15  -1  -1   35.12    1.38
  15  -1   1   34.42    1.25
  15  -1   1   33.50    1.20
 -15   1  -1   34.07    1.35
  15   1   1   33.94    0.97
 -15   1  -1   34.92    1.45
 -15   1  -1   32.81    1.23
  15   1   1   32.39    1.15
  15   1   1   35.65    1.31
 -15   1  -1   35.57    1.29
  15   1   1   33.21    1.29
  15   1   1   35.37    1.20
 -15   1  -1   34.37    1.27
  15   1   1   34.14    1.05
  15   1   1   33.32    1.37
  15   1   1   35.04    1.24
 -15   1  -1   34.21    1.30
  15   1   1   34.07    1.23
  15   1   1   35.88    1.27
 -17  -1  -1   22.14    0.87
 -17  -1  -1   21.45    0.96
  17  -1   1   23.16    0.98
  17  -1   1   19.64    0.99
 -17  -1  -1   21.80    1.01
  17  -1   1   20.03    1.01
  17  -1   1   22.96    1.00
  17  -1   1   21.80    0.98
 -17  -1  -1   20.65    1.06
  17  -1   1   22.13    1.14
 -17   1  -1   21.65    1.01
  17   1   1   22.02    0.73
  17   1   1   21.88    1.10
  17   1   1   20.92    1.01
 -17   1  -1   20.83    1.01
  17   1   1   23.40    1.00
 -17   1  -1   21.67    1.14
  17   1   1   20.83    0.90
 -17   1  -1   21.26    0.99
  17   1   1   21.68    1.04
  17   1   1   21.40    0.79
  17   1   1   21.00    0.93
 -17   1  -1   22.47    1.00
 -17   1  -1   19.35    1.04
  17   1   1   21.42    0.94
  19  -1   1   12.79    0.81
 -19  -1  -1   11.73    0.73
 -19  -1  -1   10.62    0.76
 -19  -1  -1   12.48    0.85
  19  -1   1   11.48    0.79
  19  -1   1   11.34    0.74
  19  -1   1   12.80    0.88
  19  -1   1   12.23    0.74
 -19   1  -1   10.99    0.79
 -19   1  -1   12.25    0.88
 -19   1  -1   13.07    0.80
  19   1   1   12.74    0.72
  19   1   1   11.76    0.54
  19   1   1   12.49    0.85
  19   1   1   12.52    0.80
 -19   1  -1   10.84    0.80
  19   1   1   11.49    0.77
  19   1   1   11.86    0.72
  19   1   1   11.22    0.69
  19   1   1   13.24    0.79
 -21  -1  -1    0.14    0.28
  21  -1   1    0.30    0.23
  21  -1   1    0.08    0.24
 -21  -1  -1    0.16    0.23
  21  -1   1    0.43    0.27
 -21  -1  -1    0.44    0.28
  21  -1   1    0.67    0.28
  21  -1   1    0.31    0.24
  21   1   1    0.21    0.15
  21   1   1    0.17    0.27
  21   1   1    0.63    0.32
  21   1   1   -0.03    0.21
 -21   1  -1    0.10    0.26
  21   1   1    0.40    0.24
  21   1   1    0.32    0.23
 -21   1  -1    0.63    0.32
 -23  -1  -1    0.48    0.35
 -23  -1  -1    0.48    0.31
  23  -1   1    0.98    0.38
  23  -1   1    0.49    0.30
  23  -1   1    0.62    0.29
  23  -1   1    0.81    0.33
 -23  -1  -1    0.70    0.34
  23   1   1    0.08    0.23
 -23   1  -1   -0.03    0.26
  23   1   1    0.69    0.19
 -23   1  -1    0.12    0.29
  23   1   1    0.43    0.29
  23   1   1    0.68    0.34
  25  -1   1    9.69    0.78
  25  -1   1    9.30    0.81
  25  -1   1    8.35    0.76
  25  -1   1   10.11    0.82
 -25  -1  -1    7.17    0.79
  25   1   1    9.41    0.50
  25   1   1    9.08    0.90
  25   1   1    8.83    0.73
 -25   1  -1    9.12    0.97
 -25   1  -1    8.22    0.86
  25   1   1    8.86    0.96
  27  -1   1   23.19    1.29
  27  -1   1   22.73    1.30
 -27  -1  -1   22.67    1.30
  27  -1   1   23.45    1.31
 -27   1  -1   21.26    1.37
 -27   1  -1   21.08    1.33
  27   1   1   22.40    0.80
 -29  -1  -1   24.07    1.39
 -29   1  -1   20.25    1.33
 -29   1  -1   22.62    1.47
  29   1   1   20.30    0.71
 -31  -1  -1    3.16    0.68
 -31   1  -1    2.96    0.68
  30  -2  -1    2.30    0.61
 -30  -2   1    2.02    0.54
 -30   2   1    2.24    0.59
  28  -2  -1   25.45    1.47
  26  -2  -1    9.08    0.99
 -26  -2   1    8.11    0.85
  26  -2  -1    8.63    0.73
  26   2  -1    9.63    0.74
 -26   2   1    9.14    1.03
 -26   2   1    7.15    0.86
  24  -2  -1    7.93    0.87
 -24  -2   1    7.33    0.84
  24  -2  -1    9.85    0.83
 -24  -2   1    7.76    0.80
  24  -2  -1    8.20    0.68
 -24   2   1    8.50    0.88
  24   2  -1    7.80    0.87
 -24   2   1    8.55    0.92
  24   2  -1    8.68    0.90
  24   2  -1    8.00    0.67
  22  -2  -1    9.02    0.77
  22  -2  -1    8.23    0.64
  22  -2  -1    7.22    0.80
 -22  -2   1    7.40    0.82
 -22  -2   1    7.95    0.66
  22   2  -1    7.53    0.80
 -22   2   1    6.06    0.73
  22   2  -1    8.30    0.63
  22   2  -1    8.10    0.75
 -22   2   1    7.98    0.88
 -20  -2   1    5.49    0.66
 -20  -2   1    5.05    0.59
 -20  -2   1    5.20    0.61
  20  -2  -1    5.06    0.65
  20  -2  -1    4.38    0.50
  20  -2  -1    4.71    0.63
 -20   2   1    4.51    0.62
 -20   2   1    6.34    0.71
  20   2  -1    4.95    0.53
 -20   2   1    4.55    0.63
 -20   2   1    4.06    0.53
  20   2  -1    4.17    0.59
  18  -2  -1   44.88    1.48
  18  -2  -1   43.15    1.69
  18  -2  -1   46.31    1.72
 -18  -2   1   42.92    1.75
 -18  -2   1   47.05    1.64
 -18  -2   1   45.13    1.58
  18  -2  -1   47.52    1.93
 -18   2   1   45.64    1.68
  18   2  -1   43.83    1.68
 -18   2   1   45.99    1.71
 -18   2   1   48.56    1.64
  18   2  -1   45.88    1.51
 -18   2   1   44.37    1.76
 -18   2   1   42.80    1.83
  18   2  -1   45.45    1.48
  16  -2  -1   41.58    1.71
  16  -2  -1   43.27    1.34
 -16  -2   1   40.15    1.43
  16  -2  -1   37.40    1.50
 -16  -2   1   40.52    1.58
  16  -2  -1   42.79    1.56
 -16  -2   1   40.91    1.40
  16   2  -1   40.96    1.53
 -16   2   1   38.20    1.48
  16   2  -1   40.50    1.36
 -16   2   1   40.61    1.66
  16   2  -1   40.84    1.32
  16   2  -1   39.82    1.39
 -16   2   1   42.41    1.54
 -16   2   1   37.77    1.55
 -16   2   1   42.37    1.30
  16   2  -1   40.00    1.37
 -16   2   1   40.98    1.44
  14  -2  -1   39.73    1.61
 -14  -2   1   38.72    1.46
 -14  -2   1   40.20    1.34
  14  -2  -1   39.66    1.44
  14  -2  -1   39.34    1.45
  14  -2  -1   38.91    1.21
 -14  -2   1   40.00    1.30
  14   2  -1   38.82    1.43
  14   2  -1   38.19    1.22
 -14   2   1   37.72    1.40
 -14   2   1   38.17    1.41
  14   2  -1   39.46    1.28
  14   2  -1   39.70    1.29
 -14   2   1   40.47    1.19
 -14   2   1   37.86    1.46
 -14   2   1   37.37    1.31
  14   2  -1   39.55    1.27
 -12  -2   1   66.11    1.84
 -12  -2   1   64.74    1.80
  12  -2  -1   64.15    1.97
 -12  -2   1   65.71    2.03
  12  -2  -1   68.91    1.99
  12  -2  -1   66.07    2.20
  12  -2  -1   66.62    1.71
 -12   2   1   65.20    2.00
 -12   2   1   64.51    1.94
  12   2  -1   66.29    1.79
 -12   2   1   61.86    1.92
 -12   2   1   65.70    1.68
  12   2  -1   62.87    1.77
  12   2  -1   65.32    1.97
  12   2  -1   64.61    1.73
 -12   2   1   65.86    1.84
  12   2  -1   66.13    1.80
  12   2  -1   66.87    1.86
  10  -2  -1   68.84    2.22
 -10  -2   1   68.78    2.06
 -10  -2   1   67.35    1.83
  10  -2  -1   70.36    1.74
 -10  -2   1   71.03    1.85
 -10  -2   1   70.30    1.87
  10  -2  -1   69.87    2.03
  10  -2  -1   66.65    1.98
  10  -2  -1   69.60    2.01
 -10   2   1   70.57    1.99
 -10   2   1   72.00    2.19
  10   2  -1   72.85    1.84
 -10   2   1   71.30    2.11
 -10   2   1   69.09    1.86
  10   2  -1   72.64    1.84
 -10   2   1   70.77    1.98
 -10   2   1   68.51    1.71
 -10   2   1   71.65    2.04
  10   2  -1   69.16    1.77
  10   2  -1   70.22    2.00
  10   2  -1   72.66    1.83
  10   2  -1   74.66    1.91
   8  -2  -1  197.56    4.74
  -8  -2   1  206.60    4.61
  -8  -2   1  210.07    5.14
   8  -2  -1  201.13    4.79
   8  -2  -1  205.31    4.76
  -8  -2   1  201.29    4.59
  -8  -2   1  199.41    4.61
  -8  -2   1  204.87    4.59
  -8  -2   1  201.55    4.73
   8  -2  -1  199.94    5.30
   8  -2  -1  202.16    4.43
   8   2  -1  212.77    4.97
   8   2  -1  202.07    4.57
  -8   2   1  205.89    4.71
  -8   2   1  204.54    4.74
   8   2  -1  206.93    4.58
   8   2  -1  211.95    4.52
  -8   2   1  201.02    4.78
  -8   2   1  200.13    5.25
  -8   2   1  202.13    4.99
  -8   2   1  206.17    4.52
   6  -2  -1  120.90    3.30
   6  -2  -1  124.34    2.97
   6  -2  -1  123.97    3.00
  -6  -2   1  122.60    2.83
  -6  -2   1  120.78    2.97
   6  -2  -1  122.69    2.97
   6  -2  -1  123.47    2.68
  -6  -2   1  125.49    3.15
  -6  -2   1  122.67    2.85
  -6  -2   1  125.01    2.85
   6  -2  -1  123.72    3.15
  -6  -2   1  119.25    2.82
   6   2  -1  128.62    2.99
  -6   2   1  121.58    3.26
  -6   2   1  120.93    2.92
  -6   2   1  115.34    2.92
  -6   2   1  124.60    3.17
  -6   2   1  122.36    2.99
   6   2  -1  125.25    2.82
   6   2  -1  123.85    2.81
  -6   2   1  123.13    2.77
   6   2  -1  126.81    2.77
  -6   2   1  123.98    3.21
  -4  -2   1  157.55    3.63
  -4  -2   1  159.01    3.52
  -4  -2   1  161.04    3.51
   4  -2  -1  155.80    4.01
   4  -2  -1  153.82    3.82
  -4  -2   1  157.22    3.51
   4  -2  -1  155.76    3.60
   4  -2  -1  152.43    3.61
   4  -2  -1  154.97    3.60
   4  -2  -1  162.73    3.94
  -4  -2   1  158.68    3.53
   4  -2  -1  159.85    3.59
  -4  -2   1  164.88    3.91
   4   2  -1  157.38    3.49
   4   2  -1  158.84    4.08
  -4   2   1  156.94    3.85
  -4   2   1  155.75    3.91
  -4   2   1  158.86    3.62
  -4   2   1  151.37    3.57
  -4   2   1  155.21    3.95
  -4   2   1  161.57    3.56
   4   2  -1  160.35    3.43
  -4   2   1  148.61    3.32
  -2  -2   1   76.53    1.80
  -2  -2   1   76.81    1.82
  -2  -2   1   80.14    2.02
   2  -2  -1   74.73    2.00
   2  -2  -1   74.81    1.84
   2  -2  -1   73.89    1.82
   2  -2  -1   76.17    2.01
  -2  -2   1   79.87    1.83
   2  -2  -1   78.15    1.83
   2  -2  -1   74.95    1.69
   2  -2  -1   76.31    2.09
   2  -2  -1   74.53    1.81
  -2  -2   1   75.72    1.80
   2  -2  -1   76.73    1.81
  -2   2   1   75.30    2.01
  -2   2   1   74.96    2.15
   2   2  -1   77.78    1.81
  -2   2   1   81.31    2.12
  -2   2   1   77.68    1.82
   2   2  -1   76.43    1.76
  -2   2   1   79.54    1.79
   2   2  -1   75.83    1.97
   2   2  -1   79.36    2.19
   0  -2  -1   21.68    0.60
   0  -2  -1   23.14    0.75
   0  -2   1   22.54    0.70
   0  -2  -1   22.13    0.68
   0  -2  -1   22.08    0.59
   0  -2   1   22.14    0.78
   0  -2   1   21.64    0.67
   0  -2  -1   22.62    0.59
   0  -2   1   22.05    0.66
   0  -2   1   23.28    0.77
   0  -2  -1   23.10    0.63
   0  -2   1   21.96    0.85
   0  -2  -1   22.67    0.84
   0   2  -1   21.45    0.78
   0   2  -1   23.08    0.67
   0   2   1   21.05    0.53
   0   2   1   22.77    0.70
   0   2  -1   20.55    0.67
   0   2  -1   22.23    0.87
   0   2   1   23.12    0.84
   0   2   1   21.67    0.55
   0   2   1   23.32    0.54
   0   2   1   22.45    0.88
   0   2   1   22.90    0.75
   2  -2   1   81.18    2.19
   2  -2   1   78.71    1.93
   2  -2   1   81.10    2.20
   2  -2   1   75.75    2.09
  -2  -2  -1   78.12    2.15
  -2  -2  -1   78.62    1.89
   2  -2   1   81.06    1.98
  -2  -2  -1   80.94    1.96
   2  -2   1   76.37    1.94
  -2  -2  -1   79.51    2.03
   2   2   1   78.83    2.24
  -2   2  -1   81.89    2.18
   2   2   1   81.52    1.97
  -2   2  -1   81.90    1.77
  -2   2  -1   78.80    1.76
  -2   2  -1   80.93    1.97
  -2   2  -1   79.68    2.12
  -2   2  -1   78.98    2.18
   2   2   1   81.27    1.90
  -2   2  -1   80.01    1.92
  -2   2  -1   79.03    1.92
   2   2   1   81.35    2.05
  -4  -2  -1   12.45    0.50
   4  -2   1   12.27    0.54
  -4  -2  -1   12.03    0.41
  -4  -2  -1   13.70    0.58
   4  -2   1   11.44    0.59
   4  -2   1   11.09    0.58
   4  -2   1   11.84    0.53
  -4   2  -1   11.76    0.52
  -4   2  -1   11.83    0.60
  -4   2  -1   11.76    0.59
  -4   2  -1   11.70    0.55
   4   2   1   12.82    0.59
   4   2   1   12.62    0.41
  -4   2  -1   11.34    0.51
  -4   2  -1   11.16    0.44
  -4   2  -1   11.99    0.54
   4   2   1   13.67    0.67
   4   2   1   11.68    0.51
  -4   2  -1   11.80    0.46
  -6  -2  -1   37.14    0.91
   6  -2   1   35.39    1.13
  -6  -2  -1   38.38    0.97
   6  -2   1   37.87    1.25
   6  -2   1   36.56    1.17
  -6  -2  -1   39.76    0.96
   6  -2   1   37.51    1.24
   6  -2   1   35.38    1.26
  -6  -2  -1   35.25    0.90
  -6  -2  -1   36.41    0.92
  -6  -2  -1   37.69    1.13
  -6  -2  -1   39.06    1.23
  -6  -2  -1   36.24    0.90
  -6   2  -1   36.93    1.06
  -6   2  -1   34.63    1.12
   6   2   1   37.83    1.14
   6   2   1   37.34    1.30
  -6   2  -1   36.27    1.14
   6   2   1   36.97    0.89
   6   2   1   35.83    1.22
  -6   2  -1   36.38    1.12
  -6   2  -1   37.10    1.18
  -6   2  -1   36.65    1.24
  -6   2  -1   36.81    1.24
   8  -2   1   70.25    2.18
   8  -2   1   70.39    1.96
  -8  -2  -1   71.86    1.73
   8  -2   1   71.85    1.83
  -8  -2  -1   72.49    1.94
  -8  -2  -1   71.25    1.72
   8  -2   1   71.63    2.07
   8  -2   1   71.72    2.01
  -8  -2  -1   75.63    1.92
  -8  -2  -1   72.29    1.75
  -8  -2  -1   72.26    1.73
   8   2   1   74.03    1.66
   8   2   1   73.93    1.68
   8   2   1   70.12    1.63
   8   2   1   73.13    2.10
   8   2   1   70.34    2.14
  -8   2  -1   70.39    1.95
  -8   2  -1   65.67    2.06
   8   2   1   72.77    1.95
  -8   2  -1   70.65    2.07
  -8   2  -1   72.18    2.01
  -8   2  -1   70.47    1.85
  -8   2  -1   71.65    1.96
  10  -2   1   25.69    1.00
 -10  -2  -1   25.47    0.98
  10  -2   1   25.87    0.85
  10  -2   1   26.73    1.05
 -10  -2  -1   24.63    0.83
 -10  -2  -1   25.76    0.82
 -10  -2  -1   26.13    0.91
 -10  -2  -1   25.56    0.81
 -10  -2  -1   24.75    0.81
  10  -2   1   24.98    1.10
  10   2   1   26.70    1.09
 -10   2  -1   25.20    1.05
  10   2   1   27.42    0.82
 -10   2  -1   25.14    0.93
  10   2   1   26.00    1.08
  10   2   1   26.02    1.00
  10   2   1   25.63    0.77
 -10   2  -1   25.76    0.98
 -10   2  -1   25.40    1.00
 -10   2  -1   25.24    1.03
 -12  -2  -1  192.49    4.42
  12  -2   1  194.47    4.68
  12  -2   1  191.63    4.57
 -12  -2  -1  190.85    4.45
 -12  -2  -1  198.08    4.42
  12  -2   1  190.32    4.44
  12  -2   1  187.51    5.19
 -12  -2  -1  181.20    4.91
  12  -2   1  187.63    4.66
  12   2   1  196.15    4.62
  12   2   1  187.51    4.37
  12   2   1  199.58    4.62
 -12   2  -1  191.52    4.73
 -12   2  -1  188.93    4.65
  12   2   1  193.16    4.35
  12   2   1  193.27    4.35
 -12   2  -1  187.88    4.59
  12   2   1  190.16    4.92
 -12   2  -1  190.61    4.46
 -12   2  -1  188.13    4.82
  12   2   1  185.49    4.95
  12   2   1  188.78    4.61
 -14  -2  -1   12.75    0.69
 -14  -2  -1   12.55    0.64
  14  -2   1   12.39    0.82
  14  -2   1   12.39    0.61
  14  -2   1   12.32    0.71
 -14  -2  -1   12.55    0.61
  14  -2   1   13.52    0.76
  14  -2   1   12.07    0.73
  14  -2   1   12.92    0.65
  14   2   1   10.75    0.69
 -14   2  -1   12.57    0.80
  14   2   1   12.09    0.38
 -14   2  -1   12.37    0.77
  14   2   1   12.46    0.52
  14   2   1   11.59    0.60
 -14   2  -1   11.15    0.67
  14   2   1   11.42    0.56
 -14   2  -1   12.42    0.74
 -14   2  -1   12.69    0.73
  14   2   1   12.47    0.80
 -14   2  -1   12.60    0.77
  14   2   1   12.65    0.60
  14   2   1   11.02    0.53
  14   2   1   10.96    0.72
  16  -2   1   19.77    0.98
  16  -2   1   17.63    0.80
  16  -2   1   16.60    0.81
 -16  -2  -1   16.49    0.81
 -16  -2  -1   16.71    0.89
 -16  -2  -1   17.87    0.80
  16  -2   1   16.42    0.92
  16  -2   1   18.05    1.04
  16   2   1   15.68    0.96
  16   2   1   16.58    0.70
  16   2   1   16.39    0.90
 -16   2  -1   18.07    0.95
  16   2   1   17.16    0.92
 -16   2  -1   17.05    0.87
 -16   2  -1   17.83    0.92
  16   2   1   16.96    0.79
  16   2   1   17.82    0.79
  16   2   1   16.84    0.53
  16   2   1   16.11    0.72
 -16   2  -1   17.86    0.92
  16   2   1   16.80    0.71
 -16   2  -1   16.05    0.94
 -16   2  -1   16.24    0.99
 -18  -2  -1   44.52    1.54
  18  -2   1   41.84    1.63
  18  -2   1   42.62    1.48
  18  -2   1   44.20    1.85
  18  -2   1   40.20    1.61
  18  -2   1   41.50    1.48
 -18  -2  -1   44.36    1.49
 -18  -2  -1   40.62    1.65
  18   2   1   41.35    1.63
 -18   2  -1   43.63    1.83
  18   2   1   42.20    1.41
 -18   2  -1   44.56    1.68
  18   2   1   42.98    1.76
 -18   2  -1   42.47    1.55
  18   2   1   41.14    1.61
 -18   2  -1   43.08    1.72
 -18   2  -1   43.54    1.64
 -18   2  -1   42.83    1.65
  20  -2   1    6.10    0.61
  20  -2   1    6.63    0.54
  20  -2   1    4.46    0.62
  20  -2   1    6.02    0.70
 -20  -2  -1    5.16    0.57
 -20  -2  -1    5.53    0.62
 -20  -2  -1    5.54    0.63
 -20   2  -1    6.46    0.75
  20   2   1    5.97    0.69
 -20   2  -1    5.89    0.68
 -20   2  -1    5.74    0.65
  20   2   1    5.91    0.49
  20   2   1    5.63    0.63
 -20   2  -1    5.68    0.63
  20   2   1    5.95    0.73
  22  -2   1    4.79    0.65
 -22  -2  -1    5.42    0.67
 -22  -2  -1    5.74    0.62
  22  -2   1    6.61    0.66
  22  -2   1    6.13    0.74
  22  -2   1    5.77    0.61
  22   2   1    5.05    0.68
 -22   2  -1    4.08    0.65
  22   2   1    4.83    0.71
  22   2   1    5.06    0.55
 -22   2  -1    5.64    0.70
  22   2   1    5.22    0.64
  24  -2   1    5.86    0.75
  24  -2   1    5.87    0.76
 -24  -2  -1    5.20    0.65
  24  -2   1    5.99    0.67
 -24  -2  -1    5.84    0.76
 -24   2  -1    5.67    0.75
 -24   2  -1    4.76    0.72
  24   2   1    4.19    0.65
  24   2   1    4.83    0.75
  24   2   1    5.62    0.61
 -26  -2  -1    0.27    0.33
  26  -2   1    0.26    0.30
  26  -2   1    0.35    0.38
  26   2   1    0.20    0.23
 -26   2  -1    1.10    0.45
 -26   2  -1   -0.24    0.27
  28  -2   1    9.51    0.96
 -28  -2  -1   10.69    0.90
  28  -2   1   11.21    0.98
 -28   2  -1   13.16    1.08
 -30  -2  -1    6.26    0.84
  30  -2   1    8.58    1.03
 -30   2  -1    7.47    0.97
  29  -3  -1    2.44    0.61
 -29  -3   1    0.90    0.44
 -29   3   1    2.41    0.65
  27  -3  -1    9.07    1.04
 -27  -3   1    7.71    0.83
 -27   3   1    7.91    0.95
  25  -3  -1   14.99    1.10
 -25  -3   1   15.54    1.14
 -25  -3   1   15.94    1.01
  25  -3  -1   16.40    1.19
 -25   3   1   18.28    1.20
  25   3  -1   16.60    1.19
  25   3  -1   16.70    0.92
  23  -3  -1    4.23    0.67
 -23  -3   1    5.45    0.65
 -23  -3   1    4.12    0.63
  23  -3  -1    5.35    0.74
 -23   3   1    5.13    0.72
  23   3  -1    5.31    0.57
 -23   3   1    5.01    0.73
  23   3  -1    5.77    0.79
  23   3  -1    4.81    0.70
 -23   3   1    4.73    0.63
  21  -3  -1   38.21    1.36
  21  -3  -1   37.10    1.66
 -21  -3   1   36.02    1.45
 -21  -3   1   36.57    1.65
  21  -3  -1   35.73    1.64
 -21   3   1   35.77    1.68
  21   3  -1   35.14    1.62
  21   3  -1   37.20    1.35
  21   3  -1   33.38    1.66
 -21   3   1   36.59    1.51
 -21   3   1   37.38    1.65
  19  -3  -1   34.56    1.48
  19  -3  -1   28.96    1.40
  19  -3  -1   32.70    1.16
 -19  -3   1   28.01    1.20
 -19  -3   1   27.91    1.35
 -19   3   1   28.67    1.37
 -19   3   1   29.17    1.27
  19   3  -1   29.42    1.40
 -19   3   1   29.83    1.46
  19   3  -1   32.48    1.54
 -19   3   1   31.61    1.42
  19   3  -1   29.58    1.13
  17  -3  -1   11.56    0.84
  17  -3  -1   12.78    0.64
  17  -3  -1   11.71    0.82
 -17  -3   1   12.50    0.74
 -17  -3   1   12.53    0.80
 -17  -3   1   12.94    0.73
  17   3  -1   13.21    0.65
  17   3  -1   11.15    0.89
 -17   3   1   12.65    0.76
 -17   3   1   13.94    0.92
  17   3  -1   11.72    0.82
 -17   3   1   13.68    0.89
 -17   3   1   12.67    0.83
  15  -3  -1   36.70    1.16
 -15  -3   1   36.77    1.29
  15  -3  -1   37.98    1.65
  15  -3  -1   36.70    1.47
 -15  -3   1   38.00    1.45
 -15  -3   1   37.84    1.28
  15  -3  -1   33.71    1.44
  15   3  -1   37.07    1.62
  15   3  -1   37.77    1.28
  15   3  -1   37.73    1.49
  15   3  -1   37.04    1.19
 -15   3   1   37.22    1.52
  15   3  -1   39.05    1.20
 -15   3   1   39.26    1.46
 -15   3   1   36.84    1.56
 -15   3   1   38.61    1.34
 -15   3   1   35.32    1.44
 -13  -3   1   22.73    0.88
  13  -3  -1   22.71    1.06
  13  -3  -1   22.26    1.04
 -13  -3   1   22.19    0.99
  13  -3  -1   23.96    0.80
  13  -3  -1   22.60    1.16
 -13  -3   1   21.68    0.89
 -13   3   1   24.17    1.13
 -13   3   1   24.19    1.09
  13   3  -1   24.42    0.82
  13   3  -1   22.45    0.87
 -13   3   1   25.31    1.06
 -13   3   1   23.34    0.94
 -13   3   1   22.64    1.05
  13   3  -1   23.50    1.20
  13   3  -1   23.24    0.82
 -13   3   1   24.48    1.15
  11  -3  -1   13.16    0.82
 -11  -3   1   16.16    0.65
  11  -3  -1   14.21    0.53
 -11  -3   1   13.73    0.61
 -11  -3   1   14.30    0.61
  11  -3  -1   15.07    0.78
 -11  -3   1   14.07    0.68
  11  -3  -1   14.12    0.76
 -11   3   1   14.08    0.77
  11   3  -1   14.70    0.56
 -11   3   1   14.07    0.83
 -11   3   1   15.14    0.75
 -11   3   1   13.18    0.77
  11   3  -1   14.18    0.62
 -11   3   1   14.18    0.66
  11   3  -1   14.55    0.90
 -11   3   1   14.68    0.79
   9  -3  -1    3.81    0.24
  -9  -3   1    3.87    0.31
   9  -3  -1    3.54    0.41
   9  -3  -1    3.47    0.40
  -9  -3   1    3.30    0.29
  -9  -3   1    3.46    0.31
  -9  -3   1    3.17    0.28
   9  -3  -1    3.59    0.45
  -9  -3   1    3.66    0.31
   9   3  -1    3.54    0.24
  -9   3   1    3.07    0.38
  -9   3   1    3.67    0.40
   9   3  -1    3.61    0.51
   9   3  -1    3.42    0.29
  -9   3   1    3.90    0.43
  -9   3   1    3.60    0.41
  -9   3   1    3.44    0.32
   9   3  -1    3.84    0.23
  -9   3   1    3.26    0.44
  -7  -3   1   22.18    0.72
  -7  -3   1   22.30    0.72
  -7  -3   1   21.91    0.74
   7  -3  -1   23.01    0.88
   7  -3  -1   22.13    0.86
  -7  -3   1   24.25    0.82
  -7  -3   1   22.14    0.73
   7  -3  -1   22.56    0.97
  -7  -3   1   21.31    0.90
   7   3  -1   23.91    1.08
   7   3  -1   23.44    0.71
  -7   3   1   23.13    0.89
   7   3  -1   22.18    0.79
  -7   3   1   22.24    0.83
  -7   3   1   22.98    0.68
  -7   3   1   21.47    0.86
   7   3  -1   22.24    0.62
  -7   3   1   21.48    0.98
  -7   3   1   22.24    0.68
   7   3  -1   22.58    0.65
  -5  -3   1  143.01    3.23
   5  -3  -1  139.50    3.36
  -5  -3   1  147.24    3.59
  -5  -3   1  142.50    3.21
  -5  -3   1  139.96    3.41
   5  -3  -1  140.61    3.76
  -5  -3   1  141.15    3.23
   5  -3  -1  139.13    3.74
   5  -3  -1  139.85    3.37
  -5  -3   1  141.58    3.21
   5  -3  -1  140.78    3.40
  -5   3   1  141.07    3.33
  -5   3   1  137.07    3.30
   5   3  -1  143.63    3.14
   5   3  -1  144.37    3.91
   5   3  -1  138.53    3.09
   5   3  -1  140.13    3.13
  -5   3   1  140.79    3.65
   5   3  -1  136.68    3.45
  -5   3   1  139.49    3.36
   3  -3  -1  112.36    2.74
   3  -3  -1  112.05    3.01
   3  -3  -1  106.81    2.96
   3  -3  -1  115.27    3.12
  -3  -3   1  117.00    2.64
   3  -3  -1  113.63    2.67
  -3  -3   1  119.74    2.69
  -3  -3   1  116.24    2.67
   3  -3  -1  108.40    2.70
  -3  -3   1  118.41    2.96
  -3  -3   1  114.29    2.81
  -3  -3   1  114.47    2.65
   3  -3  -1  109.42    2.69
   3  -3  -1  116.63    2.72
  -3   3   1  113.46    3.19
   3   3  -1  117.21    3.25
   3   3  -1  115.16    2.59
  -3   3   1  113.41    2.69
   3   3  -1  112.77    2.90
  -3   3   1  115.46    2.68
   3   3  -1  114.77    2.55
  -3   3   1  110.66    2.99
  -1  -3   1    0.45    0.15
   1  -3  -1    0.33    0.12
   1  -3  -1    0.06    0.16
  -1  -3   1    0.44    0.21
  -1  -3   1    0.28    0.13
   1  -3  -1    0.70    0.15
  -1  -3   1    0.32    0.15
   1  -3  -1    0.35    0.17
   1  -3  -1    0.38    0.12
  -1  -3   1    0.34    0.14
   1  -3  -1    0.36    0.13
   1  -3  -1    0.38    0.13
   1   3  -1    0.26    0.13
   1   3  -1    0.56    0.24
  -1   3   1    0.38    0.11
  -1   3   1    0.33    0.10
  -1   3   1    0.36    0.18
  -1   3   1    0.33    0.19
  -1   3   1    0.28    0.21
   1   3  -1    0.34    0.19
  -1   3   1    0.52    0.13
   1  -3   1   23.72    0.77
   1  -3   1   23.11    1.01
   1  -3   1   23.46    0.92
   1  -3   1   24.07    0.82
  -1  -3  -1   23.20    0.64
   1  -3   1   22.43    0.77
  -1  -3  -1   24.46    0.66
  -1  -3  -1   24.24    0.86
  -1  -3  -1   22.70    0.82
  -1  -3  -1   23.45    0.99
  -1  -3  -1   23.42    0.75
   1  -3   1   22.44    0.87
  -1  -3  -1   23.21    0.64
  -1   3  -1   23.44    0.76
   1   3   1   23.81    0.86
  -1   3  -1   22.99    1.01
   1   3   1   22.82    1.04
  -1   3  -1   23.27    0.77
  -1   3  -1   24.24    0.95
   3  -3   1   14.56    0.77
  -3  -3  -1   14.31    0.58
  -3  -3  -1   15.56    0.67
  -3  -3  -1   13.81    0.37
  -3  -3  -1   14.20    0.38
  -3  -3  -1   13.91    0.37
   3  -3   1   14.37    0.61
  -3  -3  -1   14.41    0.75
   3  -3   1   13.09    0.61
  -3  -3  -1   15.18    0.60
  -3   3  -1   13.64    0.73
  -3   3  -1   13.11    0.59
  -3   3  -1   14.09    0.57
  -3   3  -1   14.10    0.60
   3   3   1   14.27    0.59
  -3   3  -1   14.26    0.72
  -5  -3  -1   34.48    1.08
   5  -3   1   33.09    1.22
   5  -3   1   34.66    1.30
   5  -3   1   34.54    1.15
   5  -3   1   33.71    1.11
  -5   3  -1   32.55    1.11
   5   3   1   32.80    1.09
  -5   3  -1   33.76    0.90
   5   3   1   35.53    1.00
  -5   3  -1   33.42    0.92
  -5   3  -1   33.38    1.11
  -5   3  -1   31.86    1.06
  -5   3  -1   31.16    1.19
  -5   3  -1   34.07    1.25
   5   3   1   34.54    1.21
   7  -3   1   60.11    1.77
   7  -3   1   62.51    1.99
  -7  -3  -1   60.75    1.41
  -7  -3  -1   61.44    1.43
   7  -3   1   59.53    1.96
  -7  -3  -1   61.05    1.42
  -7  -3  -1   61.09    1.42
  -7  -3  -1   60.58    1.73
  -7   3  -1   61.18    1.73
   7   3   1   61.79    1.54
  -7   3  -1   61.27    1.80
  -7   3  -1   61.32    1.59
  -7   3  -1   61.19    1.56
   7   3   1   56.68    1.87
  -7   3  -1   62.35    1.87
   7   3   1   61.15    1.76
  -7   3  -1   61.16    1.94
   7   3   1   64.27    2.07
  -7   3  -1   58.98    1.76
  -9  -3  -1    0.96    0.15
   9  -3   1    0.90    0.17
   9  -3   1    0.82    0.24
  -9  -3  -1    1.00    0.14
  -9  -3  -1    0.93    0.14
   9  -3   1    1.00    0.25
  -9  -3  -1    0.87    0.14
  -9  -3  -1    1.03    0.16
  -9   3  -1    1.14    0.21
   9   3   1    0.79    0.13
   9   3   1    0.96    0.31
   9   3   1    0.63    0.24
  -9   3  -1    0.90    0.25
  -9   3  -1    1.14    0.27
   9   3   1    1.20    0.12
  -9   3  -1    0.85    0.26
   9   3   1    0.72    0.23
  -9   3  -1    0.82    0.20
  -9   3  -1    0.60    0.26
  11  -3   1   16.56    0.84
 -11  -3  -1   15.42    0.60
 -11  -3  -1   15.89    0.66
  11  -3   1   16.50    0.62
  11  -3   1   16.19    0.83
 -11  -3  -1   16.19    0.60
 -11  -3  -1   16.08    0.59
  11  -3   1   17.00    0.92
 -11  -3  -1   12.59    0.56
 -11   3  -1   16.79    0.85
 -11   3  -1   15.86    0.79
  11   3   1   16.80    0.59
 -11   3  -1   15.74    0.82
 -11   3  -1   16.21    0.90
  11   3   1   17.68    0.97
 -11   3  -1   16.20    0.73
  11   3   1   16.41    0.90
  11   3   1   15.86    0.81
 -13  -3  -1   53.14    1.48
 -13  -3  -1   53.07    1.66
  13  -3   1   52.73    1.78
 -13  -3  -1   53.53    1.48
 -13  -3  -1   54.59    1.51
  13  -3   1   55.16    2.01
  13  -3   1   51.61    1.77
  13  -3   1   54.15    1.50
 -13   3  -1   53.32    1.76
  13   3   1   49.58    1.74
 -13   3  -1   50.89    1.76
  13   3   1   49.08    1.90
 -13   3  -1   50.99    1.87
 -13   3  -1   53.16    1.63
  13   3   1   52.09    1.90
 -13   3  -1   49.85    1.80
  13   3   1   52.26    1.33
  13   3   1   51.81    1.31
  13   3   1   55.44    1.48
  15  -3   1   59.18    1.69
 -15  -3  -1   60.06    1.71
  15  -3   1   58.33    1.99
  15  -3   1   57.78    1.75
 -15  -3  -1   57.71    1.90
  15  -3   1   62.43    2.26
  15  -3   1   59.83    2.01
 -15  -3  -1   58.87    1.72
  15   3   1   59.18    2.00
  15   3   1   59.16    2.14
 -15   3  -1   57.00    2.07
 -15   3  -1   57.25    1.95
  15   3   1   58.32    1.54
 -15   3  -1   59.32    1.84
  15   3   1   61.22    2.17
 -15   3  -1   57.03    2.04
 -15   3  -1   60.71    2.00
  15   3   1   61.19    1.70
  17  -3   1   26.23    1.25
  17  -3   1   25.02    1.04
 -17  -3  -1   27.13    1.04
 -17  -3  -1   24.58    1.13
  17  -3   1   24.57    1.22
  17  -3   1   27.37    1.00
  17   3   1   25.77    0.90
  17   3   1   26.39    1.03
 -17   3  -1   24.68    1.11
 -17   3  -1   24.99    1.23
  17   3   1   23.48    1.19
 -17   3  -1   27.86    1.27
 -17   3  -1   26.85    1.32
 -17   3  -1   25.77    1.28
  17   3   1   26.43    1.31
  17   3   1   26.26    1.36
 -19  -3  -1    8.28    0.59
  19  -3   1    8.80    0.75
 -19  -3  -1    7.85    0.67
  19  -3   1    9.01    0.63
  19  -3   1    9.61    0.79
 -19   3  -1    8.92    0.88
  19   3   1   10.03    0.85
  19   3   1    8.80    0.52
  19   3   1    8.67    0.73
 -19   3  -1    9.13    0.76
  19   3   1    8.50    0.79
 -19   3  -1    8.21    0.66
 -19   3  -1    8.54    0.72
 -19   3  -1    8.70    0.76
  21  -3   1    9.54    0.94
  21  -3   1    8.41    0.88
  21  -3   1    9.36    0.69
 -21  -3  -1   11.11    0.83
 -21  -3  -1    9.15    0.67
 -21   3  -1   10.16    0.88
 -21   3  -1    9.68    0.83
  21   3   1    9.67    0.58
 -21   3  -1    9.83    0.82
 -21   3  -1   10.57    0.78
  21   3   1    9.87    0.82
  21   3   1   11.58    0.91
 -23  -3  -1   31.48    1.33
 -23  -3  -1   28.53    1.47
  23  -3   1   29.95    1.54
  23  -3   1   30.82    1.55
  23  -3   1   29.71    1.30
  23   3   1   28.80    1.15
  23   3   1   29.43    1.50
 -23   3  -1   27.71    1.46
  23   3   1   29.68    1.51
 -23   3  -1   29.56    1.57
  25  -3   1    0.19    0.31
 -25  -3  -1    0.36    0.35
  25   3   1    0.12    0.20
 -25   3  -1    0.26    0.36
 -27  -3  -1    1.34    0.41
  27  -3   1    0.30    0.39
 -27   3  -1    1.24    0.50
  27   3   1    1.22    0.33
  29  -3   1    3.49    0.72
 -29  -3  -1    2.06    0.55
 -29   3  -1    2.15    0.59
 -26  -4   1    4.64    0.66
  26  -4  -1    4.50    0.77
 -26   4   1    3.68    0.62
 -26   4   1    4.44    0.77
  26   4  -1    4.08    0.79
  24  -4  -1    1.97    0.56
 -24  -4   1    2.44    0.48
  24  -4  -1    1.91    0.53
  24   4  -1    3.29    0.69
 -24   4   1    0.80    0.44
 -24   4   1    2.23    0.48
  22  -4  -1   13.41    1.06
 -22  -4   1   13.22    0.83
  22  -4  -1   14.72    1.06
 -22   4   1   15.09    1.04
  22   4  -1   14.67    1.16
 -22   4   1   12.59    0.87
  20  -4  -1   30.80    1.53
 -20  -4   1   30.58    1.44
  20  -4  -1   30.86    1.52
 -20  -4   1   31.21    1.27
 -20   4   1   31.93    1.49
 -20   4   1   32.61    1.35
  20   4  -1   29.78    1.63
 -20   4   1   31.21    1.55
 -20   4   1   30.54    1.53
  20   4  -1   31.55    1.07
  18  -4  -1    1.73    0.45
 -18  -4   1    2.05    0.40
  18  -4  -1    1.72    0.44
 -18  -4   1    1.63    0.34
 -18   4   1    1.72    0.35
 -18   4   1    1.85    0.42
 -18   4   1    1.27    0.38
  18   4  -1    1.43    0.24
  18   4  -1    1.61    0.49
 -18   4   1    0.86    0.38
  16  -4  -1    7.73    0.79
 -16  -4   1    7.67    0.54
  16  -4  -1    5.87    0.70
 -16  -4   1    6.16    0.55
 -16   4   1    5.70    0.67
  16   4  -1    6.65    0.38
  16   4  -1    7.04    0.85
 -16   4   1    5.64    0.68
 -16   4   1    5.49    0.71
 -16   4   1    5.69    0.55
 -16   4   1    5.91    0.70
 -14  -4   1    8.24    0.57
  14  -4  -1    7.52    0.42
  14  -4  -1    7.46    0.65
 -14  -4   1    7.07    0.48
  14  -4  -1    7.43    0.63
  14   4  -1    9.45    0.56
 -14   4   1    7.43    0.52
 -14   4   1    7.34    0.63
  14   4  -1    7.88    0.36
  14   4  -1    8.07    0.90
 -14   4   1    6.66    0.74
  14   4  -1    8.36    0.45
 -14   4   1    8.50    0.66
 -14   4   1    8.33    0.68
  12  -4  -1   69.79    1.76
 -12  -4   1   71.17    1.93
  12  -4  -1   69.98    2.21
  12  -4  -1   72.18    2.23
 -12  -4   1   73.11    1.92
  12  -4  -1   66.91    2.45
 -12  -4   1   73.83    2.18
 -12   4   1   72.81    2.17
 -12   4   1   68.57    2.19
  12   4  -1   71.76    1.65
  12   4  -1   73.37    2.59
  12   4  -1   69.06    1.93
 -12   4   1   69.77    2.41
  12   4  -1   70.71    1.65
 -12   4   1   71.02    1.84
 -12   4   1   73.79    2.25
 -12   4   1   70.22    1.89
  12   4  -1   73.62    1.91
  10  -4  -1   26.47    1.08
  10  -4  -1   23.29    1.15
 -10  -4   1   23.49    0.84
  10  -4  -1   24.01    1.04
  10  -4  -1   24.65    0.74
 -10  -4   1   24.79    0.95
 -10  -4   1   25.28    0.84
  10   4  -1   23.51    0.88
  10   4  -1   24.36    1.29
 -10   4   1   24.92    0.77
 -10   4   1   24.49    1.00
  10   4  -1   25.23    0.83
 -10   4   1   23.93    1.19
 -10   4   1   24.43    0.78
 -10   4   1   24.37    1.06
 -10   4   1   25.04    1.06
  -8  -4   1   60.85    1.77
   8  -4  -1   61.90    2.05
  -8  -4   1   58.99    1.56
  -8  -4   1   60.19    1.56
   8  -4  -1   59.76    1.82
   8  -4  -1   60.46    1.82
  -8  -4   1   60.95    1.59
  -8   4   1   57.96    2.04
   8   4  -1   58.90    1.73
   8   4  -1   60.40    1.55
  -8   4   1   55.36    1.77
   8   4  -1   61.92    2.23
  -8   4   1   59.69    1.74
  -8   4   1   61.49    1.84
   6  -4  -1    1.59    0.28
   6  -4  -1    1.53    0.34
  -6  -4   1    1.54    0.22
   6  -4  -1    1.66    0.29
  -6  -4   1    1.25    0.20
  -6  -4   1    1.54    0.22
  -6  -4   1    1.37    0.20
   6  -4  -1    1.48    0.28
  -6  -4   1    1.64    0.22
  -6   4   1    2.07    0.28
  -6   4   1    1.71    0.27
   6   4  -1    1.40    0.27
  -6   4   1    1.82    0.30
   6   4  -1    1.39    0.20
  -6   4   1    1.27    0.30
   6   4  -1    1.54    0.39
   4  -4  -1   10.16    0.54
  -4  -4   1   10.71    0.52
   4  -4  -1   10.05    0.42
  -4  -4   1   10.02    0.73
   4  -4  -1   10.40    0.58
  -4  -4   1   10.91    0.45
   4  -4  -1   10.86    0.54
  -4  -4   1   10.00    0.47
  -4  -4   1   10.39    0.46
   4  -4  -1   10.22    0.42
   4  -4  -1   10.79    0.74
   4   4  -1   10.61    0.32
  -4   4   1   11.28    0.77
  -4   4   1   11.14    0.69
   4   4  -1    9.44    0.75
  -4   4   1   10.01    0.53
   4   4  -1   10.07    0.59
  -4   4   1    9.59    0.49
   4   4  -1    9.80    0.44
  -2  -4   1   12.52    0.80
  -2  -4   1   12.20    0.58
  -2  -4   1   11.95    0.50
  -2  -4   1   11.54    0.60
   2  -4  -1   10.31    0.54
  -2  -4   1   13.35    0.55
   2  -4  -1   11.64    0.48
   2  -4  -1   10.84    0.50
   2  -4  -1   11.49    0.51
  -2  -4   1   11.64    0.51
   2  -4  -1   10.97    0.52
   2  -4  -1   11.72    0.51
   2  -4  -1   12.34    0.55
   2  -4  -1   12.33    0.77
   2   4  -1   12.08    0.83
   2   4  -1   11.64    0.39
  -2   4   1   12.34    0.70
  -2   4   1   11.10    0.44
  -2   4   1   11.18    0.51
   2   4  -1   11.76    0.43
   2   4  -1   11.14    0.42
   2   4  -1   11.02    0.65
  -2   4   1   12.99    0.83
  -2   4   1   10.73    0.42
   0  -4  -1   25.41    0.80
   0  -4  -1   24.41    0.82
   0  -4   1   26.02    0.85
   0  -4  -1   25.34    0.90
   0  -4   1   24.02    1.16
   0  -4   1   24.76    0.86
   0  -4  -1   25.29    1.17
   0  -4  -1   24.96    0.78
   0  -4  -1   24.65    0.76
   0  -4   1   25.52    0.98
   0   4   1   24.75    1.19
   0   4  -1   23.77    1.03
   0   4   1   24.72    1.01
   0   4   1   25.72    0.76
   0   4  -1   24.59    1.19
   0   4  -1   24.24    0.79
   2  -4   1    8.53    0.67
  -2  -4  -1    9.43    0.56
  -2  -4  -1   10.72    0.52
  -2  -4  -1   10.52    0.38
   2  -4   1   10.11    0.61
  -2  -4  -1   10.35    0.38
  -2  -4  -1   10.16    0.40
   2  -4   1    9.58    0.52
  -2  -4  -1   10.42    0.71
  -2   4  -1   10.95    0.68
  -2   4  -1    9.63    0.71
   2   4   1   10.28    0.58
  -2   4  -1   10.23    0.51
  -2   4  -1   10.41    0.55
  -2   4  -1   10.02    0.50
   2   4   1    9.82    0.74
  -4  -4  -1    9.68    0.32
  -4  -4  -1   10.20    0.34
  -4  -4  -1   10.25    0.55
   4  -4   1    9.24    0.55
   4  -4   1    9.36    0.69
  -4  -4  -1   10.15    0.70
  -4  -4  -1   10.36    0.55
  -4  -4  -1    9.94    0.32
  -4   4  -1   10.32    0.73
  -4   4  -1   10.22    0.58
   4   4   1   11.00    0.78
  -4   4  -1    9.40    0.66
  -4   4  -1    9.78    0.54
   4   4   1   10.14    0.53
  -4   4  -1    9.74    0.51
   6  -4   1    3.18    0.43
   6  -4   1    3.56    0.51
  -6  -4  -1    3.79    0.50
   6  -4   1    3.52    0.42
  -6   4  -1    3.72    0.42
  -6   4  -1    2.93    0.44
   6   4   1    4.40    0.58
  -6   4  -1    3.14    0.39
   6   4   1    3.38    0.33
  -6   4  -1    3.34    0.48
  -6   4  -1    3.86    0.39
   8  -4   1   16.54    0.81
  -8  -4  -1   15.73    0.47
  -8  -4  -1   16.55    0.47
   8  -4   1   14.80    0.87
  -8  -4  -1   16.40    0.48
  -8  -4  -1   16.01    0.47
   8  -4   1   15.85    0.94
  -8   4  -1   15.87    0.59
  -8   4  -1   14.45    0.89
  -8   4  -1   15.76    0.80
   8   4   1   16.80    0.62
  -8   4  -1   17.08    0.89
  -8   4  -1   15.39    0.57
  -8   4  -1   16.23    0.76
  -8   4  -1   13.91    0.77
   8   4   1   16.16    1.02
 -10  -4  -1   12.02    0.44
  10  -4   1   11.56    0.72
  10  -4   1   13.25    0.82
 -10  -4  -1   11.44    0.43
 -10  -4  -1   10.97    0.43
 -10  -4  -1   11.75    0.48
 -10  -4  -1   11.67    0.44
  10  -4   1   12.20    0.49
 -10   4  -1   11.52    0.73
 -10   4  -1   11.06    0.79
  10   4   1   11.86    0.42
  10   4   1   11.80    0.46
 -10   4  -1   11.65    0.69
 -10   4  -1   11.96    0.57
  10   4   1   11.94    0.72
 -10   4  -1   11.32    0.54
  10   4   1   11.23    0.87
 -10   4  -1   11.57    0.72
  12  -4   1   55.22    1.87
 -12  -4  -1   54.94    1.45
  12  -4   1   56.35    1.88
  12  -4   1   56.07    2.09
 -12  -4  -1   54.92    1.63
  12  -4   1   56.47    1.47
  12   4   1   55.83    1.43
  12   4   1   53.30    2.11
  12   4   1   53.10    1.83
 -12   4  -1   52.70    1.84
 -12   4  -1   52.72    1.87
 -12   4  -1   55.33    1.57
 -12   4  -1   53.61    1.79
 -12   4  -1   53.27    1.60
 -12   4  -1   53.38    2.03
  14  -4   1    1.32    0.36
  14  -4   1    0.97    0.33
 -14  -4  -1    0.83    0.21
 -14  -4  -1    0.59    0.20
  14   4   1    1.03    0.31
  14   4   1    0.91    0.22
 -14   4  -1    1.52    0.39
 -14   4  -1    0.95    0.35
 -14   4  -1    0.95    0.25
 -14   4  -1    2.12    0.48
 -14   4  -1    0.48    0.22
  14   4   1    0.80    0.38
 -14   4  -1    0.71    0.31
  16  -4   1   20.43    0.90
  16  -4   1   21.15    1.15
  16  -4   1   20.35    1.11
 -16  -4  -1   20.38    0.82
 -16  -4  -1   19.47    0.92
 -16   4  -1   21.53    0.98
 -16   4  -1   20.21    1.14
  16   4   1   20.16    1.23
  16   4   1   22.14    0.87
 -16   4  -1   18.56    1.09
 -16   4  -1   19.26    1.17
 -16   4  -1   21.11    1.09
  16   4   1   19.47    1.08
  18  -4   1    9.77    0.80
 -18  -4  -1    8.10    0.63
 -18  -4  -1    8.04    0.56
  18  -4   1    9.19    0.90
  18  -4   1    9.13    0.61
  18   4   1   10.01    0.79
 -18   4  -1    8.98    0.67
 -18   4  -1    9.22    0.90
  18   4   1    9.61    0.90
 -18   4  -1    9.21    0.75
 -18   4  -1    7.27    0.81
 -18   4  -1    8.75    0.93
  20  -4   1    8.46    0.89
  20  -4   1    5.49    0.75
 -20  -4  -1    7.28    0.57
 -20   4  -1    6.07    0.79
  20   4   1    6.76    0.87
  20   4   1    6.23    0.78
 -20   4  -1    7.07    0.81
 -20   4  -1    7.47    0.86
 -20   4  -1    7.46    0.86
 -20   4  -1    6.53    0.69
  22  -4   1   14.36    1.08
 -22  -4  -1   13.85    0.82
  22  -4   1   14.00    1.07
  22   4   1   14.54    1.14
 -22   4  -1   13.74    1.01
 -22   4  -1   14.81    0.94
 -22   4  -1   14.79    1.10
  24  -4   1    3.18    0.65
 -24  -4  -1    4.02    0.57
  24   4   1    4.56    0.77
 -24   4  -1    2.31    0.48
 -24   4  -1    4.47    0.73
 -26  -4  -1    2.00    0.48
  26  -4   1    1.91    0.58
 -26   4  -1    3.36    0.69
  25  -5  -1    6.86    0.94
 -25  -5   1    7.22    0.75
 -25   5   1    5.53    0.67
  25   5  -1    5.16    0.93
  23  -5  -1   11.19    1.14
 -23  -5   1   10.31    0.76
  23   5  -1    8.77    1.15
 -21  -5   1    5.38    0.59
  21  -5  -1    5.26    0.79
  21  -5  -1    5.19    0.78
 -21   5   1    4.27    0.54
  21   5  -1    5.26    0.89
 -21   5   1    5.47    0.80
  19  -5  -1   27.58    1.46
 -19  -5   1   26.77    1.11
  19  -5  -1   26.54    1.44
 -19   5   1   24.53    1.39
  19   5  -1   28.13    1.67
 -19   5   1   26.32    1.11
 -17  -5   1    1.41    0.31
  17  -5  -1    1.50    0.46
  17  -5  -1    0.98    0.39
 -17   5   1    1.47    0.46
  17   5  -1    1.50    0.53
 -17   5   1    0.70    0.38
 -17   5   1    0.64    0.23
 -17   5   1    1.17    0.26
  15  -5  -1   24.95    1.28
  15  -5  -1   23.85    1.23
 -15  -5   1   22.76    1.07
 -15  -5   1   24.40    0.94
  15   5  -1   24.00    1.48
 -15   5   1   24.42    1.39
 -15   5   1   24.67    1.23
 -15   5   1   24.58    0.86
 -15   5   1   22.83    0.86
 -15   5   1   23.52    1.23
  13  -5  -1   19.02    1.05
 -13  -5   1   19.64    0.91
 -13  -5   1   17.60    0.75
  13  -5  -1   20.22    1.07
 -13   5   1   16.78    0.60
 -13   5   1   18.05    0.99
 -13   5   1   18.15    1.16
 -13   5   1   18.76    1.03
 -13   5   1   18.99    0.62
  13   5  -1   19.78    0.80
  13   5  -1   16.83    1.22
 -11  -5   1   36.76    1.14
 -11  -5   1   36.78    1.32
  11  -5  -1   36.55    1.43
  11  -5  -1   36.72    1.46
  11   5  -1   36.87    1.80
 -11   5   1   34.82    1.63
 -11   5   1   34.77    1.44
  11   5  -1   38.55    1.17
 -11   5   1   36.76    1.42
  11   5  -1   36.98    1.26
   9  -5  -1   16.27    0.97
   9  -5  -1   17.22    0.89
  -9  -5   1   17.21    1.10
  -9  -5   1   17.95    0.78
   9  -5  -1   17.36    0.89
  -9  -5   1   17.05    0.67
  -9   5   1   17.97    0.92
  -9   5   1   15.36    1.01
   9   5  -1   19.59    0.71
   9   5  -1   17.09    1.16
   9   5  -1   17.73    0.81
  -9   5   1   15.61    0.82
   7  -5  -1   25.57    1.17
  -7  -5   1   24.41    1.32
   7  -5  -1   25.37    1.05
  -7  -5   1   26.52    0.85
   7  -5  -1   23.27    1.28
   7  -5  -1   25.47    1.05
  -7  -5   1   26.54    0.97
  -7   5   1   22.88    1.21
   7   5  -1   24.54    0.83
  -7   5   1   23.88    0.97
  -7   5   1   25.66    1.07
   7   5  -1   24.24    1.02
   7   5  -1   24.41    1.39
  -5  -5   1   15.91    0.73
   5  -5  -1   16.74    0.77
   5  -5  -1   15.45    0.82
  -5  -5   1   14.68    0.99
   5  -5  -1   14.60    0.72
  -5  -5   1   15.39    0.63
   5  -5  -1   14.64    0.98
   5   5  -1   15.72    0.63
   5   5  -1   15.21    0.80
  -5   5   1   16.93    1.07
   5   5  -1   16.37    1.09
  -5   5   1   16.31    0.78
  -5   5   1   15.66    0.68
  -5   5   1   15.31    0.92
  -3  -5   1    0.71    0.31
  -3  -5   1    1.05    0.21
   3  -5  -1    0.89    0.19
   3  -5  -1    0.57    0.21
   3  -5  -1    0.85    0.22
   3  -5  -1    0.93    0.31
   3  -5  -1    0.60    0.21
  -3  -5   1    0.82    0.22
  -3   5   1    0.41    0.20
  -3   5   1    0.91    0.29
  -3   5   1    0.81    0.17
   3   5  -1    1.52    0.43
  -3   5   1    0.65    0.32
  -3   5   1    1.08    0.19
   3   5  -1    1.02    0.29
   1  -5  -1   48.63    1.93
  -1  -5   1   48.39    1.65
   1  -5  -1   49.75    1.41
   1  -5  -1   49.72    1.41
   1  -5  -1   49.52    1.40
   1  -5  -1   49.05    1.57
  -1  -5   1   49.20    1.45
  -1  -5   1   47.78    1.95
  -1   5   1   46.84    1.71
  -1   5   1   50.83    1.99
   1   5  -1   46.70    1.71
  -1   5   1   51.05    1.43
   1   5  -1   51.03    2.02
   1   5  -1   48.59    1.24
   1   5  -1   48.78    1.24
  -1  -5  -1    6.66    0.45
   1  -5   1    6.16    0.45
  -1  -5  -1    5.90    0.69
   1  -5   1    4.70    0.62
  -1  -5  -1    7.29    0.39
   1  -5   1    6.38    0.52
   1   5   1    7.32    0.39
   1   5   1    7.17    0.83
  -1   5  -1    6.33    0.57
   1   5   1    6.69    0.56
  -1   5  -1    6.78    0.77
  -1   5  -1    7.28    0.49
  -1   5  -1    6.88    0.39
  -3  -5  -1    2.62    0.22
   3  -5   1    2.42    0.40
  -3  -5  -1    2.62    0.23
   3  -5   1    1.86    0.42
  -3  -5  -1    2.37    0.45
   3  -5   1    2.34    0.35
  -3   5  -1    2.67    0.46
   3   5   1    1.87    0.47
  -3   5  -1    2.04    0.34
  -3   5  -1    2.23    0.30
   3   5   1    2.74    0.38
  -3   5  -1    2.36    0.47
  -5  -5  -1    4.35    0.23
  -5  -5  -1    4.40    0.63
   5  -5   1    4.64    0.53
   5  -5   1    3.80    0.45
  -5  -5  -1    4.54    0.24
   5  -5   1    3.93    0.58
   5  -5   1    3.25    0.49
  -5  -5  -1    4.32    0.23
   5   5   1    3.83    0.61
  -5   5  -1    4.04    0.42
  -5   5  -1    4.49    0.50
  -5   5  -1    3.62    0.53
  -5   5  -1    3.74    0.58
   5   5   1    4.34    0.44
   7  -5   1   11.94    0.84
   7  -5   1   12.81    0.76
   7  -5   1   12.25    0.82
  -7  -5  -1   12.29    0.44
   7  -5   1   12.47    0.91
  -7  -5  -1   11.78    0.88
   7   5   1   11.26    0.61
   7   5   1   11.26    0.95
  -7   5  -1   12.55    0.71
  -7   5  -1   12.67    0.90
  -7   5  -1   11.30    0.85
  -7   5  -1   13.64    0.78
   9  -5   1    2.98    0.48
  -9  -5  -1    3.38    0.23
   9  -5   1    2.73    0.50
  -9  -5  -1    2.88    0.50
  -9  -5  -1    2.96    0.19
  -9   5  -1    2.55    0.42
  -9   5  -1    3.83    0.53
   9   5   1    3.38    0.21
   9   5   1    3.63    0.36
  -9   5  -1    3.49    0.55
   9   5   1    2.35    0.52
  -9   5  -1    2.39    0.49
 -11  -5  -1    8.27    0.35
 -11  -5  -1    8.03    0.42
 -11  -5  -1    8.05    0.84
  11  -5   1    7.68    0.65
  11  -5   1    7.78    0.66
 -11   5  -1    7.81    0.39
  11   5   1    8.21    0.93
 -11   5  -1    8.59    0.40
 -11   5  -1    8.16    0.69
 -11   5  -1    7.97    0.65
 -11   5  -1    6.76    0.76
  11   5   1    7.83    0.37
  13  -5   1    7.66    0.77
 -13  -5  -1    7.57    0.38
  13  -5   1    7.41    0.77
 -13  -5  -1    7.39    0.46
 -13   5  -1    8.13    0.46
 -13   5  -1    7.39    0.78
 -13   5  -1    7.32    0.74
  13   5   1    7.89    0.43
  13   5   1    6.62    0.87
 -13   5  -1    7.07    0.82
  15  -5   1   10.26    0.84
  15  -5   1    9.70    0.81
 -15  -5  -1   11.15    0.53
 -15   5  -1   10.75    0.92
 -15   5  -1   10.97    0.87
 -15   5  -1   11.35    0.85
  15   5   1   11.89    0.58
 -15   5  -1   10.95    0.60
  15   5   1   11.18    1.02
 -15   5  -1   10.77    0.63
  17  -5   1    1.85    0.49
  17  -5   1    3.38    0.59
 -17  -5  -1    1.94    0.31
 -17   5  -1    2.37    0.36
 -17   5  -1    1.79    0.44
 -17   5  -1    2.26    0.38
 -17   5  -1    2.43    0.58
 -17   5  -1    2.75    0.56
  17   5   1    2.51    0.61
 -19  -5  -1   20.87    0.88
  19  -5   1   22.36    1.28
  19  -5   1   17.33    1.16
 -19   5  -1   20.31    1.00
 -19   5  -1   17.95    1.28
 -19   5  -1   20.01    1.25
  19   5   1   19.73    1.40
 -21  -5  -1   12.83    0.75
  21  -5   1   13.20    1.05
  21  -5   1   13.97    1.06
  21   5   1   15.13    1.23
 -21   5  -1   12.95    0.85
 -23  -5  -1    4.68    0.55
  23  -5   1    3.89    0.73
 -23   5  -1    4.34    0.60
  23   5   1    4.79    0.86
 -25  -5  -1    4.78    0.60
  25  -5   1    5.52    0.89
 -25   5  -1    5.66    0.69
  25   5   1    3.27    0.76
 -20  -6   1   12.01    0.71
  20  -6  -1   10.87    1.12
 -20   6   1   10.50    1.12
  20   6  -1   12.13    1.36
 -20   6   1   12.78    0.59
  18  -6  -1   22.01    1.32
 -18  -6   1   19.19    0.87
 -18   6   1   19.41    1.28
  18   6  -1   19.10    1.47
 -16  -6   1   10.65    0.60
  16  -6  -1    9.52    0.98
 -16   6   1   11.90    1.05
  16   6  -1   10.90    1.24
 -16   6   1   11.07    0.93
 -14  -6   1    4.98    0.40
 -14  -6   1    3.67    0.65
  14  -6  -1    4.12    0.62
 -14   6   1    2.79    0.58
 -14   6   1    4.01    0.58
 -14   6   1    4.73    0.66
  14   6  -1    4.27    0.82
 -12  -6   1    9.81    0.52
  12  -6  -1    8.95    0.75
 -12  -6   1   10.76    1.14
  12   6  -1    8.07    1.01
 -12   6   1    8.65    0.93
 -12   6   1   10.00    0.72
 -12   6   1   10.05    0.80
  10  -6  -1    9.68    0.73
 -10  -6   1    9.54    0.50
 -10  -6   1    9.96    1.06
 -10   6   1    8.34    0.90
 -10   6   1    9.07    0.73
 -10   6   1    8.93    0.65
  10   6  -1    8.89    1.04
  -8  -6   1    7.91    0.95
   8  -6  -1    8.04    0.93
   8  -6  -1    7.23    0.61
  -8  -6   1    8.43    0.47
  -8  -6   1    8.57    0.56
  -8   6   1    7.56    0.56
   8   6  -1    8.75    1.04
   8   6  -1    8.45    0.50
  -8   6   1    6.79    0.68
  -8   6   1    7.09    0.81
   6  -6  -1   35.91    1.49
   6  -6  -1   32.61    1.68
  -6  -6   1   36.66    1.30
  -6  -6   1   31.68    1.68
   6  -6  -1   32.76    1.30
  -6  -6   1   35.85    1.11
  -6   6   1   32.64    1.56
   6   6  -1   34.21    1.12
   6   6  -1   33.97    1.38
   6   6  -1   35.81    1.83
  -6   6   1   35.08    1.35
  -6   6   1   34.14    1.15
  -4  -6   1  105.35    2.65
  -4  -6   1  108.30    3.05
  -4  -6   1   99.57    3.49
   4  -6  -1  101.96    2.78
   4  -6  -1  103.06    3.46
   4  -6  -1  100.14    3.11
  -4   6   1  108.39    3.57
   4   6  -1  107.17    3.09
   4   6  -1  104.18    2.63
   4   6  -1  104.68    3.60
  -4   6   1  106.21    2.49
  -4   6   1  103.22    2.81
  -4   6   1  103.27    3.24
   2  -6  -1   19.16    0.93
   2  -6  -1   18.36    0.81
   2  -6  -1   18.29    1.19
  -2  -6   1   18.22    1.24
  -2  -6   1   19.95    0.82
  -2  -6   1   19.55    0.95
  -2   6   1   21.23    1.13
   2   6  -1   18.58    0.84
   2   6  -1   18.98    1.05
  -2   6   1   18.91    0.85
   2   6  -1   20.64    1.32
  -2   6   1   20.53    1.32
   0  -6   1    7.94    0.55
   0  -6  -1    8.06    0.49
   0  -6  -1    8.84    0.94
   0  -6   1    8.58    0.64
   0  -6  -1    8.07    0.55
   0  -6   1    8.31    0.92
   0   6  -1    8.26    0.57
   0   6  -1    9.01    0.74
   0   6  -1    6.70    0.86
   0   6   1    8.19    0.51
   0   6   1    7.96    0.67
   0   6   1    6.44    0.84
  -2  -6  -1    3.81    0.33
   2  -6   1    3.76    0.52
  -2  -6  -1    3.62    0.63
   2  -6   1    4.85    0.50
   2  -6   1    3.92    0.64
   2   6   1    3.91    0.70
  -2   6  -1    3.86    0.33
   2   6   1    3.87    0.52
   2   6   1    3.76    0.35
  -2   6  -1    3.57    0.66
  -2   6  -1    3.62    0.46
  -2   6  -1    3.61    0.58
  -4  -6  -1   56.68    1.68
   4  -6   1   51.82    2.04
   4  -6   1   55.29    2.28
   4  -6   1   54.57    1.80
   4  -6   1   54.91    2.02
  -4  -6  -1   56.96    2.31
  -4  -6  -1   55.78    1.43
  -4   6  -1   54.52    2.11
  -4   6  -1   56.31    1.85
  -4   6  -1   55.16    1.63
   4   6   1   56.50    1.88
  -4   6  -1   57.29    2.28
   4   6   1   57.89    2.40
   6  -6   1    2.10    0.48
  -6  -6  -1    2.52    0.54
  -6  -6  -1    2.34    0.19
   6  -6   1    2.28    0.46
   6  -6   1    2.67    0.44
  -6  -6  -1    2.12    0.25
  -6   6  -1    2.23    0.42
   6   6   1    2.59    0.56
  -6   6  -1    3.50    0.62
  -6   6  -1    2.08    0.35
  -6   6  -1    3.21    0.57
   8  -6   1    4.85    0.68
   8  -6   1    4.32    0.57
   8  -6   1    4.82    0.72
  -8  -6  -1    4.34    0.68
  -8   6  -1    5.14    0.55
  -8   6  -1    4.79    0.71
   8   6   1    4.84    0.29
  -8   6  -1    3.86    0.63
   8   6   1    4.81    0.78
  -8   6  -1    5.71    0.65
  10  -6   1    1.66    0.43
 -10  -6  -1    2.56    0.53
  10  -6   1    1.04    0.41
  10  -6   1    1.55    0.47
 -10   6  -1    1.17    0.33
 -10   6  -1    1.30    0.39
  10   6   1    0.95    0.45
 -10   6  -1    1.89    0.49
  10   6   1    1.53    0.20
 -12  -6  -1    0.42    0.31
  12  -6   1    0.71    0.35
  12  -6   1    0.64    0.38
  12   6   1    0.82    0.44
 -12   6  -1    0.04    0.26
  12   6   1    1.09    0.21
 -12   6  -1    1.19    0.40
 -12   6  -1    0.64    0.38
  14  -6   1    1.21    0.44
 -14  -6  -1    1.47    0.48
 -14   6  -1    2.33    0.51
 -14   6  -1    1.88    0.53
  14   6   1    2.18    0.59
 -14   6  -1    1.51    0.41
 -16  -6  -1   -0.16    0.27
  16  -6   1    0.87    0.41
 -16   6  -1    0.10    0.35
 -16   6  -1    0.24    0.14
 -16   6  -1   -0.19    0.31
  16   6   1    0.22    0.36
 -16   6  -1    0.17    0.13
  18  -6   1    4.46    0.70
  18   6   1    3.91    0.80
 -18   6  -1    3.75    0.39
 -18   6  -1    3.64    0.68
 -18   6  -1    3.35    0.37
  20  -6   1   19.71    1.32
  20   6   1   18.95    1.45
 -20   6  -1   18.13    1.27
  17  -7  -1   10.39    1.07
 -17   7   1    8.83    1.03
  17   7  -1    8.33    1.18
  15  -7  -1    3.35    0.66
  15   7  -1    4.07    0.85
 -15   7   1    4.49    0.76
  13  -7  -1   22.33    1.25
  13   7  -1   22.45    1.61
 -13   7   1   20.19    1.26
  11  -7  -1    0.58    0.35
 -11   7   1    0.60    0.40
  11   7  -1    0.94    0.51
 -11   7   1    0.52    0.31
 -11   7   1    0.45    0.34
  -9  -7   1    7.76    1.04
   9  -7  -1    6.94    0.74
   9   7  -1    8.14    1.11
  -9   7   1    7.11    0.76
  -9   7   1    6.92    0.87
  -7  -7   1   25.22    1.58
   7  -7  -1   21.58    1.45
  -7  -7   1   22.61    0.86
   7  -7  -1   23.80    1.11
  -7   7   1   22.24    1.15
  -7   7   1   23.51    1.40
   7   7  -1   21.44    1.53
  -5  -7   1   10.91    0.60
   5  -7  -1   12.05    1.07
   5  -7  -1    9.57    0.69
  -5  -7   1    9.06    1.09
   5   7  -1   10.60    1.21
  -5   7   1   11.15    0.93
  -5   7   1   11.31    0.77
   3  -7  -1   27.75    1.64
  -3  -7   1   25.70    1.61
  -3  -7   1   26.89    1.03
   3  -7  -1   25.39    1.08
   3   7  -1   28.20    1.70
  -3   7   1   26.48    1.43
   3   7  -1   29.72    1.14
  -3   7   1   28.61    1.18
  -3   7   1   28.94    1.71
   3   7  -1   29.02    1.38
  -1  -7   1   26.21    1.05
   1  -7  -1   26.99    1.19
  -1  -7   1   27.67    1.64
   1  -7  -1   24.63    0.99
   1  -7  -1   24.18    1.52
   1   7  -1   27.89    1.13
  -1   7   1   26.23    1.64
   1   7  -1   27.00    1.37
   1   7  -1   24.41    1.58
  -1   7   1   26.13    1.37
  -1   7   1   25.91    1.06
   1  -7   1    4.66    0.53
  -1  -7  -1    4.57    0.50
   1  -7   1    4.56    0.76
  -1  -7  -1    4.90    0.77
  -1  -7  -1    4.32    0.42
   1   7   1    4.36    0.62
  -1   7  -1    3.62    0.63
   1   7   1    5.04    0.49
  -1   7  -1    4.60    0.81
   1   7   1    5.02    0.85
  -1   7  -1    5.26    0.58
   3  -7   1   11.30    1.19
  -3  -7  -1   11.24    1.17
   3  -7   1   12.52    0.77
  -3  -7  -1   11.56    0.66
   3   7   1   12.77    0.63
  -3   7  -1   13.74    0.86
   3   7   1   12.73    1.15
  -3   7  -1   12.27    0.96
  -3   7  -1   12.04    1.11
   5  -7   1   16.51    1.26
  -5  -7  -1   19.80    1.36
   5  -7   1   17.34    0.97
  -5   7  -1   15.85    0.98
   5   7   1   17.25    0.70
  -5   7  -1   18.42    1.20
  -5   7  -1   19.51    1.38
   5   7   1   17.56    1.38
  -7  -7  -1    0.69    0.40
   7  -7   1    0.73    0.40
   7  -7   1    0.49    0.32
  -7   7  -1    0.86    0.40
  -7   7  -1    0.68    0.28
   7   7   1    0.59    0.21
   7   7   1    0.95    0.49
  -7   7  -1   -0.10    0.33
  -7   7  -1    1.08    0.39
   9  -7   1    2.59    0.51
  -9  -7  -1    2.78    0.65
   9   7   1    2.63    0.66
   9   7   1    2.90    0.30
  -9   7  -1    3.40    0.66
  -9   7  -1    1.86    0.47
  -9   7  -1    2.79    0.45
 -11  -7  -1    4.97    0.82
  11  -7   1    4.50    0.67
 -11   7  -1    4.98    0.61
 -11   7  -1    5.00    0.70
  11   7   1    6.68    1.01
  13  -7   1    6.35    0.80
  13   7   1    5.13    0.91
 -13   7  -1    8.10    0.91
  15  -7   1    1.64    0.51
 -15   7  -1    2.06    0.54
  15   7   1    0.59    0.45
  17  -7   1    9.74    1.07
 -17   7  -1    9.84    1.07
  17   7   1    9.12    1.23
   8  -8  -1   15.55    0.97
  -8   8   1   14.07    0.99
   8   8  -1   13.56    1.52
   6  -8  -1    2.88    0.49
   6   8  -1    2.30    0.40
  -6   8   1    2.00    0.47
   6   8  -1    3.83    0.84
   4  -8  -1    2.14    0.43
  -4   8   1    1.55    0.44
   4   8  -1    1.97    0.67
  -4   8   1    1.11    0.47
   4   8  -1    2.30    0.41
   2  -8  -1    9.59    0.66
   2   8  -1   10.81    0.74
   2   8  -1    8.72    1.21
  -2   8   1   10.00    1.27
  -2   8   1    9.46    0.72
   0  -8   1    2.41    0.43
   0   8   1    2.98    0.77
   0   8  -1    3.25    0.51
   0   8  -1    1.76    0.61
   0   8   1    2.96    0.45
   2  -8   1    6.37    0.66
  -2   8  -1    5.01    0.78
   2   8   1    6.67    0.53
   2   8   1    6.20    1.04
  -2   8  -1    5.27    0.67
  -2   8  -1    4.43    0.88
   4  -8   1    0.66    0.34
  -4   8  -1    0.98    0.40
   4   8   1    1.09    0.57
  -4   8  -1    1.17    0.53
   4   8   1    1.00    0.29
   6  -8   1    0.22    0.31
  -6   8  -1    0.29    0.36
   6   8   1    0.32    0.44
   6   8   1    0.41    0.22
  -6   8  -1    0.67    0.52
   8  -8   1   12.77    0.92
   8   8   1   12.04    1.38
   8   8   1   13.15    0.61
  -8   8  -1   11.16    0.96
 -30   0   2    4.66    0.79
  28   0  -2    3.04    0.57
 -28   0   2    3.33    0.68
 -28   0   2    2.80    0.62
  26   0  -2    2.46    0.50
 -26   0   2    0.94    0.41
  26   0  -2    2.30    0.51
 -26   0   2    2.50    0.57
  26   0  -2    1.65    0.44
  24   0  -2   37.36    1.65
 -24   0   2   37.08    1.65
  24   0  -2   37.04    1.60
  24   0  -2   36.05    1.55
 -24   0   2   38.13    1.74
  22   0  -2    0.14    0.21
  22   0  -2   -0.27    0.19
 -22   0   2   -0.35    0.20
  22   0  -2    0.25    0.24
 -22   0   2   -0.28    0.23
 -20   0   2   30.09    1.51
  20   0  -2   28.40    1.31
  20   0  -2   31.77    1.31
 -20   0   2   31.77    1.37
 -20   0   2   31.81    1.42
  20   0  -2   29.94    1.30
  20   0  -2   31.00    1.45
 -18   0   2    0.71    0.27
 -18   0   2    0.67    0.30
  18   0  -2    0.35    0.20
 -18   0   2    0.10    0.20
 -18   0   2    0.45    0.27
 -18   0   2    0.46    0.25
  18   0  -2    0.26    0.21
  18   0  -2    0.61    0.25
  18   0  -2    0.47    0.26
  18   0  -2    0.46    0.27
 -16   0   2   23.60    1.08
  16   0  -2   22.52    0.93
  16   0  -2   21.04    1.00
  16   0  -2   22.05    1.09
  16   0  -2   21.90    1.00
  16   0  -2   22.96    0.97
 -16   0   2   21.97    1.01
 -16   0   2   22.73    1.14
 -16   0   2   22.36    0.98
 -16   0   2   22.80    0.98
  16   0  -2   21.79    0.99
  14   0  -2    2.74    0.40
  14   0  -2    2.46    0.36
  14   0  -2    2.39    0.33
 -14   0   2    1.91    0.34
  14   0  -2    2.55    0.40
 -14   0   2    2.24    0.33
 -14   0   2    2.15    0.33
 -14   0   2    2.72    0.37
 -14   0   2    2.57    0.38
  14   0  -2    1.70    0.32
 -14   0   2    1.51    0.32
  14   0  -2    2.26    0.31
  14   0  -2    3.16    0.43
 -12   0   2   19.94    0.86
 -12   0   2   21.26    0.82
  12   0  -2   21.26    0.90
 -12   0   2   19.97    0.82
  12   0  -2   20.46    0.80
 -12   0   2   21.91    0.90
  12   0  -2   19.30    0.84
  12   0  -2   20.57    0.94
 -12   0   2   19.80    0.81
  12   0  -2   20.37    0.85
  12   0  -2   19.36    0.80
  12   0  -2   20.66    0.87
 -12   0   2   17.88    0.85
 -12   0   2   20.40    0.96
 -10   0   2   25.65    0.95
 -10   0   2   25.81    0.93
 -10   0   2   25.41    0.89
 -10   0   2   26.60    0.90
  10   0  -2   26.06    0.94
  10   0  -2   26.40    0.97
  10   0  -2   24.44    1.03
 -10   0   2   26.96    0.96
  10   0  -2   27.17    0.91
  10   0  -2   25.73    0.94
 -10   0   2   26.95    0.99
 -10   0   2   26.12    0.95
  10   0  -2   26.55    0.96
  -8   0   2    0.15    0.15
   8   0  -2    0.11    0.14
   8   0  -2   -0.02    0.12
  -8   0   2   -0.03    0.14
  -8   0   2    0.14    0.13
   8   0  -2    0.08    0.13
   8   0  -2   -0.01    0.12
  -8   0   2    0.01    0.15
  -8   0   2    0.24    0.13
   8   0  -2    0.01    0.10
   8   0  -2    0.11    0.14
  -8   0   2    0.03    0.13
  -8   0   2   -0.14    0.11
  -6   0   2    2.86    0.28
   6   0  -2    3.33    0.28
   6   0  -2    3.60    0.31
  -6   0   2    3.12    0.31
  -6   0   2    3.40    0.30
  -6   0   2    3.57    0.30
   6   0  -2    3.66    0.30
  -6   0   2    3.49    0.31
   6   0  -2    3.58    0.30
  -6   0   2    2.91    0.31
  -6   0   2    3.04    0.26
   4   0  -2   41.28    1.11
  -4   0   2   38.57    1.06
   4   0  -2   39.90    1.10
   4   0  -2   40.64    1.04
  -4   0   2   38.13    1.07
  -4   0   2   39.59    1.10
   4   0  -2   39.98    1.07
  -4   0   2   40.44    1.03
   4   0  -2   38.82    1.07
  -4   0   2   38.90    1.09
  -2   0   2    6.75    0.32
  -2   0   2    6.79    0.30
  -2   0   2    7.15    0.31
  -2   0   2    5.98    0.31
   2   0  -2    7.00    0.32
   2   0  -2    7.20    0.33
   2   0  -2    6.45    0.31
  -2   0   2    6.14    0.30
   2   0  -2    6.81    0.29
   0   0  -2  264.26    5.68
   0   0   2  273.19    5.80
   0   0  -2  271.09    5.55
   0   0   2  261.88    5.54
   0   0   2  270.45    5.80
   0   0  -2  262.06    5.79
   0   0  -2  267.97    6.45
   0   0   2  265.07    5.68
   0   0  -2  268.78    5.79
   0   0  -2  258.97    5.77
  -2   0  -2  990.26   20.66
  -2   0  -2 1000.00   23.01
   2   0   2  973.67   20.34
   2   0   2  938.82   20.27
  -2   0  -2  806.90   20.12
   2   0   2  994.50   20.74
  -2   0  -2  966.62   19.63
  -2   0  -2  932.60   19.69
  -2   0  -2  966.62   21.12
  -2   0  -2  943.02   20.61
  -2   0  -2  934.42   20.05
  -4   0  -2    0.57    0.15
  -4   0  -2    0.40    0.14
  -4   0  -2    0.28    0.12
   4   0   2    0.17    0.12
   4   0   2    0.45    0.14
   4   0   2    0.33    0.14
  -4   0  -2    0.32    0.13
  -4   0  -2    0.29    0.10
   4   0   2    0.17    0.15
   4   0   2    0.16    0.11
  -4   0  -2    0.38    0.14
   4   0   2    0.26    0.09
  -4   0  -2    0.32    0.12
   4   0   2    0.43    0.13
  -6   0  -2    0.64    0.15
   6   0   2    0.86    0.17
  -6   0  -2    0.82    0.15
  -6   0  -2    0.65    0.16
  -6   0  -2    0.83    0.19
   6   0   2    0.86    0.18
   6   0   2    0.72    0.19
   6   0   2    0.73    0.17
  -6   0  -2    0.47    0.16
  -6   0  -2    0.64    0.17
  -6   0  -2    0.74    0.10
   6   0   2    0.60    0.13
  -6   0  -2    0.63    0.18
  -6   0  -2    0.73    0.14
   6   0   2    1.05    0.19
  -8   0  -2   20.50    0.78
   8   0   2   21.02    0.75
   8   0   2   20.87    0.82
   8   0   2   21.70    0.83
  -8   0  -2   19.64    0.72
   8   0   2   20.38    0.69
   8   0   2   19.35    0.59
  -8   0  -2   20.56    0.70
  -8   0  -2   20.29    0.83
   8   0   2   20.60    0.74
  -8   0  -2   21.62    0.82
   8   0   2   19.38    0.66
   8   0   2   22.11    0.79
  -8   0  -2   19.77    0.73
  -8   0  -2   20.83    0.87
  -8   0  -2   21.16    0.72
   8   0   2   20.34    0.76
   8   0   2   21.69    0.85
  10   0   2  361.27    8.80
 -10   0  -2  364.16    7.58
  10   0   2  358.22    7.92
  10   0   2  366.92    8.77
  10   0   2  352.83    8.01
 -10   0  -2  349.81    7.72
 -10   0  -2  349.80    7.87
 -10   0  -2  351.61    8.79
  10   0   2  342.59    7.48
  10   0   2  338.12    8.20
  10   0   2  350.66    7.81
  10   0   2  346.67    7.86
  10   0   2  356.64    8.24
 -10   0  -2  358.04    7.94
  10   0   2  346.74    7.86
 -10   0  -2  349.76    8.01
  10   0   2  359.44    7.78
 -12   0  -2    0.70    0.22
  12   0   2    0.89    0.26
  12   0   2    1.00    0.20
  12   0   2    0.64    0.22
  12   0   2    1.21    0.24
 -12   0  -2    1.00    0.24
  12   0   2    0.93    0.24
 -12   0  -2    0.78    0.18
  12   0   2    0.83    0.19
 -12   0  -2    0.92    0.25
 -12   0  -2    0.78    0.22
  12   0   2    0.62    0.20
 -12   0  -2    0.73    0.19
  12   0   2    0.79    0.21
  12   0   2    0.53    0.13
  12   0   2    1.10    0.26
  12   0   2    0.79    0.22
  14   0   2   22.95    0.99
  14   0   2   26.05    1.09
  14   0   2   25.19    0.91
 -14   0  -2   24.31    0.89
 -14   0  -2   23.25    0.94
  14   0   2   25.63    1.02
  14   0   2   24.44    1.06
  14   0   2   25.42    1.04
 -14   0  -2   22.33    1.07
  14   0   2   23.44    0.86
  14   0   2   24.32    0.78
  14   0   2   24.03    0.98
 -14   0  -2   23.49    1.03
 -14   0  -2   23.55    0.98
  14   0   2   24.78    0.99
 -14   0  -2   24.77    0.96
  14   0   2   24.19    1.10
  16   0   2    4.26    0.51
  16   0   2    3.88    0.41
 -16   0  -2    3.82    0.44
  16   0   2    4.25    0.48
  16   0   2    4.83    0.57
  16   0   2    3.60    0.48
  16   0   2    3.82    0.49
 -16   0  -2    3.13    0.43
 -16   0  -2    4.72    0.39
  16   0   2    3.28    0.42
  16   0   2    3.67    0.39
 -16   0  -2    4.78    0.54
  16   0   2    3.61    0.46
 -16   0  -2    4.28    0.54
 -16   0  -2    5.11    0.52
  16   0   2    3.81    0.49
  16   0   2    4.07    0.31
  18   0   2   18.59    0.99
 -18   0  -2   18.04    1.03
  18   0   2   17.15    1.00
  18   0   2   16.17    0.75
  18   0   2   17.09    0.91
  18   0   2   16.77    0.88
  18   0   2   18.41    0.96
 -18   0  -2   17.30    0.96
  18   0   2   17.29    0.92
  18   0   2   17.16    0.67
  18   0   2   17.92    0.97
 -18   0  -2   17.32    0.92
  20   0   2   18.06    0.97
  20   0   2   16.93    0.98
  20   0   2   18.55    0.97
  20   0   2   20.33    1.09
 -20   0  -2   19.00    1.06
  20   0   2   19.47    0.85
 -20   0  -2   20.66    1.16
 -20   0  -2   20.04    1.03
  22   0   2   13.26    0.87
  22   0   2   14.38    0.92
 -22   0  -2   15.36    0.99
  22   0   2   14.07    0.94
  22   0   2   13.37    0.73
 -22   0  -2   14.20    1.03
 -22   0  -2   15.29    0.94
  22   0   2   15.21    0.91
  24   0   2    8.62    0.87
  24   0   2    7.49    0.57
 -24   0  -2    8.28    0.87
 -24   0  -2    7.67    0.81
  24   0   2    8.26    0.71
  24   0   2    7.91    0.85
 -26   0  -2    0.27    0.41
  26   0   2    0.77    0.38
  26   0   2    0.95    0.36
 -26   0  -2    0.40    0.35
  26   0   2    0.70    0.34
  28   0   2   32.44    1.68
 -28   0  -2   33.80    1.67
  30   0   2    3.70    0.72
 -30   0  -2    3.16    0.64
 -31  -1   2   14.69    1.16
 -31   1   2   14.91    1.20
  31   1  -2   15.67    0.76
  29  -1  -2    4.45    0.76
 -29  -1   2    5.47    0.78
  29   1  -2    5.13    0.52
 -29   1   2    5.18    0.80
 -27  -1   2    2.75    0.56
  27  -1  -2    1.03    0.44
  27  -1  -2    2.80    0.52
  27   1  -2    2.04    0.36
 -27   1   2    1.87    0.51
  27   1  -2    1.35    0.43
 -27   1   2    1.23    0.49
  25  -1  -2   10.58    0.90
 -25  -1   2   12.01    0.93
  25  -1  -2   10.53    0.88
 -25  -1   2   11.28    0.87
  25  -1  -2    9.99    0.77
  25   1  -2    9.01    0.61
 -25   1   2   10.71    1.05
  25   1  -2   10.07    0.81
  25   1  -2    9.99    0.83
 -25   1   2   10.36    0.89
 -23  -1   2   22.92    1.22
 -23  -1   2   22.33    1.25
  23  -1  -2   21.85    1.23
  23  -1  -2   24.87    1.26
  23  -1  -2   22.32    1.11
  23   1  -2   20.11    1.11
  23   1  -2   23.81    1.23
  23   1  -2   23.31    0.97
 -23   1   2   23.74    1.28
 -23   1   2   23.03    1.31
 -21  -1   2   14.85    1.04
 -21  -1   2   17.08    0.97
  21  -1  -2   17.70    1.02
  21  -1  -2   17.62    0.92
 -21  -1   2   15.54    0.99
  21  -1  -2   15.92    0.98
 -21   1   2   16.27    1.00
  21   1  -2   16.47    0.94
  21   1  -2   16.20    0.91
  21   1  -2   16.42    0.97
  21   1  -2   16.99    0.79
 -21   1   2   17.60    1.08
  19  -1  -2   21.14    1.19
  19  -1  -2   19.92    1.04
 -19  -1   2   21.75    1.09
  19  -1  -2   21.10    0.96
 -19  -1   2   20.70    1.16
 -19  -1   2   19.55    1.02
 -19   1   2   20.07    1.17
 -19   1   2   18.75    1.07
  19   1  -2   19.27    0.98
 -19   1   2   21.71    1.07
  19   1  -2   17.75    0.94
  19   1  -2   19.55    1.03
  19   1  -2   18.88    0.82
 -19   1   2   20.02    1.05
 -19   1   2   19.92    1.00
  17  -1  -2   15.77    0.87
  17  -1  -2   16.17    0.78
 -17  -1   2   15.11    0.93
 -17  -1   2   15.05    0.84
 -17  -1   2   16.36    0.79
  17  -1  -2   16.22    0.98
 -17  -1   2   16.18    0.88
  17  -1  -2   15.26    0.87
  17   1  -2   16.01    0.71
  17   1  -2   16.32    0.83
  17   1  -2   14.62    0.83
 -17   1   2   15.36    0.82
 -17   1   2   15.49    0.96
 -17   1   2   15.86    0.86
 -17   1   2   15.93    0.92
  17   1  -2   16.44    0.89
 -17   1   2   15.05    0.86
  17   1  -2   16.40    0.87
  17   1  -2   14.90    0.79
 -15  -1   2    6.75    0.54
 -15  -1   2    6.82    0.51
  15  -1  -2    6.49    0.59
 -15  -1   2    6.78    0.50
  15  -1  -2    6.92    0.47
  15  -1  -2    6.43    0.53
 -15  -1   2    5.01    0.56
 -15  -1   2    6.12    0.46
  15  -1  -2    6.10    0.53
 -15   1   2    6.75    0.55
  15   1  -2    6.13    0.52
 -15   1   2    7.25    0.55
  15   1  -2    6.95    0.55
 -15   1   2    7.74    0.48
  15   1  -2    6.97    0.55
  15   1  -2    6.70    0.52
 -15   1   2    6.32    0.59
  15   1  -2    6.14    0.42
  15   1  -2    6.75    0.51
  15   1  -2    6.08    0.49
 -15   1   2    6.24    0.50
 -15   1   2    7.24    0.59
 -13  -1   2   11.87    0.65
 -13  -1   2   12.78    0.68
  13  -1  -2   12.01    0.68
 -13  -1   2   11.70    0.59
  13  -1  -2   12.14    0.64
 -13  -1   2   11.43    0.71
 -13  -1   2   13.85    0.65
  13  -1  -2   11.75    0.74
  13  -1  -2   11.93    0.58
  13  -1  -2   12.31    0.70
  13   1  -2   11.90    0.66
  13   1  -2   12.10    0.55
  13   1  -2   10.57    0.62
 -13   1   2   12.45    0.58
  13   1  -2   11.27    0.66
 -13   1   2   11.58    0.66
 -13   1   2   11.92    0.59
 -13   1   2   12.86    0.69
 -13   1   2   11.95    0.75
 -13   1   2   12.37    0.72
  13   1  -2   11.39    0.65
  13   1  -2   12.10    0.65
 -13   1   2   11.61    0.64
  13   1  -2   12.22    0.63
 -11  -1   2   23.95    0.91
  11  -1  -2   21.16    0.91
 -11  -1   2   23.10    0.84
 -11  -1   2   26.68    0.93
 -11  -1   2   21.62    0.81
  11  -1  -2   22.42    0.94
  11  -1  -2   22.61    0.91
  11  -1  -2   21.81    1.01
 -11  -1   2   22.19    0.90
  11  -1  -2   21.95    0.78
 -11  -1   2   21.39    0.85
  11  -1  -2   22.53    0.88
 -11  -1   2   21.66    0.97
  11   1  -2   22.88    0.93
 -11   1   2   21.78    0.86
  11   1  -2   22.08    0.84
 -11   1   2   23.19    0.96
  11   1  -2   23.66    0.78
 -11   1   2   21.53    0.99
 -11   1   2   22.87    0.78
 -11   1   2   21.51    0.90
 -11   1   2   23.06    0.81
  11   1  -2   21.61    0.88
  11   1  -2   21.16    0.88
  11   1  -2   23.47    0.88
 -11   1   2   23.50    0.93
  11   1  -2   22.19    0.86
 -11   1   2   22.30    0.91
   9  -1  -2   63.34    1.74
  -9  -1   2   64.88    1.71
  -9  -1   2   65.89    1.79
   9  -1  -2   67.69    1.66
  -9  -1   2   67.22    1.81
   9  -1  -2   66.52    1.85
   9  -1  -2   68.96    1.91
  -9  -1   2   65.75    1.82
  -9  -1   2   70.01    1.84
   9  -1  -2   65.78    2.06
  -9  -1   2   65.54    2.01
  -9  -1   2   69.93    1.72
   9  -1  -2   65.87    1.86
   9   1  -2   66.57    1.97
   9   1  -2   65.79    1.80
  -9   1   2   68.25    1.85
   9   1  -2   65.27    1.64
   9   1  -2   67.81    1.82
  -9   1   2   64.03    1.82
  -9   1   2   66.84    1.88
   9   1  -2   65.15    1.77
  -9   1   2   67.43    1.73
  -9   1   2   67.99    1.85
  -9   1   2   66.54    1.65
  -9   1   2   66.05    1.76
  -7  -1   2  196.27    5.10
  -7  -1   2  190.68    4.56
   7  -1  -2  199.11    4.80
   7  -1  -2  199.43    4.62
  -7  -1   2  208.11    4.60
  -7  -1   2  201.13    4.57
  -7  -1   2  199.87    4.60
   7  -1  -2  199.42    4.37
  -7  -1   2  200.26    4.39
  -7  -1   2  199.21    4.46
   7  -1  -2  205.28    4.64
   7  -1  -2  201.69    4.65
   7  -1  -2  215.40    5.19
  -7   1   2  193.86    4.61
   7   1  -2  204.91    4.34
  -7   1   2  201.62    4.56
  -7   1   2  199.07    4.36
   7   1  -2  209.33    5.09
   7   1  -2  197.07    4.55
  -7   1   2  200.09    4.65
   7   1  -2  201.33    4.59
  -7   1   2  207.79    4.43
  -7   1   2  195.49    4.60
   7   1  -2  198.89    4.58
   5  -1  -2  288.96    6.52
   5  -1  -2  297.13    7.28
  -5  -1   2  304.77    7.27
  -5  -1   2  291.27    6.35
  -5  -1   2  299.07    6.24
  -5  -1   2  287.91    6.49
   5  -1  -2  291.49    6.52
  -5  -1   2  292.85    6.51
   5  -1  -2  293.21    6.39
   5  -1  -2  302.73    6.55
  -5  -1   2  301.86    6.51
  -5   1   2  289.31    7.25
   5   1  -2  303.56    6.52
  -5   1   2  296.58    6.52
  -5   1   2  291.45    6.51
   5   1  -2  293.56    6.19
  -5   1   2  296.18    6.24
  -5   1   2  290.95    6.42
   5   1  -2  289.33    6.47
  -5   1   2  300.41    6.54
   5   1  -2  291.75    6.50
  -5   1   2  295.35    6.24
   5   1  -2  296.48    7.22
   3  -1  -2  616.24   14.53
  -3  -1   2  618.66   14.55
   3  -1  -2  606.84   13.04
  -3  -1   2  617.44   13.05
   3  -1  -2  618.26   12.79
  -3  -1   2  596.24   12.79
   3  -1  -2  609.60   13.04
  -3  -1   2  598.01   13.04
  -3  -1   2  627.32   12.53
   3  -1  -2  604.83   13.03
  -3  -1   2  597.05   13.03
  -3  -1   2  617.74   13.04
   3  -1  -2  629.06   13.03
   3   1  -2  612.50   13.05
  -3   1   2  593.36   13.02
  -3   1   2  597.80   13.02
   3   1  -2  617.34   13.04
   3   1  -2  598.12   13.02
   3   1  -2  591.53   12.50
   3   1  -2  638.60   12.50
   3   1  -2  620.09   14.53
  -3   1   2  593.17   14.50
  -3   1   2  588.13   12.48
  -3   1   2  594.50   12.81
  -3   1   2  613.06   13.02
   1  -1  -2  195.66    4.28
   1  -1  -2  206.25    4.78
  -1  -1   2  197.25    4.35
   1  -1  -2  189.04    4.27
  -1  -1   2  197.16    4.85
  -1  -1   2  192.04    4.35
  -1  -1   2  194.14    4.32
   1  -1  -2  194.57    4.27
  -1  -1   2  193.96    4.15
   1  -1  -2  188.53    4.28
   1  -1  -2  191.92    4.16
  -1  -1   2  188.86    4.24
  -1   1   2  194.41    4.26
   1   1  -2  197.51    4.34
   1   1  -2  197.52    4.14
   1   1  -2  191.47    4.32
  -1   1   2  196.71    4.43
   1   1  -2  197.34    4.84
  -1   1   2  195.28    4.27
   1   1  -2  193.87    4.13
  -1   1   2  198.01    4.20
  -1   1   2  196.81    4.28
  -1   1   2  196.26    4.02
   1   1  -2  194.45    4.35
  -1   1   2  196.05    4.73
  -1   1   2  192.13    4.51
  -1  -1  -2   21.94    0.67
   1  -1   2   20.47    0.75
   1  -1   2   20.78    0.66
  -1  -1  -2   22.34    0.63
   1  -1   2   21.52    0.69
  -1  -1  -2   21.56    0.49
  -1  -1  -2   20.52    0.57
  -1  -1  -2   21.14    0.50
  -1  -1  -2   20.60    0.58
   1  -1   2   21.34    0.63
   1  -1   2   19.53    0.63
   1  -1   2   21.41    0.62
   1  -1   2   20.31    0.67
  -1  -1  -2   19.89    0.57
  -1  -1  -2   20.10    0.57
  -1  -1  -2   21.11    0.62
  -1   1  -2   18.80    0.65
  -1   1  -2   20.36    0.64
  -1   1  -2   19.20    0.64
   1   1   2   20.85    0.57
  -1   1  -2   18.93    0.67
  -1   1  -2   20.15    0.61
  -1   1  -2   20.53    0.74
   1   1   2   20.03    0.66
   1   1   2   20.11    0.55
   1   1   2   19.70    0.62
   1   1   2   19.63    0.56
  -3  -1  -2   46.14    1.14
  -3  -1  -2   48.33    1.33
   3  -1   2   47.97    1.28
   3  -1   2   46.13    1.29
  -3  -1  -2   48.80    1.02
  -3  -1  -2   47.15    1.26
   3  -1   2   46.49    1.31
  -3  -1  -2   48.35    1.27
  -3  -1  -2   47.23    1.15
   3  -1   2   46.60    1.44
  -3  -1  -2   48.06    1.17
   3   1   2   47.33    1.11
   3   1   2   47.10    1.12
  -3   1  -2   47.03    1.27
   3   1   2   50.78    1.19
   3   1   2   47.71    1.22
  -3   1  -2   47.65    1.30
  -3   1  -2   47.64    1.25
   3   1   2   49.79    1.19
  -3   1  -2   45.94    1.26
   3   1   2   49.88    1.34
  -3   1  -2   49.82    1.36
  -3   1  -2   49.60    1.32
   3   1   2   44.56    1.35
  -5  -1  -2  169.72    3.71
   5  -1   2  170.58    3.87
   5  -1   2  164.96    3.79
  -5  -1  -2  171.75    3.55
  -5  -1  -2  173.65    4.14
  -5  -1  -2  167.64    4.03
  -5  -1  -2  168.06    3.73
  -5  -1  -2  167.99    4.11
   5  -1   2  174.61    4.00
   5  -1   2  169.10    4.30
   5  -1   2  171.68    3.90
   5  -1   2  166.13    3.69
  -5  -1  -2  166.11    3.70
  -5   1  -2  168.71    4.00
   5   1   2  167.39    4.04
   5   1   2  161.15    4.10
   5   1   2  164.62    4.03
  -5   1  -2  166.56    3.90
  -5   1  -2  167.20    4.34
  -5   1  -2  156.80    3.92
  -5   1  -2  161.49    3.80
   5   1   2  170.40    4.04
   5   1   2  167.67    3.63
   5   1   2  164.09    3.63
   5   1   2  166.21    3.78
  -5   1  -2  164.38    3.97
   5   1   2  166.00    3.70
  -5   1  -2  164.65    3.84
  -5   1  -2  160.98    3.68
  -7  -1  -2   58.62    1.81
   7  -1   2   65.64    1.96
  -7  -1  -2   65.75    1.81
   7  -1   2   65.76    1.74
   7  -1   2   69.34    1.82
   7  -1   2   64.43    1.75
  -7  -1  -2   63.94    1.65
  -7  -1  -2   64.86    1.51
  -7  -1  -2   64.43    1.83
   7  -1   2   66.82    1.81
   7  -1   2   66.10    1.68
   7  -1   2   65.96    1.78
  -7  -1  -2   65.12    1.51
  -7  -1  -2   64.97    1.62
   7  -1   2   60.55    1.97
  -7  -1  -2   66.41    1.63
   7   1   2   65.54    1.73
   7   1   2   63.12    1.59
   7   1   2   66.11    1.86
   7   1   2   66.71    1.74
   7   1   2   63.95    1.59
  -7   1  -2   63.43    1.76
   7   1   2   66.15    1.61
   7   1   2   61.17    1.78
   7   1   2   66.66    1.72
  -7   1  -2   65.23    1.74
  -7   1  -2   66.67    1.81
  -7   1  -2   64.14    1.68
  -7   1  -2   65.87    1.75
   7   1   2   66.48    1.64
  -9  -1  -2  131.72    2.94
   9  -1   2  129.67    3.62
   9  -1   2  130.14    3.58
  -9  -1  -2  135.93    3.49
   9  -1   2  131.63    3.28
  -9  -1  -2  129.06    3.43
   9  -1   2  132.73    3.19
   9  -1   2  130.91    3.29
  -9  -1  -2  127.02    3.11
   9  -1   2  132.12    3.27
  -9  -1  -2  131.89    2.97
  -9  -1  -2  129.96    3.07
  -9   1  -2  132.41    3.22
   9   1   2  128.30    3.17
  -9   1  -2  130.66    3.18
   9   1   2  133.46    3.34
  -9   1  -2  130.03    3.27
  -9   1  -2  127.06    3.27
   9   1   2  132.86    3.36
   9   1   2  126.11    3.31
   9   1   2  130.94    3.04
   9   1   2  129.00    3.04
   9   1   2  132.01    3.06
  -9   1  -2  129.14    3.08
   9   1   2  127.98    3.37
   9   1   2  128.60    3.09
  -9   1  -2  127.89    3.57
 -11  -1  -2  128.98    3.53
  11  -1   2  132.40    3.34
  11  -1   2  131.59    3.35
 -11  -1  -2  130.80    3.20
  11  -1   2  128.34    3.65
  11  -1   2  129.03    3.33
  11  -1   2  131.32    3.30
 -11  -1  -2  127.16    3.14
 -11  -1  -2  130.96    3.01
  11   1   2  129.03    3.43
  11   1   2  135.02    3.42
 -11   1  -2  132.16    3.67
 -11   1  -2  131.11    3.29
 -11   1  -2  129.61    3.25
  11   1   2  125.91    3.11
  11   1   2  125.16    3.34
  11   1   2  132.30    3.28
  11   1   2  131.37    3.13
  11   1   2  130.72    3.17
 -11   1  -2  133.30    3.36
 -11   1  -2  130.53    3.14
 -11   1  -2  130.34    3.34
  11   1   2  130.81    3.13
  13  -1   2   42.45    1.57
  13  -1   2   40.10    1.40
  13  -1   2   41.15    1.40
 -13  -1  -2   41.08    1.36
 -13  -1  -2   40.33    1.31
 -13  -1  -2   41.74    1.48
  13  -1   2   41.97    1.42
  13  -1   2   41.79    1.38
 -13  -1  -2   39.26    1.19
  13  -1   2   42.54    1.48
  13  -1   2   41.77    1.33
  13   1   2   41.28    1.04
  13   1   2   40.83    1.13
 -13   1  -2   40.21    1.34
 -13   1  -2   39.29    1.55
  13   1   2   39.83    1.33
 -13   1  -2   42.74    1.49
  13   1   2   41.77    1.39
 -13   1  -2   42.72    1.42
 -13   1  -2   42.65    1.40
  13   1   2   40.72    1.40
  13   1   2   42.54    1.52
 -13   1  -2   41.99    1.40
  13   1   2   42.60    1.38
  13   1   2   43.15    1.32
  13   1   2   40.12    1.27
  13   1   2   43.06    1.34
 -15  -1  -2   16.05    0.86
  15  -1   2   18.54    0.98
  15  -1   2   16.19    0.81
 -15  -1  -2   16.50    0.82
 -15  -1  -2   17.56    0.70
  15  -1   2   17.12    0.86
  15  -1   2   18.06    0.82
 -15  -1  -2   16.34    0.78
  15  -1   2   17.42    0.84
  15  -1   2   15.72    0.83
 -15   1  -2   16.67    0.84
 -15   1  -2   15.26    0.82
  15   1   2   16.97    0.75
 -15   1  -2   16.28    0.94
  15   1   2   16.15    0.79
  15   1   2   16.60    0.92
 -15   1  -2   16.41    0.82
  15   1   2   16.79    0.77
 -15   1  -2   17.17    0.82
  15   1   2   15.70    0.83
  15   1   2   15.94    0.77
  15   1   2   15.96    0.75
  15   1   2   16.35    0.61
  15   1   2   16.75    0.56
  15   1   2   16.91    0.81
 -15   1  -2   15.90    0.88
 -17  -1  -2    9.99    0.66
 -17  -1  -2   11.12    0.71
  17  -1   2    9.99    0.69
  17  -1   2   10.07    0.77
  17  -1   2    9.84    0.67
  17  -1   2    9.19    0.64
 -17  -1  -2   10.39    0.73
  17  -1   2    9.96    0.64
  17  -1   2    9.65    0.68
  17  -1   2   10.58    0.80
 -17   1  -2   11.36    0.73
  17   1   2   10.97    0.46
  17   1   2   10.45    0.62
 -17   1  -2   10.94    0.80
  17   1   2   11.05    0.78
 -17   1  -2   11.57    0.74
  17   1   2   10.57    0.71
 -17   1  -2    9.82    0.67
  17   1   2   10.79    0.68
  17   1   2   10.23    0.63
 -17   1  -2   11.97    0.79
 -17   1  -2   11.46    0.70
  17   1   2   10.47    0.51
  17   1   2   12.09    0.66
  17   1   2   11.08    0.69
  19  -1   2    4.81    0.60
  19  -1   2    3.59    0.50
  19  -1   2    4.51    0.64
  19  -1   2    4.50    0.54
 -19  -1  -2    3.36    0.49
 -19  -1  -2    4.43    0.52
 -19  -1  -2    4.02    0.56
  19  -1   2    3.74    0.50
  19   1   2    3.99    0.54
 -19   1  -2    4.24    0.60
  19   1   2    5.12    0.53
 -19   1  -2    4.29    0.57
  19   1   2    4.94    0.62
 -19   1  -2    4.14    0.50
  19   1   2    5.26    0.57
  19   1   2    4.48    0.31
 -19   1  -2    3.82    0.56
  19   1   2    5.49    0.55
  19   1   2    4.50    0.48
  21  -1   2   21.39    1.12
 -21  -1  -2   19.60    1.09
 -21  -1  -2   20.88    1.08
  21  -1   2   19.57    1.05
  21  -1   2   19.45    1.07
 -21  -1  -2   22.07    1.23
  21  -1   2   21.87    1.15
 -21   1  -2   23.90    1.20
  21   1   2   20.03    1.11
  21   1   2   20.86    1.20
 -21   1  -2   21.98    1.21
  21   1   2   21.35    0.74
  21   1   2   22.31    1.04
  23  -1   2   11.92    0.85
  23  -1   2   12.39    0.88
  23  -1   2   13.14    0.92
 -23  -1  -2   13.35    0.97
  23  -1   2   12.07    0.89
 -23  -1  -2   12.00    0.90
 -23  -1  -2   13.25    0.89
  23   1   2   10.07    0.90
  23   1   2   11.88    0.89
 -23   1  -2   10.44    0.84
  23   1   2   11.54    0.52
 -23   1  -2   11.88    0.93
  23   1   2   12.31    0.81
  25  -1   2    2.96    0.57
  25  -1   2    5.00    0.70
  25  -1   2    3.58    0.61
 -25  -1  -2    3.96    0.61
  25  -1   2    3.39    0.59
  25   1   2    3.86    0.30
  25   1   2    2.76    0.59
  25   1   2    4.77    0.60
 -25   1  -2    5.40    0.77
 -25   1  -2    4.92    0.68
  25   1   2    4.87    0.69
  27  -1   2   11.19    0.93
  27  -1   2   11.42    0.95
 -27  -1  -2   12.09    0.95
 -27   1  -2   11.08    0.94
  27   1   2   11.22    0.99
 -27   1  -2   10.03    1.06
 -29  -1  -2    8.80    0.96
  29   1   2    8.96    1.08
 -29   1  -2    9.22    0.99
 -30  -2   2    1.72    0.52
  30  -2  -2    1.65    0.59
 -30   2   2    1.88    0.57
  28  -2  -2    3.90    0.73
 -28  -2   2    3.84    0.65
 -28   2   2    2.73    0.63
 -26  -2   2   10.14    0.88
  26  -2  -2   11.82    0.97
  26   2  -2   10.01    0.80
 -26   2   2   11.42    1.14
 -26   2   2   11.05    0.95
  26   2  -2   10.30    0.94
  24  -2  -2    0.43    0.26
  24  -2  -2    0.36    0.35
 -24  -2   2    0.33    0.30
 -24  -2   2    0.16    0.29
  24  -2  -2    0.55    0.36
  24   2  -2    0.22    0.25
  24   2  -2    0.72    0.35
 -24   2   2    0.85    0.42
 -24   2   2    0.66    0.40
  22  -2  -2    4.96    0.55
  22  -2  -2    6.26    0.75
  22  -2  -2    5.87    0.73
 -22  -2   2    5.23    0.64
 -22  -2   2    5.14    0.69
 -22  -2   2    4.82    0.64
 -22   2   2    6.23    0.74
  22   2  -2    4.91    0.66
 -22   2   2    4.93    0.71
  22   2  -2    5.73    0.63
  20  -2  -2    4.56    0.50
  20  -2  -2    5.88    0.68
 -20  -2   2    4.74    0.62
 -20  -2   2    4.99    0.59
 -20  -2   2    4.62    0.58
  20  -2  -2    5.07    0.65
 -20   2   2    4.33    0.61
  20   2  -2    5.15    0.64
  20   2  -2    4.69    0.28
 -20   2   2    6.36    0.73
 -20   2   2    4.25    0.55
  20   2  -2    5.10    0.56
 -20   2   2    4.73    0.65
 -18  -2   2   33.96    1.53
  18  -2  -2   36.90    1.26
 -18  -2   2   36.69    1.44
  18  -2  -2   34.56    1.48
  18  -2  -2   37.21    1.51
 -18  -2   2   35.87    1.39
  18   2  -2   34.85    1.47
  18   2  -2   35.73    0.96
 -18   2   2   36.20    1.48
  18   2  -2   35.68    1.29
 -18   2   2   35.40    1.53
 -18   2   2   35.27    1.47
 -18   2   2   36.09    1.40
  18   2  -2   38.06    1.37
  16  -2  -2   37.91    1.61
 -16  -2   2   32.54    1.44
  16  -2  -2   37.76    1.45
  16  -2  -2   33.90    1.40
 -16  -2   2   36.31    1.32
  16  -2  -2   35.73    1.18
 -16  -2   2   34.01    1.34
 -16   2   2   35.42    1.42
  16   2  -2   35.57    1.30
  16   2  -2   36.50    0.93
 -16   2   2   35.78    1.41
  16   2  -2   35.24    0.93
  16   2  -2   35.06    1.28
 -16   2   2   35.85    1.32
  16   2  -2   33.80    1.22
 -16   2   2   37.13    1.16
 -16   2   2   36.13    1.48
 -14  -2   2   38.51    1.52
  14  -2  -2   38.31    1.44
  14  -2  -2   43.68    1.25
 -14  -2   2   40.14    1.37
  14  -2  -2   39.67    1.48
 -14  -2   2   40.70    1.40
  14  -2  -2   44.20    1.69
  14   2  -2   43.18    1.01
  14   2  -2   41.04    1.31
 -14   2   2   40.67    1.38
 -14   2   2   41.68    1.21
  14   2  -2   40.73    1.35
  14   2  -2   40.28    1.01
 -14   2   2   39.34    1.45
  14   2  -2   41.44    1.37
 -14   2   2   39.55    1.51
 -14   2   2   40.28    1.46
 -12  -2   2   43.50    1.38
 -12  -2   2   39.53    1.31
  12  -2  -2   39.42    1.57
  12  -2  -2   41.35    1.44
 -12  -2   2   43.50    1.52
  12  -2  -2   42.10    1.18
  12  -2  -2   41.67    1.43
  12   2  -2   40.69    1.26
 -12   2   2   42.07    1.15
 -12   2   2   40.63    1.47
  12   2  -2   40.22    1.31
  12   2  -2   42.38    0.99
  12   2  -2   43.13    1.38
 -12   2   2   40.65    1.41
 -12   2   2   39.87    1.32
 -12   2   2   42.65    1.58
  12   2  -2   43.15    0.99
 -12   2   2   43.40    1.44
  12   2  -2   41.90    1.32
 -12   2   2   41.49    1.41
  12   2  -2   42.39    1.34
  10  -2  -2   48.33    1.72
  10  -2  -2   50.19    1.56
 -10  -2   2   49.60    1.63
 -10  -2   2   50.92    1.47
  10  -2  -2   50.70    1.28
 -10  -2   2   48.75    1.47
 -10  -2   2   51.01    1.46
  10  -2  -2   47.73    1.56
 -10  -2   2   50.62    1.32
 -10   2   2   48.10    1.43
 -10   2   2   49.95    1.55
 -10   2   2   48.74    1.69
  10   2  -2   49.13    1.45
 -10   2   2   48.82    1.25
 -10   2   2   52.38    1.55
  10   2  -2   50.96    1.11
  10   2  -2   51.10    1.46
 -10   2   2   50.09    1.59
  10   2  -2   49.23    1.44
 -10   2   2   50.63    1.55
  10   2  -2   47.46    1.39
  10   2  -2   52.99    1.53
   8  -2  -2  115.74    2.54
  -8  -2   2  117.29    2.80
   8  -2  -2  115.04    2.92
   8  -2  -2  113.80    2.89
  -8  -2   2  112.66    2.81
  -8  -2   2  118.58    2.64
  -8  -2   2  113.46    2.80
   8  -2  -2  113.49    2.90
  -8  -2   2  117.73    3.14
   8  -2  -2  114.92    3.24
  -8  -2   2  113.96    2.90
  -8   2   2  119.78    2.89
  -8   2   2  111.38    3.16
   8   2  -2  113.53    2.78
   8   2  -2  114.58    2.74
  -8   2   2  111.95    2.60
   8   2  -2  110.49    2.73
   8   2  -2  120.71    3.02
  -8   2   2  119.36    2.88
   8   2  -2  113.14    2.78
  -8   2   2  115.77    2.92
  -8   2   2  114.42    2.87
  -8   2   2  115.98    2.71
   6  -2  -2   87.56    2.54
  -6  -2   2   91.19    2.23
  -6  -2   2   91.22    2.07
  -6  -2   2   87.29    2.19
  -6  -2   2   89.01    2.31
   6  -2  -2   88.08    2.28
   6  -2  -2   89.56    2.30
  -6  -2   2   91.24    2.23
  -6  -2   2   89.93    2.47
   6  -2  -2   92.96    2.46
   6  -2  -2   88.60    2.27
  -6  -2   2   88.03    2.19
   6   2  -2   93.81    2.38
   6   2  -2   88.41    2.15
  -6   2   2   87.03    2.24
   6   2  -2   90.20    2.20
  -6   2   2   89.37    2.29
  -6   2   2   90.67    2.26
   6   2  -2   90.70    2.20
  -6   2   2   90.85    2.48
  -6   2   2   89.17    2.48
   6   2  -2   91.91    2.17
  -6   2   2   85.88    2.24
  -6   2   2   89.37    2.08
   4  -2  -2   47.88    1.43
  -4  -2   2   46.49    1.26
  -4  -2   2   48.05    1.17
  -4  -2   2   48.88    1.30
  -4  -2   2   49.84    1.44
   4  -2  -2   46.21    1.29
  -4  -2   2   46.35    1.29
   4  -2  -2   47.88    1.31
   4  -2  -2   47.90    1.29
   4  -2  -2   48.52    1.28
   4  -2  -2   46.14    1.43
  -4  -2   2   39.98    1.23
  -4   2   2   45.37    1.09
  -4   2   2   46.00    1.29
   4   2  -2   47.17    1.27
  -4   2   2   48.90    1.46
   4   2  -2   47.75    1.26
   4   2  -2   49.69    1.37
  -4   2   2   47.07    1.36
  -4   2   2   45.91    1.26
   4   2  -2   46.89    1.23
  -4   2   2   44.96    1.26
  -4   2   2   47.43    1.28
   4   2  -2   48.45    1.25
  -4   2   2   46.15    1.11
  -2  -2   2  177.93    4.09
  -2  -2   2  154.91    4.03
   2  -2  -2  185.41    4.41
   2  -2  -2  183.89    4.49
   2  -2  -2  178.76    4.02
   2  -2  -2  186.42    4.31
   2  -2  -2  179.74    4.05
   2  -2  -2  176.26    4.02
  -2  -2   2  185.19    4.12
  -2  -2   2  178.97    4.08
   2  -2  -2  181.09    4.11
   2  -2  -2  179.23    4.03
  -2  -2   2  179.95    4.57
   2   2  -2  185.68    3.77
  -2   2   2  176.45    4.01
   2   2  -2  190.18    4.51
  -2   2   2  184.48    4.42
  -2   2   2  183.22    4.00
   2   2  -2  179.21    4.07
   2   2  -2  181.42    4.01
  -2   2   2  181.73    3.96
   2   2  -2  177.94    4.09
  -2   2   2  182.49    4.12
   2   2  -2  179.80    4.05
   2   2  -2  181.13    3.78
  -2   2   2  182.75    4.38
   0  -2   2   39.87    1.14
   0  -2  -2   39.15    0.99
   0  -2   2   38.57    1.25
   0  -2  -2   40.03    1.10
   0  -2  -2   40.77    0.98
   0  -2  -2   40.59    1.22
   0  -2   2   38.45    1.11
   0  -2  -2   38.55    0.97
   0  -2  -2   40.05    0.97
   0  -2  -2   39.58    0.98
   0  -2  -2   41.52    1.07
   0  -2   2   38.09    1.26
   0  -2  -2   40.81    1.15
   0   2  -2   37.30    1.12
   0   2   2   40.71    0.94
   0   2  -2   39.05    0.97
   0   2  -2   40.17    0.97
   0   2   2   39.23    0.97
   0   2   2   38.20    0.94
   0   2   2   37.89    1.31
   0   2   2   38.01    1.21
   0   2  -2   37.31    1.10
   0   2   2   38.22    0.92
   0   2  -2   38.78    1.22
   0   2  -2   38.07    1.27
   0   2  -2   37.23    1.07
   0   2  -2   38.98    1.21
   0   2   2   37.57    1.08
   2  -2   2   40.88    1.36
   2  -2   2   42.82    1.25
  -2  -2  -2   42.46    0.98
   2  -2   2   39.96    1.19
  -2  -2  -2   40.78    1.27
  -2  -2  -2   42.53    1.15
  -2  -2  -2   41.59    0.99
   2  -2   2   41.51    1.12
  -2  -2  -2   43.06    0.99
   2  -2   2   42.25    1.34
  -2  -2  -2   42.44    1.10
  -2  -2  -2   41.45    0.98
  -2  -2  -2   43.10    1.23
  -2   2  -2   41.28    1.20
  -2   2  -2   42.06    1.08
  -2   2  -2   41.73    1.07
  -2   2  -2   41.85    1.32
   2   2   2   42.59    1.39
  -2   2  -2   44.48    1.34
   2   2   2   44.94    1.12
  -2   2  -2   42.40    1.19
  -2   2  -2   38.59    1.29
  -2   2  -2   42.22    1.23
   2   2   2   43.14    1.24
   4  -2   2   21.89    0.86
  -4  -2  -2   22.89    0.83
   4  -2   2   23.44    0.93
  -4  -2  -2   21.72    0.56
  -4  -2  -2   22.32    0.74
  -4  -2  -2   22.65    0.57
   4  -2   2   19.89    0.77
   4  -2   2   21.05    0.81
   4  -2   2   21.36    0.85
  -4  -2  -2   22.11    0.55
  -4  -2  -2   21.67    0.82
  -4  -2  -2   22.78    0.64
   4   2   2   20.34    0.81
   4   2   2   21.58    0.74
  -4   2  -2   21.56    0.70
  -4   2  -2   21.60    0.78
  -4   2  -2   21.11    0.81
   4   2   2   22.15    0.91
  -4   2  -2   22.06    0.87
  -4   2  -2   21.42    0.78
  -4   2  -2   21.16    0.80
  -4   2  -2   21.01    0.71
  -6  -2  -2   27.08    0.78
  -6  -2  -2   27.29    0.75
   6  -2   2   27.54    1.04
  -6  -2  -2   28.19    0.74
   6  -2   2   26.30    0.96
   6  -2   2   26.81    1.11
  -6  -2  -2   28.69    0.94
   6  -2   2   26.36    1.06
   6  -2   2   27.58    1.00
  -6  -2  -2   27.02    0.68
  -6  -2  -2   28.29    0.78
   6  -2   2   28.59    1.04
  -6  -2  -2   26.27    0.72
  -6   2  -2   27.43    1.05
  -6   2  -2   27.07    0.90
   6   2   2   29.64    1.06
   6   2   2   29.42    0.68
  -6   2  -2   29.78    1.06
  -6   2  -2   29.67    0.97
   6   2   2   28.05    0.93
  -6   2  -2   27.67    0.90
  -6   2  -2   27.81    0.87
   6   2   2   26.70    1.05
   6   2   2   27.72    0.67
  -6   2  -2   27.24    0.98
   8  -2   2  163.49    3.91
   8  -2   2  158.78    3.91
  -8  -2  -2  163.63    3.66
   8  -2   2  162.54    4.38
  -8  -2  -2  163.00    4.03
   8  -2   2  168.58    4.00
  -8  -2  -2  162.10    3.63
  -8  -2  -2  163.04    3.64
  -8  -2  -2  166.15    3.85
  -8  -2  -2  160.69    4.05
  -8   2  -2  164.50    3.99
   8   2   2  165.00    3.55
   8   2   2  157.79    4.21
  -8   2  -2  158.51    4.09
   8   2   2  162.06    3.52
  -8   2  -2  159.39    3.72
  -8   2  -2  147.97    3.92
  -8   2  -2  158.39    3.88
   8   2   2  158.76    4.11
  -8   2  -2  160.22    3.90
   8   2   2  162.91    3.54
  -8   2  -2  171.86    4.13
   8   2   2  160.74    3.84
  10  -2   2   24.41    1.08
  10  -2   2   23.97    0.88
 -10  -2  -2   23.00    0.87
  10  -2   2   23.87    1.12
 -10  -2  -2   25.18    0.81
 -10  -2  -2   24.61    0.78
  10  -2   2   24.82    0.98
 -10  -2  -2   24.46    0.86
 -10  -2  -2   24.12    0.77
 -10   2  -2   21.54    0.92
  10   2   2   22.64    1.02
 -10   2  -2   22.67    0.95
 -10   2  -2   21.48    0.88
  10   2   2   23.77    0.71
 -10   2  -2   22.76    1.00
  10   2   2   21.34    0.98
  10   2   2   22.77    0.75
 -10   2  -2   23.78    1.00
  10   2   2   21.98    0.92
  12  -2   2  129.08    3.81
 -12  -2  -2  132.20    3.14
 -12  -2  -2  115.50    3.06
 -12  -2  -2  129.99    3.09
 -12  -2  -2  126.57    3.45
  12  -2   2  131.85    3.28
  12  -2   2  129.85    3.21
  12  -2   2  132.56    3.75
  12  -2   2  128.08    3.36
 -12   2  -2  130.97    3.47
  12   2   2  128.12    3.04
 -12   2  -2  133.31    3.34
 -12   2  -2  127.91    3.33
  12   2   2  125.73    3.50
  12   2   2  121.61    3.28
  12   2   2  125.69    3.00
  12   2   2  129.69    3.05
 -12   2  -2  129.15    3.19
  12   2   2  123.34    3.52
 -12   2  -2  128.36    3.42
 -14  -2  -2   71.33    1.95
  14  -2   2   69.29    2.43
 -14  -2  -2   63.34    2.09
  14  -2   2   68.47    1.99
 -14  -2  -2   68.99    1.90
  14  -2   2   65.23    1.72
  14  -2   2   69.22    2.36
  14  -2   2   66.56    2.00
  14  -2   2   66.94    1.97
  14  -2   2   68.83    2.13
  14  -2   2   64.39    2.08
  14   2   2   68.84    2.15
 -14   2  -2   70.68    2.02
  14   2   2   69.75    1.86
  14   2   2   66.85    1.86
 -14   2  -2   68.73    2.35
 -14   2  -2   66.21    2.15
 -14   2  -2   69.35    2.11
  14   2   2   66.66    2.24
  14   2   2   68.49    1.81
  14   2   2   65.52    2.07
 -14   2  -2   66.90    2.17
  14   2   2   69.52    1.80
 -14   2  -2   68.62    2.10
  16  -2   2   63.59    1.95
 -16  -2  -2   65.54    1.89
  16  -2   2   62.04    2.08
  16  -2   2   65.03    2.10
  16  -2   2   61.80    2.36
  16  -2   2   65.91    2.35
  16  -2   2   64.59    1.97
 -16  -2  -2   65.51    1.94
 -16  -2  -2   60.60    2.09
 -16   2  -2   63.50    2.05
  16   2   2   62.31    2.22
  16   2   2   64.78    2.08
  16   2   2   62.69    2.06
 -16   2  -2   66.62    2.14
 -16   2  -2   64.63    1.99
 -16   2  -2   63.28    2.07
  16   2   2   60.64    1.75
  16   2   2   65.22    1.84
 -16   2  -2   63.76    2.31
  16   2   2   63.67    1.86
 -16   2  -2   60.27    2.13
  16   2   2   64.29    1.80
 -18  -2  -2   15.84    0.93
  18  -2   2   17.79    0.99
  18  -2   2   16.50    0.97
  18  -2   2   18.40    1.12
  18  -2   2   17.76    0.89
 -18  -2  -2   16.97    0.85
 -18  -2  -2   16.83    0.88
  18  -2   2   15.76    0.86
 -18   2  -2   17.51    0.93
  18   2   2   16.44    0.92
  18   2   2   16.05    0.94
 -18   2  -2   17.19    0.96
  18   2   2   16.44    1.04
 -18   2  -2   19.15    1.07
 -18   2  -2   18.76    1.01
 -18   2  -2   17.49    0.97
  18   2   2   17.52    0.79
 -20  -2  -2    7.62    0.69
  20  -2   2    8.08    0.64
  20  -2   2    7.83    0.65
  20  -2   2    9.43    0.76
 -20  -2  -2    8.60    0.65
  20  -2   2    8.33    0.71
  20   2   2    8.13    0.57
 -20   2  -2    8.06    0.80
 -20   2  -2    8.08    0.83
 -20   2  -2    8.18    0.70
  20   2   2    7.98    0.86
  20   2   2    7.66    0.78
  20   2   2    8.54    0.69
  22  -2   2   19.65    1.14
  22  -2   2   19.30    1.15
 -22  -2  -2   18.94    1.13
  22  -2   2   19.76    1.04
 -22  -2  -2   18.55    1.00
  22  -2   2   20.13    1.07
  22   2   2   18.34    0.91
 -22   2  -2   19.14    1.09
 -22   2  -2   17.94    1.11
 -22   2  -2   19.20    1.19
  22   2   2   17.69    1.18
  22   2   2   17.54    1.02
  22   2   2   17.86    1.10
  24  -2   2    9.41    0.76
  24  -2   2   11.18    0.82
  24  -2   2   10.89    0.93
 -24  -2  -2   11.13    0.82
  24  -2   2   10.59    1.03
 -24  -2  -2    8.83    0.85
  24   2   2   10.75    0.74
  24   2   2   12.47    1.03
 -24   2  -2   11.71    0.95
  24   2   2   10.91    0.89
 -24   2  -2   12.99    1.02
  26  -2   2    5.67    0.71
 -26  -2  -2    5.73    0.71
  26  -2   2    5.53    0.81
  26   2   2    6.51    0.89
 -26   2  -2    6.75    0.84
  26   2   2    5.48    0.64
 -26   2  -2    6.88    0.89
  28  -2   2    6.88    0.84
 -28  -2  -2    5.77    0.75
  28  -2   2    7.50    0.94
 -28   2  -2    5.38    0.82
  28   2   2    5.67    0.87
 -30  -2  -2    2.47    0.58
 -30   2  -2    2.88    0.64
  29  -3  -2    7.43    1.01
 -29  -3   2    7.72    0.91
 -29   3   2    8.02    1.04
  27  -3  -2   10.03    1.10
 -27  -3   2   10.71    0.89
 -27   3   2   10.07    1.07
  27   3  -2   10.01    1.12
  25  -3  -2    3.29    0.63
  25  -3  -2    2.77    0.61
 -25  -3   2    2.92    0.56
 -25  -3   2    2.36    0.57
 -25   3   2    3.58    0.66
  25   3  -2    1.95    0.39
  25   3  -2    3.04    0.66
 -23  -3   2    4.28    0.60
 -23  -3   2    3.86    0.63
  23  -3  -2    4.77    0.71
  23  -3  -2    4.26    0.67
 -23   3   2    4.05    0.60
 -23   3   2    3.15    0.62
 -23   3   2    2.87    0.57
  23   3  -2    4.16    0.51
  23   3  -2    4.38    0.71
  21  -3  -2    6.04    0.75
 -21  -3   2    4.48    0.58
 -21  -3   2    5.06    0.65
  21  -3  -2    5.56    0.74
 -21   3   2    5.10    0.62
 -21   3   2    5.88    0.76
  21   3  -2    5.11    0.76
 -21   3   2    4.37    0.67
 -21   3   2    4.75    0.68
  21   3  -2    4.59    0.52
  19  -3  -2   36.80    1.23
 -19  -3   2   36.98    1.61
 -19  -3   2   36.36    1.42
  19  -3  -2   37.63    1.60
  19  -3  -2   35.83    1.56
 -19   3   2   36.38    1.43
 -19   3   2   34.58    1.54
  19   3  -2   34.18    1.30
 -19   3   2   35.91    1.54
 -19   3   2   33.67    1.57
  19   3  -2   35.95    1.70
  17  -3  -2    2.24    0.46
 -17  -3   2    1.96    0.36
  17  -3  -2    1.59    0.40
 -17  -3   2    2.85    0.43
  17  -3  -2    2.16    0.31
 -17  -3   2    2.37    0.43
 -17   3   2    2.33    0.44
  17   3  -2    2.59    0.52
 -17   3   2    1.52    0.37
  17   3  -2    2.32    0.34
 -17   3   2    2.25    0.46
 -17   3   2    2.52    0.42
  15  -3  -2   27.86    1.25
 -15  -3   2   27.46    1.10
 -15  -3   2   28.64    1.10
  15  -3  -2   28.09    0.92
 -15  -3   2   28.54    1.25
  15  -3  -2   26.48    1.22
  15  -3  -2   27.28    1.37
  15   3  -2   30.56    1.13
 -15   3   2   27.83    1.11
 -15   3   2   27.95    1.31
  15   3  -2   27.56    1.03
 -15   3   2   29.36    1.23
  15   3  -2   27.70    1.38
 -15   3   2   27.73    1.27
 -15   3   2   29.45    1.27
 -13  -3   2   52.58    1.61
 -13  -3   2   49.59    1.79
  13  -3  -2   53.29    1.38
  13  -3  -2   52.32    1.99
  13  -3  -2   52.85    1.79
 -13  -3   2   55.90    1.65
  13  -3  -2   52.49    1.78
  13   3  -2   54.00    1.56
 -13   3   2   51.37    1.76
  13   3  -2   52.86    2.00
 -13   3   2   52.43    1.90
  13   3  -2   53.96    1.61
  13   3  -2   52.37    1.48
 -13   3   2   51.99    1.81
 -13   3   2   54.22    1.75
  13   3  -2   51.91    1.53
 -13   3   2   53.61    1.61
 -11  -3   2    1.47    0.28
  11  -3  -2    1.16    0.15
 -11  -3   2    1.57    0.27
  11  -3  -2    1.42    0.32
 -11  -3   2    1.25    0.25
  11  -3  -2    1.50    0.32
  11  -3  -2    1.09    0.28
  11   3  -2    1.19    0.24
 -11   3   2    1.34    0.24
  11   3  -2    1.14    0.21
 -11   3   2    1.28    0.29
 -11   3   2    1.04    0.27
  11   3  -2    1.19    0.35
  11   3  -2    1.62    0.24
 -11   3   2    0.99    0.28
 -11   3   2    1.06    0.29
   9  -3  -2    8.39    0.28
   9  -3  -2    7.77    0.54
  -9  -3   2    7.55    0.51
   9  -3  -2    7.97    0.59
  -9  -3   2   10.01    0.50
   9  -3  -2    8.94    0.56
  -9  -3   2    8.41    0.48
  -9  -3   2    8.66    0.47
  -9   3   2    8.01    0.42
  -9   3   2    8.02    0.55
  -9   3   2    8.74    0.57
   9   3  -2    8.25    0.43
   9   3  -2    8.30    0.44
  -9   3   2    8.54    0.56
   9   3  -2    7.97    0.66
  -9   3   2    8.37    0.53
   9   3  -2    8.78    0.47
   9   3  -2    8.83    0.31
  -7  -3   2   39.99    1.18
   7  -3  -2   38.85    1.26
   7  -3  -2   39.54    1.27
  -7  -3   2   31.41    1.12
  -7  -3   2   40.88    1.16
  -7  -3   2   38.89    1.14
   7  -3  -2   39.58    1.41
  -7  -3   2   37.85    1.29
  -7   3   2   40.70    1.28
   7   3  -2   40.44    1.15
  -7   3   2   39.50    1.00
   7   3  -2   38.01    1.11
  -7   3   2   38.70    1.29
  -7   3   2   38.75    1.41
  -7   3   2   38.86    1.21
  -7   3   2   38.21    1.25
   7   3  -2   40.14    1.13
  -5  -3   2    6.40    0.40
   5  -3  -2    6.92    0.53
   5  -3  -2    6.06    0.45
  -5  -3   2    7.27    0.39
   5  -3  -2    6.85    0.42
   5  -3  -2    5.30    0.41
   5  -3  -2    7.04    0.43
  -5  -3   2    7.03    0.44
  -5  -3   2    7.02    0.40
  -5  -3   2    6.75    0.40
  -5  -3   2    7.76    0.50
   5   3  -2    6.97    0.40
  -5   3   2    7.67    0.55
  -5   3   2    7.36    0.43
   5   3  -2    6.78    0.37
  -5   3   2    6.30    0.38
   5   3  -2    7.15    0.38
   5   3  -2    6.80    0.57
  -5   3   2    6.98    0.41
   5   3  -2    6.49    0.44
  -3  -3   2   79.17    2.22
  -3  -3   2   76.69    1.96
   3  -3  -2   77.89    1.97
  -3  -3   2   77.20    1.98
   3  -3  -2   78.48    1.70
   3  -3  -2   77.95    2.29
   3  -3  -2   80.30    1.88
   3  -3  -2   76.44    2.18
   3  -3  -2   75.90    1.94
   3  -3  -2   77.90    2.16
   3  -3  -2   75.40    1.93
  -3  -3   2   77.81    1.94
  -3  -3   2   79.14    1.99
   3  -3  -2   76.11    1.95
  -3   3   2   79.09    1.93
  -3   3   2   75.62    2.18
   3   3  -2   79.22    2.40
   3   3  -2   77.39    1.95
   3   3  -2   76.97    1.92
   3   3  -2   78.32    2.16
   3   3  -2   74.56    1.91
  -3   3   2   75.66    1.91
   1  -3  -2   73.09    2.00
  -1  -3   2   71.89    1.88
   1  -3  -2   69.65    1.91
   1  -3  -2   71.45    1.72
   1  -3  -2   72.37    1.66
   1  -3  -2   71.23    1.73
   1  -3  -2   75.36    1.85
   1  -3  -2   71.40    1.75
  -1  -3   2   70.74    2.08
  -1  -3   2   68.73    1.84
   1  -3  -2   71.44    1.74
  -1  -3   2   71.51    1.83
  -1  -3   2   69.52    2.18
   1  -3  -2   70.57    2.11
   1   3  -2   69.16    2.04
  -1   3   2   72.89    2.00
  -1   3   2   67.73    1.62
   1   3  -2   68.25    1.79
  -1   3   2   68.77    1.65
  -1   3   2   70.89    1.84
   1   3  -2   69.06    1.78
  -1   3   2   72.62    2.23
  -1   3   2   74.41    1.70
  -1   3   2   73.60    2.14
   1   3  -2   73.07    2.22
   1   3  -2   70.94    1.82
   1   3  -2   71.38    1.84
  -1  -3  -2   60.73    1.67
  -1  -3  -2   61.03    1.43
  -1  -3  -2   60.38    1.41
  -1  -3  -2   61.40    1.43
  -1  -3  -2   61.01    1.69
   1  -3   2   62.57    1.69
   1  -3   2   59.56    1.92
   1  -3   2   59.71    1.86
  -1  -3  -2   61.55    1.88
  -1  -3  -2   61.77    1.42
  -1  -3  -2   61.03    1.51
   1  -3   2   59.02    1.64
  -1  -3  -2   57.67    1.52
   1   3   2   61.16    1.69
  -1   3  -2   57.77    1.81
   1   3   2   62.61    1.99
   1   3   2   59.43    1.67
  -1   3  -2   57.29    1.58
  -1   3  -2   58.93    1.64
  -1   3  -2   59.53    1.91
  -1   3  -2   57.76    1.61
   3  -3   2   11.01    0.56
   3  -3   2   10.43    0.63
  -3  -3  -2   10.28    0.63
  -3  -3  -2   11.54    0.58
  -3  -3  -2   10.75    0.49
  -3  -3  -2   10.46    0.48
   3  -3   2    9.07    0.54
  -3  -3  -2   10.71    0.30
  -3  -3  -2   10.55    0.31
   3  -3   2   11.18    0.67
  -3   3  -2   10.32    0.40
  -3   3  -2   10.88    0.56
  -3   3  -2   10.88    0.65
  -3   3  -2    9.59    0.54
  -3   3  -2   11.29    0.42
   3   3   2   11.79    0.72
   3   3   2   11.34    0.58
  -3   3  -2    9.83    0.62
   3   3   2   12.07    0.52
  -3   3  -2    9.88    0.51
   5  -3   2   92.34    2.48
  -5  -3  -2   93.84    2.30
  -5  -3  -2   94.54    2.66
   5  -3   2   93.39    2.80
  -5  -3  -2   93.81    2.37
   5  -3   2   93.09    2.70
  -5   3  -2   88.87    2.62
   5   3   2   94.44    2.59
  -5   3  -2   92.19    2.67
  -5   3  -2   97.79    2.26
  -5   3  -2   92.33    2.42
   5   3   2   97.20    2.40
   5   3   2   96.44    2.82
  -5   3  -2   95.11    2.21
  -5   3  -2   91.83    2.48
  -5   3  -2   97.62    2.48
  -7  -3  -2   33.20    1.10
   7  -3   2   30.04    1.12
  -7  -3  -2   31.60    0.77
   7  -3   2   31.75    1.26
  -7  -3  -2   31.52    0.77
  -7  -3  -2   31.35    0.78
   7  -3   2   29.47    1.28
   7  -3   2   32.41    1.27
  -7   3  -2   30.22    0.99
   7   3   2   31.90    1.31
   7   3   2   29.06    1.17
   7   3   2   31.99    1.10
  -7   3  -2   30.15    1.14
  -7   3  -2   28.81    1.11
  -7   3  -2   31.42    1.25
  -7   3  -2   28.53    0.95
  -7   3  -2   29.06    1.10
  -7   3  -2   29.68    1.08
   9  -3   2   20.65    1.07
  -9  -3  -2   20.82    0.63
  -9  -3  -2   21.86    0.66
  -9  -3  -2   21.73    0.65
  -9  -3  -2   21.08    0.69
  -9  -3  -2   20.14    0.70
   9  -3   2   20.50    0.93
   9  -3   2   20.18    1.02
   9  -3   2   21.41    0.80
  -9   3  -2   22.07    0.91
   9   3   2   21.76    0.60
  -9   3  -2   21.87    0.95
  -9   3  -2   21.39    0.85
  -9   3  -2   22.05    0.97
  -9   3  -2   21.49    1.02
   9   3   2   23.52    1.04
  -9   3  -2   20.08    0.82
   9   3   2   22.64    1.08
  -9   3  -2   20.04    0.79
   9   3   2   22.07    0.93
 -11  -3  -2   10.91    0.47
  11  -3   2   11.97    0.56
 -11  -3  -2   10.78    0.47
  11  -3   2   10.22    0.72
 -11  -3  -2   11.03    0.46
  11  -3   2   11.13    0.70
 -11  -3  -2   10.47    0.50
  11  -3   2   10.94    0.80
 -11   3  -2   10.39    0.69
  11   3   2    9.92    0.71
  11   3   2   11.30    0.78
 -11   3  -2   10.11    0.57
 -11   3  -2   10.85    0.61
  11   3   2   11.08    0.46
 -11   3  -2   10.24    0.66
 -11   3  -2   10.21    0.66
  11   3   2   10.68    0.66
 -11   3  -2    9.80    0.73
 -13  -3  -2   13.51    0.65
  13  -3   2   14.91    0.93
  13  -3   2   14.21    0.66
  13  -3   2   14.06    0.83
 -13  -3  -2   14.10    0.59
 -13  -3  -2   13.32    0.60
 -13   3  -2   12.41    0.71
 -13   3  -2   13.57    0.79
  13   3   2   14.62    0.60
 -13   3  -2   13.80    0.82
  13   3   2   14.20    0.89
 -13   3  -2   12.54    0.85
  13   3   2   13.36    0.43
  13   3   2   13.83    0.89
  13   3   2   13.64    0.43
  13   3   2   12.30    0.76
 -13   3  -2   13.12    0.83
 -15  -3  -2   30.59    1.20
  15  -3   2   32.05    1.37
  15  -3   2   31.74    1.13
 -15  -3  -2   31.89    1.08
  15  -3   2   32.61    1.52
  15  -3   2   31.71    1.34
 -15  -3  -2   33.33    1.12
  15  -3   2   29.69    1.52
 -15   3  -2   30.99    1.40
  15   3   2   31.10    0.93
 -15   3  -2   31.52    1.40
  15   3   2   29.67    1.38
 -15   3  -2   30.79    1.23
 -15   3  -2   31.91    1.35
 -15   3  -2   30.79    1.33
  15   3   2   32.16    1.34
  15   3   2   30.76    0.91
  15   3   2   30.78    1.44
  15   3   2   31.58    1.08
 -17  -3  -2   87.14    2.74
  17  -3   2   89.95    2.80
  17  -3   2   93.13    2.54
  17  -3   2   89.68    2.79
  17  -3   2   89.16    2.55
 -17  -3  -2   94.13    2.46
 -17   3  -2   91.49    2.77
  17   3   2   86.08    2.96
 -17   3  -2   92.43    2.79
  17   3   2   91.97    2.26
  17   3   2   90.01    2.90
 -17   3  -2   89.24    2.60
 -17   3  -2   86.78    2.87
  17   3   2   85.84    2.74
 -17   3  -2   90.19    2.86
  19  -3   2   21.34    1.05
 -19  -3  -2   23.87    1.02
  19  -3   2   21.79    1.20
 -19  -3  -2   22.57    1.14
  19  -3   2   26.09    1.07
  19  -3   2   22.19    1.23
 -19   3  -2   23.56    1.22
 -19   3  -2   23.36    1.13
 -19   3  -2   23.66    1.26
 -19   3  -2   23.35    1.29
  19   3   2   23.44    1.25
  19   3   2   23.83    1.34
  19   3   2   22.15    1.20
  19   3   2   22.91    0.85
 -19   3  -2   25.39    1.28
  21  -3   2    6.90    0.80
 -21  -3  -2    7.70    0.69
  21  -3   2    6.88    0.68
 -21  -3  -2    6.24    0.63
  21  -3   2    6.63    0.80
 -21   3  -2    6.80    0.72
  21   3   2    7.59    0.81
 -21   3  -2    7.45    0.82
  21   3   2    8.06    0.91
 -21   3  -2    6.37    0.80
 -21   3  -2    7.48    0.81
  21   3   2    6.69    0.78
  21   3   2    6.83    0.48
  23  -3   2   12.77    0.99
  23  -3   2   14.59    1.07
 -23  -3  -2   15.31    0.90
 -23  -3  -2   14.48    1.01
  23  -3   2   14.11    0.90
  23   3   2   13.77    1.01
 -23   3  -2   16.29    1.10
  23   3   2   14.12    1.02
  23   3   2   11.53    1.03
  23   3   2   12.82    0.70
 -23   3  -2   16.31    1.09
 -23   3  -2   14.32    1.10
  25  -3   2    0.69    0.39
  25  -3   2    1.31    0.39
 -25  -3  -2    1.37    0.43
  25   3   2    1.32    0.51
  25   3   2    1.14    0.30
 -25   3  -2    2.13    0.54
 -27  -3  -2    1.69    0.44
  27  -3   2    1.74    0.54
 -27   3  -2    1.62    0.52
 -29  -3  -2    1.77    0.52
 -29   3  -2    2.19    0.64
 -26  -4   2    5.54    0.71
  26  -4  -2    4.47    0.78
 -26   4   2    4.73    0.68
  26   4  -2    5.81    0.91
  24  -4  -2   16.18    1.15
 -24  -4   2   16.66    1.02
  24  -4  -2   14.38    1.16
  24   4  -2   15.15    1.25
 -24   4   2   15.42    0.99
 -24   4   2   16.09    1.14
  22  -4  -2   22.13    1.33
 -22  -4   2   22.58    1.14
  22  -4  -2   23.91    1.36
  22   4  -2   25.91    1.56
  22   4  -2   22.76    0.99
 -22   4   2   22.66    1.17
 -22   4   2   23.56    1.35
 -20  -4   2    2.91    0.47
  20  -4  -2    3.22    0.60
  20  -4  -2    3.15    0.60
 -20  -4   2    2.94    0.52
  20   4  -2    2.95    0.38
 -20   4   2    3.43    0.60
 -20   4   2    4.09    0.62
 -20   4   2    3.26    0.48
  20   4  -2    2.57    0.60
 -20   4   2    2.94    0.55
 -18  -4   2    2.29    0.44
  18  -4  -2    2.26    0.49
 -18  -4   2    1.94    0.38
  18  -4  -2    2.81    0.52
  18   4  -2    2.67    0.34
 -18   4   2    2.69    0.54
 -18   4   2    2.83    0.55
 -18   4   2    3.10    0.44
  18   4  -2    1.65    0.47
 -18   4   2    2.63    0.50
 -16  -4   2   19.39    1.03
 -16  -4   2   19.61    0.90
  16  -4  -2   20.47    1.12
  16  -4  -2   19.07    1.08
 -16   4   2   18.69    1.06
  16   4  -2   18.12    1.21
 -16   4   2   18.91    1.07
 -16   4   2   19.45    1.03
  16   4  -2   18.26    0.75
 -16   4   2   18.96    0.88
  14  -4  -2   16.83    0.97
 -14  -4   2   17.53    0.91
 -14  -4   2   17.57    0.80
  14  -4  -2   17.46    0.96
  14   4  -2   16.37    1.12
 -14   4   2   17.05    0.76
 -14   4   2   17.74    0.99
 -14   4   2   15.37    0.92
 -14   4   2   16.03    0.90
  14   4  -2   17.53    0.68
  12  -4  -2   39.45    1.51
 -12  -4   2   41.63    1.30
  12  -4  -2   39.17    0.97
  12  -4  -2   38.42    1.65
 -12  -4   2   39.29    1.31
 -12  -4   2   38.46    1.45
  12  -4  -2   42.00    1.54
 -12   4   2   38.08    1.42
  12   4  -2   39.00    1.14
 -12   4   2   37.85    1.48
 -12   4   2   40.89    1.51
  12   4  -2   40.23    1.78
  12   4  -2   42.00    1.31
  12   4  -2   39.12    1.31
 -12   4   2   39.21    1.18
 -10  -4   2   11.21    0.56
 -10  -4   2   11.52    0.59
 -10  -4   2   11.82    0.66
  10  -4  -2   10.70    0.75
  10  -4  -2   11.17    0.70
  10  -4  -2   11.14    0.70
 -10   4   2   12.00    0.82
 -10   4   2   10.70    0.42
  10   4  -2   10.73    0.60
  10   4  -2   10.64    0.47
 -10   4   2   10.79    0.64
 -10   4   2   10.69    0.43
 -10   4   2   10.14    0.65
 -10   4   2   11.15    0.70
  10   4  -2   10.99    0.57
  10   4  -2   11.65    0.88
  -8  -4   2    6.20    0.46
   8  -4  -2    6.66    0.55
  -8  -4   2    5.73    0.40
  -8  -4   2    6.54    0.42
   8  -4  -2    5.63    0.48
   8  -4  -2    6.57    0.49
   8   4  -2    6.88    0.75
  -8   4   2    6.38    0.51
  -8   4   2    6.29    0.49
   8   4  -2    6.40    0.42
   8   4  -2    5.70    0.33
  -8   4   2    6.10    0.45
   8   4  -2    5.75    0.45
  -8   4   2    6.97    0.60
  -6  -4   2   36.61    1.27
   6  -4  -2   31.95    1.17
  -6  -4   2   37.07    1.13
  -6  -4   2   35.68    1.09
   6  -4  -2   34.24    1.44
   6  -4  -2   35.80    1.34
  -6  -4   2   35.22    1.10
   6  -4  -2   35.21    1.20
   6   4  -2   36.46    1.28
  -6   4   2   33.84    1.15
   6   4  -2   36.11    1.09
   6   4  -2   35.74    1.55
  -6   4   2   35.48    1.19
  -6   4   2   34.43    1.39
   6   4  -2   34.98    0.95
   6   4  -2   36.05    1.01
  -6   4   2   35.57    1.12
   4  -4  -2   11.38    0.62
  -4  -4   2   11.52    0.62
   4  -4  -2   11.59    0.38
   4  -4  -2   12.07    0.77
  -4  -4   2   11.82    0.55
   4  -4  -2   11.47    0.43
  -4  -4   2   13.55    0.84
   4  -4  -2   11.71    0.57
  -4  -4   2   11.90    0.54
  -4  -4   2   11.67    0.56
   4  -4  -2   12.36    0.58
   4  -4  -2   13.33    0.59
  -4   4   2   12.83    0.60
  -4   4   2   11.23    0.52
   4   4  -2   11.95    0.50
   4   4  -2   12.58    0.86
   4   4  -2   11.78    0.67
   4   4  -2   12.00    0.46
   4   4  -2   10.57    0.53
  -4   4   2   11.93    0.72
  -2  -4   2   16.49    0.78
   2  -4  -2   16.97    0.63
   2  -4  -2   16.17    0.90
   2  -4  -2   17.14    0.65
   2  -4  -2   16.22    0.63
   2  -4  -2   15.82    0.63
  -2  -4   2   18.26    0.72
   2  -4  -2   17.17    0.55
   2  -4  -2   16.92    0.71
  -2  -4   2   16.66    0.95
   2   4  -2   16.51    0.63
   2   4  -2   16.98    0.67
  -2   4   2   17.47    0.84
  -2   4   2   16.85    0.98
  -2   4   2   17.13    0.51
   2   4  -2   16.80    0.98
  -2   4   2   17.41    0.64
   2   4  -2   15.68    0.81
   2   4  -2   17.80    0.66
  -2   4   2   17.26    0.55
   0  -4  -2  123.03    2.86
   0  -4   2  124.01    3.08
   0  -4   2  123.23    3.46
   0  -4  -2  123.99    2.88
   0  -4  -2  122.71    3.51
   0  -4  -2  126.43    2.90
   0  -4  -2  124.38    2.88
   0  -4  -2  123.51    2.87
   0  -4   2  118.12    3.55
   0  -4  -2  123.36    3.18
   0  -4  -2  127.58    3.14
   0   4  -2  121.31    3.37
   0   4   2  128.70    3.71
   0   4  -2  127.04    3.65
   0   4   2  128.69    2.83
   0   4  -2  123.64    3.02
   0   4  -2  124.15    3.00
   0   4   2  123.60    3.26
  -2  -4  -2   19.28    0.57
  -2  -4  -2   20.48    0.59
  -2  -4  -2   20.70    1.03
   2  -4   2   19.14    0.93
  -2  -4  -2   21.89    0.86
   2  -4   2   19.81    0.82
   2  -4   2   20.87    1.07
  -2  -4  -2   19.96    0.60
  -2  -4  -2   20.37    0.59
  -2  -4  -2   21.37    0.76
  -2   4  -2   19.56    0.83
  -2   4  -2   19.63    0.98
  -2   4  -2   20.13    1.04
  -2   4  -2   19.83    0.76
   2   4   2   20.60    1.08
  -2   4  -2   20.17    0.80
   2   4   2   19.44    0.82
  -2   4  -2   20.37    0.80
   4  -4   2   67.48    2.01
   4  -4   2   66.99    2.28
  -4  -4  -2   68.24    1.89
  -4  -4  -2   70.44    2.29
  -4  -4  -2   71.67    1.95
   4  -4   2   68.27    2.31
  -4   4  -2   69.71    1.92
  -4   4  -2   73.38    2.03
   4   4   2   76.09    2.46
  -4   4  -2   73.50    2.02
  -4   4  -2   67.66    1.96
  -4   4  -2   71.38    2.29
   4   4   2   71.03    1.94
   4   4   2   71.24    2.12
  -4   4  -2   69.59    2.25
   6  -4   2    0.80    0.27
   6  -4   2    0.41    0.21
  -6  -4  -2    0.41    0.15
  -6  -4  -2    0.34    0.22
   6  -4   2    0.92    0.24
   6  -4   2    0.98    0.29
  -6   4  -2    0.62    0.14
  -6   4  -2    0.43    0.20
  -6   4  -2    0.80    0.25
  -6   4  -2    0.96    0.26
   6   4   2    0.37    0.19
   6   4   2    0.50    0.23
  -6   4  -2    0.57    0.25
  -6   4  -2    0.97    0.28
  -6   4  -2    0.69    0.14
   6   4   2    1.03    0.34
   8  -4   2   14.59    0.80
   8  -4   2   13.87    0.89
   8  -4   2   14.37    0.89
  -8  -4  -2   12.72    0.82
   8  -4   2   14.25    0.85
  -8   4  -2   13.01    0.58
   8   4   2   14.48    0.75
  -8   4  -2   13.41    0.76
  -8   4  -2   12.96    0.56
  -8   4  -2   13.70    0.86
  -8   4  -2   13.34    0.77
   8   4   2   14.67    0.83
  -8   4  -2   12.57    0.70
   8   4   2   13.97    0.94
  -8   4  -2   13.87    0.78
  10  -4   2   16.38    0.70
 -10  -4  -2   17.25    0.53
 -10  -4  -2   16.27    0.52
  10  -4   2   17.57    1.01
  10  -4   2   16.23    1.02
 -10  -4  -2   16.46    0.57
 -10  -4  -2   16.80    0.52
  10  -4   2   15.77    0.89
 -10   4  -2   15.91    0.83
  10   4   2   17.36    0.87
  10   4   2   17.97    1.08
  10   4   2   19.03    1.01
 -10   4  -2   16.16    0.90
 -10   4  -2   16.81    0.73
 -10   4  -2   16.77    0.70
 -10   4  -2   16.63    0.90
  10   4   2   16.50    0.50
 -10   4  -2   16.58    0.86
 -12  -4  -2   40.75    1.08
 -12  -4  -2   38.24    1.21
  12  -4   2   42.06    1.80
  12  -4   2   40.74    1.25
  12  -4   2   40.13    1.53
 -12   4  -2   35.91    1.63
  12   4   2   39.21    1.49
  12   4   2   38.60    1.71
 -12   4  -2   38.30    1.46
 -12   4  -2   38.99    1.28
  12   4   2   39.88    1.09
 -12   4  -2   39.12    1.31
 -12   4  -2   37.56    1.53
 -12   4  -2   36.79    1.49
  12   4   2   36.46    1.59
  14  -4   2   64.53    2.17
  14  -4   2   64.42    1.80
  14  -4   2   62.76    2.15
 -14  -4  -2   59.09    1.88
  14  -4   2   59.77    2.43
 -14  -4  -2   63.43    1.67
 -14   4  -2   61.92    2.17
  14   4   2   65.84    2.38
  14   4   2   65.51    1.68
 -14   4  -2   63.31    2.15
 -14   4  -2   63.65    2.10
  14   4   2   59.79    2.26
 -14   4  -2   61.14    2.29
  14   4   2   59.62    2.07
 -14   4  -2   63.93    1.91
 -14   4  -2   60.74    1.83
 -16  -4  -2   10.58    0.63
  16  -4   2   10.74    0.83
 -16  -4  -2   10.26    0.55
  16  -4   2    9.08    0.87
 -16   4  -2    9.41    0.79
 -16   4  -2   10.91    0.71
 -16   4  -2    9.66    0.77
  16   4   2   11.45    0.80
  16   4   2   10.28    0.89
 -16   4  -2    9.73    0.80
  16   4   2   10.17    0.86
  16   4   2   11.05    0.59
 -16   4  -2    9.89    0.84
 -18  -4  -2    9.47    0.58
  18  -4   2    9.66    0.68
 -18  -4  -2    9.21    0.66
  18  -4   2    9.16    0.80
  18  -4   2    9.62    0.93
 -18   4  -2    8.21    0.66
  18   4   2    9.48    0.99
 -18   4  -2    8.70    0.92
 -18   4  -2    9.90    0.79
  18   4   2    8.05    0.82
 -18   4  -2    9.16    0.92
  18   4   2   10.33    0.89
 -18   4  -2   10.90    0.88
  20  -4   2    2.78    0.55
  20  -4   2    2.21    0.54
 -20  -4  -2    2.82    0.41
  20  -4   2    3.38    0.50
  20   4   2    1.56    0.43
 -20   4  -2    2.77    0.58
  20   4   2    2.64    0.57
 -20   4  -2    3.59    0.60
 -20   4  -2    3.38    0.61
 -20   4  -2    3.35    0.51
  20   4   2    2.19    0.55
  22  -4   2   13.37    1.03
  22  -4   2   10.95    0.95
 -22  -4  -2   12.37    0.77
  22   4   2   13.31    1.07
 -22   4  -2   12.52    0.97
 -22   4  -2   12.51    1.03
 -22   4  -2   11.32    0.85
  24  -4   2   10.37    1.09
 -24  -4  -2    8.53    0.70
 -24   4  -2   11.76    1.02
  24   4   2    9.01    1.03
 -24   4  -2    8.08    0.98
 -26  -4  -2   10.56    0.82
  26  -4   2   12.49    1.23
 -26   4  -2    9.95    1.10
 -25  -5   2    3.70    0.59
  25  -5  -2    3.47    0.72
  25   5  -2    5.15    0.93
 -25   5   2    3.43    0.54
 -23  -5   2    1.93    0.45
  23  -5  -2    1.94    0.56
 -23   5   2    1.63    0.38
  23   5  -2    2.01    0.63
 -21  -5   2    2.56    0.45
  21  -5  -2    3.69    0.66
 -21   5   2    2.18    0.40
 -21   5   2    2.53    0.62
  21   5  -2    3.03    0.72
  19  -5  -2    1.03    0.43
 -19  -5   2    0.74    0.31
 -19   5   2    0.43    0.38
  19   5  -2    0.87    0.47
 -19   5   2    0.31    0.21
 -19   5   2    0.65    0.25
  17  -5  -2   16.25    1.07
 -17  -5   2   15.57    0.81
 -17   5   2   15.48    0.73
 -17   5   2   16.46    1.05
 -17   5   2   16.83    0.72
 -17   5   2   15.13    1.06
  17   5  -2   15.95    1.24
 -15  -5   2    0.10    0.20
  15  -5  -2    0.08    0.29
 -15  -5   2    0.39    0.23
  15  -5  -2    0.08    0.25
  15   5  -2    0.23    0.34
 -15   5   2    0.15    0.14
 -15   5   2    0.07    0.27
 -15   5   2    0.20    0.15
 -15   5   2    0.16    0.27
 -13  -5   2   19.31    0.97
 -13  -5   2   20.04    0.84
  13  -5  -2   18.31    1.04
  13  -5  -2   17.64    1.02
 -13   5   2   20.25    1.09
 -13   5   2   19.07    1.02
  13   5  -2   19.22    1.28
  11  -5  -2    1.84    0.40
 -11  -5   2    2.03    0.35
 -11  -5   2    2.13    0.33
  11  -5  -2    2.03    0.42
  11   5  -2    1.34    0.31
 -11   5   2    1.42    0.38
 -11   5   2    2.33    0.41
  11   5  -2    2.31    0.34
  11   5  -2    2.13    0.52
 -11   5   2    1.23    0.40
   9  -5  -2   26.21    1.12
   9  -5  -2   23.77    1.08
  -9  -5   2   25.49    1.07
   9  -5  -2   23.81    1.21
  -9  -5   2   24.01    0.91
   9   5  -2   27.13    1.48
  -9   5   2   26.49    1.32
   9   5  -2   25.65    1.07
   9   5  -2   26.92    0.96
  -9   5   2   24.67    1.04
  -9   5   2   24.45    1.11
  -7  -5   2   19.10    0.89
   7  -5  -2   18.35    0.89
   7  -5  -2   18.17    1.11
  -7  -5   2   18.69    1.15
   7  -5  -2   19.55    0.91
  -7  -5   2   18.61    0.77
   7  -5  -2   19.38    1.00
  -7   5   2   19.01    1.06
  -7   5   2   17.59    0.87
  -7   5   2   18.45    0.81
   7   5  -2   18.57    1.22
   7   5  -2   19.03    0.92
   7   5  -2   20.97    0.80
  -5  -5   2   40.43    1.82
   5  -5  -2   45.73    1.43
   5  -5  -2   42.97    1.79
  -5  -5   2   43.38    1.52
   5  -5  -2   42.11    1.40
  -5  -5   2   44.28    1.34
   5  -5  -2   43.58    1.58
  -5   5   2   43.25    1.29
  -5   5   2   44.58    1.43
   5   5  -2   43.00    1.32
   5   5  -2   43.97    1.58
  -5   5   2   41.24    1.64
   5   5  -2   41.83    1.88
   5   5  -2   42.17    1.10
   3  -5  -2   14.83    0.68
   3  -5  -2   13.18    0.92
  -3  -5   2   15.25    0.70
   3  -5  -2   15.65    0.76
   3  -5  -2   14.57    0.68
  -3  -5   2   14.46    0.78
  -3  -5   2   16.74    1.05
  -3   5   2   16.77    1.08
   3   5  -2   15.94    1.08
   3   5  -2   15.93    0.87
   3   5  -2   14.60    0.56
  -3   5   2   16.72    0.90
  -3   5   2   15.41    0.70
   3   5  -2   13.59    0.67
  -3   5   2   15.23    0.52
   1  -5  -2    4.82    0.34
   1  -5  -2    4.67    0.33
  -1  -5   2    4.91    0.67
   1  -5  -2    4.05    0.35
  -1  -5   2    3.79    0.46
   1  -5  -2    4.84    0.64
  -1  -5   2    4.56    0.45
   1   5  -2    4.67    0.34
  -1   5   2    3.79    0.48
   1   5  -2    5.09    0.58
   1   5  -2    5.72    0.44
  -1   5   2    4.54    0.68
   1   5  -2    4.96    0.68
  -1   5   2    5.27    0.37
   1  -5   2   29.00    1.45
  -1  -5  -2   30.05    1.00
   1  -5   2   30.22    1.28
   1  -5   2   27.49    1.08
  -1  -5  -2   28.51    1.39
  -1  -5  -2   28.71    0.98
  -1  -5  -2   29.82    0.89
   1   5   2   30.69    0.90
  -1   5  -2   29.78    1.47
   1   5   2   32.06    1.55
  -1   5  -2   31.00    1.34
   1   5   2   31.47    1.21
  -1   5  -2   29.11    1.02
  -1   5  -2   31.04    1.15
   3  -5   2   26.49    1.37
  -3  -5  -2   27.71    0.75
  -3  -5  -2   28.03    0.76
  -3  -5  -2   28.19    1.37
   3  -5   2   26.86    1.09
  -3  -5  -2   22.53    0.95
   3  -5   2   28.64    1.28
  -3   5  -2   26.18    1.26
  -3   5  -2   26.44    1.02
   3   5   2   27.72    1.09
  -3   5  -2   28.19    1.37
   3   5   2   27.95    0.75
   3   5   2   29.85    1.47
  -3   5  -2   27.87    1.11
   5  -5   2   14.90    0.98
  -5  -5  -2   12.87    0.90
   5  -5   2   14.54    0.79
   5  -5   2   12.37    0.85
  -5   5  -2   13.64    0.77
   5   5   2   13.63    0.68
  -5   5  -2   15.27    0.95
   5   5   2   13.00    1.00
  -5   5  -2   14.13    0.74
  -5   5  -2   13.62    0.93
  -7  -5  -2   52.44    2.05
   7  -5   2   55.59    2.13
   7  -5   2   55.72    2.03
   7  -5   2   53.35    1.81
   7  -5   2   51.63    2.06
   7   5   2   57.94    2.24
  -7   5  -2   51.87    1.81
  -7   5  -2   55.02    2.02
  -7   5  -2   51.92    1.76
  -7   5  -2   53.35    2.04
   9  -5   2   11.86    0.79
   9  -5   2   10.61    0.86
  -9  -5  -2   10.74    0.84
   9  -5   2   10.93    0.86
  -9   5  -2   10.04    0.40
  -9   5  -2   11.35    0.74
   9   5   2   10.51    0.93
  -9   5  -2    9.34    0.80
  -9   5  -2   10.91    0.77
  -9   5  -2    9.17    0.77
  -9   5  -2   10.37    0.40
  11  -5   2    4.22    0.66
 -11  -5  -2    6.02    0.75
 -11  -5  -2    4.20    0.26
  11  -5   2    3.88    0.54
 -11   5  -2    4.25    0.63
  11   5   2    3.78    0.66
  11   5   2    4.19    0.25
 -11   5  -2    3.68    0.51
 -11   5  -2    4.05    0.37
 -11   5  -2    3.89    0.36
 -11   5  -2    2.90    0.51
 -13  -5  -2   10.70    0.53
  13  -5   2   11.34    0.85
  13  -5   2   10.88    0.95
  13  -5   2    9.71    0.78
 -13  -5  -2   11.53    0.44
 -13   5  -2   10.86    0.91
  13   5   2   11.46    1.00
 -13   5  -2   10.91    0.59
 -13   5  -2   11.61    0.62
 -13   5  -2   11.47    0.84
 -13   5  -2   11.48    0.85
  13   5   2   11.98    0.49
  15  -5   2   22.95    1.26
  15  -5   2   25.62    1.31
 -15  -5  -2   24.57    0.81
 -15   5  -2   24.68    1.31
 -15   5  -2   25.63    1.45
 -15   5  -2   24.87    1.30
 -15   5  -2   23.33    1.01
 -15   5  -2   25.52    1.00
  15   5   2   25.17    0.88
  15   5   2   24.64    1.47
  15   5   2   24.69    1.26
 -17  -5  -2   11.40    0.57
  17  -5   2   11.10    0.92
  17  -5   2   12.12    0.94
  17   5   2   12.56    1.09
 -17   5  -2   12.49    0.75
 -17   5  -2   12.89    1.04
 -17   5  -2   10.09    1.00
  17   5   2   13.21    0.94
 -17   5  -2   11.50    0.92
  19  -5   2   13.14    1.01
  19  -5   2   10.68    0.93
 -19  -5  -2   12.66    0.66
 -19   5  -2   11.57    0.78
  19   5   2   12.74    0.95
 -19   5  -2   10.90    1.07
  19   5   2   13.93    1.14
 -19   5  -2   10.18    1.07
  21  -5   2    4.53    0.73
 -21  -5  -2    3.73    0.45
  21  -5   2    3.04    0.63
  21   5   2    3.65    0.73
 -21   5  -2    2.60    0.47
  23  -5   2    0.31    0.33
 -23  -5  -2   -0.21    0.25
 -23   5  -2    0.17    0.30
  23   5   2    0.55    0.43
 -20  -6   2    2.69    0.44
  20  -6  -2    2.27    0.58
  20   6  -2    1.42    0.61
 -20   6   2    2.19    0.60
 -20   6   2    2.02    0.23
  18  -6  -2    0.57    0.42
 -18  -6   2    1.25    0.32
  18   6  -2    0.98    0.53
 -18   6   2    0.77    0.44
 -16  -6   2    4.72    0.50
  16  -6  -2    5.02    0.73
  16   6  -2    6.08    0.95
 -16   6   2    5.67    0.77
  14  -6  -2    5.25    0.70
 -14  -6   2    5.33    0.46
 -14   6   2    5.66    0.65
 -14   6   2    4.29    0.66
  14   6  -2    4.43    0.82
  12  -6  -2    1.88    0.45
 -12  -6   2    2.46    0.35
 -12  -6   2    1.90    0.51
 -12   6   2    1.59    0.39
 -12   6   2    1.60    0.43
  12   6  -2    2.89    0.65
 -10  -6   2    1.41    0.29
 -10  -6   2    1.76    0.48
  10  -6  -2    2.21    0.43
 -10   6   2    1.10    0.40
  10   6  -2    1.27    0.48
 -10   6   2    1.55    0.41
 -10   6   2    1.60    0.35
  -8  -6   2    0.42    0.32
  -8  -6   2    0.76    0.24
  -8  -6   2    0.79    0.27
   8  -6  -2    0.85    0.30
   8   6  -2    0.56    0.38
  -8   6   2    0.53    0.24
  -8   6   2    0.27    0.31
  -8   6   2    0.66    0.30
   8   6  -2    0.74    0.30
   6  -6  -2    1.73    0.45
   6  -6  -2    2.27    0.40
  -6  -6   2    2.10    0.52
  -6  -6   2    2.15    0.33
  -6  -6   2    2.61    0.40
   6  -6  -2    2.04    0.42
   6   6  -2    1.92    0.42
  -6   6   2    1.78    0.28
  -6   6   2    1.75    0.36
   6   6  -2    1.74    0.53
  -6   6   2    1.82    0.45
   4  -6  -2    3.28    0.46
  -4  -6   2    3.34    0.46
  -4  -6   2    3.33    0.39
   4  -6  -2    2.02    0.50
   4  -6  -2    2.65    0.39
  -4  -6   2    3.16    0.60
   4   6  -2    2.37    0.45
  -4   6   2    2.12    0.45
  -4   6   2    2.70    0.42
   4   6  -2    3.78    0.68
   2  -6  -2    1.00    0.26
   2  -6  -2    1.25    0.41
   2  -6  -2    1.19    0.28
  -2  -6   2    1.23    0.29
  -2  -6   2    1.10    0.40
  -2  -6   2    1.28    0.32
  -2   6   2    2.85    0.64
  -2   6   2    0.91    0.35
   2   6  -2    0.92    0.40
   2   6  -2    1.03    0.33
  -2   6   2    1.65    0.30
   0  -6   2   19.27    0.90
   0  -6  -2   18.13    0.72
   0  -6   2   16.54    1.18
   0  -6   2   18.32    1.01
   0  -6  -2   19.31    1.20
   0  -6  -2   20.11    0.85
   0   6   2   19.17    1.30
   0   6  -2   19.17    0.92
   0   6  -2   17.62    1.06
   0   6   2   20.14    1.04
   0   6  -2   19.14    1.27
   0   6  -2   19.67    0.72
   0   6   2   18.65    0.77
   2  -6   2   44.73    1.57
  -2  -6  -2   43.86    1.98
   2  -6   2   46.61    2.07
   2  -6   2   46.90    1.85
  -2  -6  -2   45.36    1.45
  -2  -6  -2   46.11    1.26
   2   6   2   52.09    2.23
  -2   6  -2   44.00    1.60
   2   6   2   47.30    1.69
  -2   6  -2   47.81    1.89
  -2   6  -2   47.93    2.07
   2   6   2   47.08    1.31
  -2   6  -2   45.37    1.42
  -4  -6  -2   11.35    0.93
   4  -6   2   12.90    0.88
   4  -6   2   10.87    0.92
   4  -6   2   11.98    0.75
  -4  -6  -2   10.89    0.39
  -4   6  -2   10.32    0.63
   4   6   2    9.26    1.04
   4   6   2   10.70    0.44
  -4   6  -2   11.30    0.90
  -4   6  -2   10.54    0.93
  -4   6  -2    9.07    0.70
   4   6   2   10.55    0.69
   6  -6   2    0.69    0.34
  -6  -6  -2    0.67    0.34
   6  -6   2    0.90    0.32
   6  -6   2    0.94    0.37
   6   6   2    0.87    0.42
  -6   6  -2    0.78    0.29
  -6   6  -2    0.88    0.32
  -6   6  -2    0.61    0.33
  -6   6  -2    1.24    0.44
   8  -6   2   21.55    1.12
   8  -6   2   23.98    1.36
   8  -6   2   22.43    1.38
  -8  -6  -2   21.43    1.33
  -8   6  -2   20.53    1.28
  -8   6  -2   22.83    1.17
   8   6   2   21.78    1.42
  -8   6  -2   24.46    1.11
  -8   6  -2   24.77    1.38
 -10  -6  -2    8.11    0.90
  10  -6   2    6.44    0.73
  10  -6   2    5.10    0.75
  10  -6   2    8.10    0.94
  10   6   2    7.53    0.97
 -10   6  -2    7.79    0.86
 -10   6  -2    7.67    0.74
 -10   6  -2    6.31    0.81
 -10   6  -2    7.06    0.78
  12  -6   2   14.08    1.11
  12  -6   2   11.90    0.90
 -12  -6  -2   14.26    1.08
  12   6   2   12.93    0.49
 -12   6  -2   13.49    0.90
  12   6   2   12.60    1.10
 -12   6  -2   14.45    1.12
 -12   6  -2   14.34    0.99
  14  -6   2    7.24    0.85
 -14  -6  -2    7.09    0.91
 -14   6  -2    5.87    0.75
 -14   6  -2    6.70    0.76
 -14   6  -2    7.78    0.94
  14   6   2    7.00    0.41
  14   6   2    6.33    0.94
 -14   6  -2    7.07    0.33
 -16  -6  -2   10.09    1.08
  16  -6   2    8.32    0.93
 -16   6  -2    9.75    0.52
  16   6   2   10.98    1.22
 -16   6  -2   11.44    0.97
 -18  -6  -2    7.79    1.00
  18  -6   2    9.20    1.02
 -18   6  -2    9.54    0.58
 -18   6  -2    9.42    1.03
  18   6   2    7.43    1.05
  20  -6   2    2.73    0.63
  20   6   2    2.97    0.72
 -20   6  -2    1.65    0.35
  15  -7  -2    1.91    0.51
 -15   7   2    0.71    0.47
  15   7  -2    2.01    0.62
  13  -7  -2    5.51    0.73
 -13   7   2    6.19    0.68
 -13   7   2    4.64    0.71
  13   7  -2    4.41    0.87
  11  -7  -2    1.26    0.41
 -11  -7   2    0.75    0.29
 -11   7   2    0.97    0.41
  11   7  -2    0.84    0.51
   9  -7  -2    6.28    0.71
  -9  -7   2    7.55    0.53
  -9   7   2    6.14    0.71
   9   7  -2    6.35    0.98
  -7  -7   2    1.73    0.56
  -7  -7   2    1.81    0.33
   7  -7  -2    1.50    0.50
   7  -7  -2    1.52    0.39
  -7   7   2    1.12    0.35
   7   7  -2    1.89    0.61
  -5  -7   2    9.63    1.11
   5  -7  -2   10.17    0.68
   5  -7  -2    8.71    1.04
  -5  -7   2    9.65    0.61
  -5   7   2   10.79    0.74
  -5   7   2    8.92    0.95
   5   7  -2    9.22    1.16
   3  -7  -2    1.39    0.47
  -3  -7   2    1.23    0.31
   3  -7  -2    0.93    0.29
  -3  -7   2    0.54    0.42
  -3   7   2    1.29    0.33
   3   7  -2    1.88    0.47
  -3   7   2    1.16    0.38
   3   7  -2    0.96    0.48
   3   7  -2    1.04    0.31
   1  -7  -2    9.79    1.11
   1  -7  -2    8.62    0.54
   1  -7  -2    8.16    0.63
  -1  -7   2    8.38    0.63
  -1  -7   2    9.95    1.14
   1   7  -2    7.58    1.04
  -1   7   2    8.95    1.12
   1   7  -2    9.84    0.83
  -1   7   2    8.17    0.57
  -1   7   2    8.83    0.79
   1   7  -2    8.94    0.66
   1  -7   2    8.35    1.06
  -1  -7  -2    6.68    0.44
   1  -7   2    6.82    0.66
  -1  -7  -2    7.90    0.98
  -1  -7  -2    8.47    0.57
   1   7   2    7.95    1.05
  -1   7  -2    7.59    1.01
  -1   7  -2    7.49    0.72
   1   7   2    8.42    0.53
  -1   7  -2    8.13    0.90
   3  -7   2   10.23    1.10
   3  -7   2   11.06    0.76
  -3  -7  -2   11.38    1.03
   3   7   2   10.89    1.26
  -3   7  -2   10.78    0.95
  -3   7  -2   10.55    0.79
  -3   7  -2   10.53    1.16
   3   7   2   11.28    0.56
  -5  -7  -2   19.33    1.35
   5  -7   2   22.98    1.12
   5  -7   2   19.70    1.39
  -5   7  -2   20.73    1.39
   5   7   2   19.95    0.72
   5   7   2   18.01    1.41
  -5   7  -2   19.75    1.11
  -5   7  -2   19.45    1.29
  -7  -7  -2    6.93    0.96
   7  -7   2    4.91    0.65
   7  -7   2    4.40    0.75
  -7   7  -2    5.71    0.86
   7   7   2    4.81    0.82
   7   7   2    4.75    0.30
  -7   7  -2    3.33    0.64
  -7   7  -2    4.52    0.52
  -7   7  -2    5.22    0.69
  -9  -7  -2    0.69    0.43
   9  -7   2    0.34    0.32
  -9   7  -2    0.72    0.41
  -9   7  -2    0.39    0.36
   9   7   2    0.66    0.48
  -9   7  -2    0.04    0.31
  -9   7  -2    0.96    0.34
 -11  -7  -2   16.66    1.29
  11  -7   2   16.99    1.11
  11   7   2   19.55    1.50
 -11   7  -2   20.70    1.23
  13  -7   2   12.01    0.98
 -13   7  -2   13.24    1.05
  13   7   2   10.76    1.29
  15  -7   2   12.20    1.02
 -15   7  -2   11.81    1.16
  15   7   2   12.94    1.42
   8  -8  -2    0.51    0.33
   8   8  -2    1.01    0.54
  -8   8   2    0.62    0.38
   6  -8  -2    2.03    0.44
  -6   8   2    1.59    0.44
   6   8  -2    1.16    0.35
   6   8  -2    2.41    0.69
   4  -8  -2    1.12    0.35
   4   8  -2    0.86    0.33
  -4   8   2    0.79    0.32
   4   8  -2    0.97    0.56
  -2  -8   2    6.19    0.63
   2   8  -2    5.86    0.67
  -2   8   2    6.41    0.65
   2   8  -2    6.08    1.02
   0  -8   2   -0.04    0.26
   0   8   2    0.08    0.42
   0   8  -2    0.21    0.37
   0   8   2    0.91    0.29
   0   8  -2    0.89    0.52
   0   8  -2    0.40    0.33
   2  -8   2    1.92    0.45
   2   8   2    1.76    0.34
   2   8   2    2.12    0.68
  -2   8  -2    1.22    0.41
  -2   8  -2    1.53    0.59
   4  -8   2    3.23    0.55
  -4   8  -2    4.32    0.64
  -4   8  -2    3.70    0.82
   4   8   2    2.91    0.37
   4   8   2    3.62    0.84
   6  -8   2    6.97    0.79
   6   8   2    7.43    0.46
  -6   8  -2    6.89    0.85
   6   8   2    7.19    1.10
  -6   8  -2    7.58    1.09
   8  -8   2    1.55    0.46
  -8   8  -2    1.19    0.48
  -8   8  -2    0.37    0.48
   8   8   2    1.21    0.59
   8   8   2    1.64    0.24
 -30   0   3    2.92    0.64
 -28   0   3    3.85    0.72
 -28   0   3    3.25    0.63
 -26   0   3    3.74    0.66
 -26   0   3    3.93    0.66
  26   0  -3    4.10    0.65
  24   0  -3    0.07    0.23
  24   0  -3    0.36    0.29
 -24   0   3   -0.05    0.26
 -24   0   3    0.60    0.38
  24   0  -3   -0.22    0.26
  22   0  -3    0.37    0.27
 -22   0   3   -0.46    0.21
 -22   0   3    0.08    0.27
  22   0  -3    0.04    0.24
  20   0  -3   19.92    1.07
 -20   0   3   19.66    1.10
  20   0  -3   19.64    1.15
 -20   0   3   19.76    1.19
  20   0  -3   20.61    1.05
  20   0  -3   20.25    1.01
 -20   0   3   17.71    1.04
  18   0  -3   28.15    1.34
 -18   0   3   26.79    1.17
 -18   0   3   28.32    1.28
 -18   0   3   26.88    1.21
  18   0  -3   27.43    1.16
  18   0  -3   26.37    1.09
 -18   0   3   26.03    1.34
  18   0  -3   27.03    1.21
  18   0  -3   26.16    1.19
 -16   0   3   -0.26    0.14
  16   0  -3    0.35    0.20
 -16   0   3    0.13    0.20
  16   0  -3    0.01    0.16
 -16   0   3   -0.16    0.17
  16   0  -3    0.38    0.20
  16   0  -3    0.12    0.16
 -16   0   3    0.05    0.19
  16   0  -3    0.12    0.17
 -16   0   3    0.17    0.21
 -14   0   3   18.73    0.89
  14   0  -3   17.15    0.79
 -14   0   3   19.27    0.85
  14   0  -3   17.19    0.93
  14   0  -3   18.28    0.88
 -14   0   3   17.32    0.88
  14   0  -3   18.00    0.89
 -14   0   3   17.72    0.85
 -14   0   3   16.03    0.92
 -12   0   3   17.30    0.80
  12   0  -3   18.22    0.84
 -12   0   3   17.35    0.77
  12   0  -3   16.90    0.81
  12   0  -3   17.40    0.89
 -12   0   3   18.22    0.84
  12   0  -3   17.68    0.81
 -12   0   3   18.59    0.77
  12   0  -3   16.96    0.81
 -12   0   3   16.25    0.88
 -12   0   3   18.21    0.86
 -10   0   3   18.39    0.73
 -10   0   3   19.49    0.84
  10   0  -3   19.67    0.82
 -10   0   3   18.00    0.88
 -10   0   3   18.21    0.79
 -10   0   3   19.32    0.81
  10   0  -3   17.26    0.80
  10   0  -3   18.75    0.81
  10   0  -3   20.22    0.82
  10   0  -3   17.45    0.86
 -10   0   3   19.16    0.83
 -10   0   3   18.32    0.76
  -8   0   3   51.03    1.41
   8   0  -3   49.54    1.47
   8   0  -3   52.71    1.52
  -8   0   3   53.72    1.55
  -8   0   3   53.83    1.70
  -8   0   3   47.87    1.42
   8   0  -3   49.90    1.48
  -8   0   3   52.11    1.52
   8   0  -3   53.28    1.55
  -8   0   3   51.46    1.50
  -8   0   3   52.49    1.49
   8   0  -3   51.16    1.67
  -6   0   3   38.44    1.15
   6   0  -3   36.74    1.26
  -6   0   3   37.00    1.12
   6   0  -3   37.26    1.12
   6   0  -3   35.04    1.09
   6   0  -3   39.27    1.09
  -6   0   3   36.77    1.07
  -6   0   3   37.38    1.27
   6   0  -3   35.69    1.14
  -6   0   3   37.36    1.15
  -6   0   3   35.79    1.11
   6   0  -3   35.59    1.15
  -4   0   3  560.22   11.77
   4   0  -3  531.18   11.75
  -4   0   3  548.88   11.78
  -4   0   3  537.99   11.56
   4   0  -3  546.81   11.78
  -4   0   3  533.35   11.30
  -4   0   3  558.18   13.13
   4   0  -3  544.29   11.30
  -4   0   3  532.46   11.75
   4   0  -3  533.81   11.56
   4   0  -3  554.10   11.80
   2   0  -3    6.51    0.37
  -2   0   3    6.11    0.36
   2   0  -3    5.65    0.38
  -2   0   3    5.93    0.35
   2   0  -3    6.04    0.37
   2   0  -3    5.82    0.34
  -2   0   3    5.95    0.34
  -2   0   3    6.54    0.33
   2   0  -3    5.90    0.35
   2   0  -3    6.44    0.34
  -2   0   3    6.14    0.38
   0   0  -3  121.95    2.67
   0   0  -3  119.88    2.78
   0   0  -3  118.72    2.81
   0   0   3  119.43    2.78
   0   0  -3  119.90    2.73
   0   0   3  117.62    2.74
   0   0   3  119.39    2.81
   0   0  -3  120.93    3.12
   0   0   3  116.34    2.64
   0   0   3  121.86    2.81
   0   0  -3  118.56    2.80
  -2   0  -3   60.09    1.55
   2   0   3   59.09    1.51
  -2   0  -3   57.59    1.43
  -2   0  -3   60.09    1.70
   2   0   3   58.16    1.49
  -2   0  -3   58.95    1.50
  -2   0  -3   58.58    1.49
   4   0   3  512.54   10.59
  -4   0  -3  494.15   10.32
   4   0   3  497.07   11.98
   4   0   3  490.69   10.77
  -4   0  -3  515.99   12.04
   4   0   3  492.09   11.23
   4   0   3  490.93   10.75
  -4   0  -3  494.86   10.57
  -4   0  -3  486.01   11.04
  -4   0  -3  497.89   10.75
   4   0   3  489.15   10.58
  -6   0  -3   63.96    1.60
   6   0   3   60.80    1.66
  -6   0  -3   65.33    1.69
   6   0   3   63.37    1.68
  -6   0  -3   64.82    1.66
   6   0   3   65.28    1.88
   6   0   3   62.61    1.55
  -6   0  -3   61.24    1.67
   6   0   3   63.61    1.85
  -6   0  -3   64.66    1.92
   6   0   3   63.94    1.81
   6   0   3   65.69    1.73
  -6   0  -3   61.54    1.71
   8   0   3   19.06    0.82
  -8   0  -3   20.02    0.76
  -8   0  -3   20.32    0.75
  -8   0  -3   20.47    0.81
   8   0   3   20.30    0.85
   8   0   3   20.57    0.81
   8   0   3   20.08    0.86
   8   0   3   19.89    0.78
  -8   0  -3   21.45    0.74
   8   0   3   21.07    0.78
  -8   0  -3   19.86    0.89
   8   0   3   18.95    0.67
  -8   0  -3   19.60    0.61
  -8   0  -3   20.61    0.74
 -10   0  -3    4.25    0.40
 -10   0  -3    4.61    0.35
  10   0   3    5.44    0.45
  10   0   3    3.92    0.41
 -10   0  -3    4.73    0.43
  10   0   3    4.04    0.32
 -10   0  -3    3.72    0.45
  10   0   3    5.37    0.44
  10   0   3    4.86    0.41
 -10   0  -3    5.18    0.37
  10   0   3    4.72    0.38
 -10   0  -3    4.47    0.42
 -10   0  -3    4.75    0.41
  10   0   3    4.12    0.44
  10   0   3    4.63    0.44
  12   0   3    0.44    0.20
  12   0   3    1.08    0.26
  12   0   3    0.90    0.27
 -12   0  -3    0.43    0.19
 -12   0  -3    1.10    0.24
 -12   0  -3    0.85    0.21
  12   0   3    1.01    0.25
  12   0   3    1.02    0.25
 -12   0  -3    0.39    0.19
  12   0   3    0.59    0.20
  12   0   3    0.56    0.16
  12   0   3    0.96    0.25
 -12   0  -3    0.63    0.18
 -12   0  -3    1.08    0.26
  14   0   3    3.69    0.42
 -14   0  -3    3.78    0.44
 -14   0  -3    3.95    0.42
 -14   0  -3    3.59    0.48
  14   0   3    3.88    0.37
  14   0   3    3.94    0.48
  14   0   3    3.74    0.46
  14   0   3    4.71    0.38
  14   0   3    4.94    0.47
 -14   0  -3    3.76    0.43
 -14   0  -3    4.14    0.48
  14   0   3    5.26    0.55
  14   0   3    4.07    0.45
 -14   0  -3    4.23    0.35
  14   0   3    3.34    0.43
  14   0   3    3.34    0.44
  16   0   3   19.97    0.96
  16   0   3   16.63    0.93
  16   0   3   19.35    0.93
 -16   0  -3   17.49    0.79
 -16   0  -3   19.72    0.90
  16   0   3   18.19    0.98
  16   0   3   19.84    0.99
  16   0   3   19.05    0.94
  16   0   3   19.30    0.91
 -16   0  -3   18.12    0.85
  16   0   3   18.72    0.81
 -16   0  -3   17.79    0.93
 -16   0  -3   18.34    1.01
  16   0   3   18.43    0.77
 -16   0  -3   18.17    0.90
  16   0   3   19.22    0.91
 -18   0  -3   18.45    1.07
  18   0   3   16.81    0.99
 -18   0  -3   19.19    0.96
  18   0   3   16.30    0.88
 -18   0  -3   18.50    1.00
  18   0   3   18.32    0.79
  18   0   3   16.69    0.97
 -18   0  -3   17.57    0.81
  18   0   3   15.70    0.91
  18   0   3   18.39    0.93
 -20   0  -3    3.61    0.43
  20   0   3    4.10    0.60
 -20   0  -3    5.63    0.72
  20   0   3    3.78    0.56
  20   0   3    4.00    0.55
 -20   0  -3    4.08    0.54
 -20   0  -3    3.93    0.55
  20   0   3    3.84    0.52
  20   0   3    4.15    0.45
  22   0   3    1.88    0.43
  22   0   3    2.08    0.34
 -22   0  -3    1.61    0.40
 -22   0  -3    1.80    0.44
  22   0   3    2.47    0.47
  22   0   3    1.77    0.45
 -22   0  -3    2.01    0.48
  22   0   3    1.94    0.41
  24   0   3   28.39    1.39
  24   0   3   28.02    1.11
 -24   0  -3   29.00    1.43
  24   0   3   27.98    1.43
 -24   0  -3   29.35    1.50
  24   0   3   31.81    1.55
 -26   0  -3    3.63    0.62
 -26   0  -3    2.49    0.59
  26   0   3    2.51    0.54
  26   0   3    3.20    0.59
 -28   0  -3   11.96    1.01
  28   0   3   12.13    1.05
  30   0   3   12.41    1.12
 -30   0  -3   10.22    1.05
 -29  -1   3    2.50    0.61
  29  -1  -3    4.08    0.73
 -29   1   3    3.57    0.68
  27  -1  -3    4.91    0.67
 -27  -1   3    4.18    0.69
  27  -1  -3    5.26    0.81
 -27   1   3    4.43    0.76
 -27   1   3    6.13    0.81
  25  -1  -3    9.82    0.98
 -25  -1   3    9.29    0.97
 -25  -1   3   10.81    0.90
  25  -1  -3   11.11    0.80
  25  -1  -3    9.93    0.98
 -25   1   3    9.11    0.99
  25   1  -3    9.94    0.79
 -25   1   3    9.05    0.94
  23  -1  -3    2.30    0.49
 -23  -1   3    1.44    0.43
  23  -1  -3    2.31    0.43
  23  -1  -3    1.90    0.48
 -23  -1   3    2.31    0.51
 -23   1   3    2.22    0.49
 -23   1   3    1.96    0.50
  23   1  -3    1.72    0.34
  23   1  -3    2.66    0.49
  23   1  -3    2.18    0.44
  21  -1  -3    5.98    0.72
  21  -1  -3    5.13    0.57
  21  -1  -3    5.76    0.69
 -21  -1   3    5.14    0.71
 -21  -1   3    4.81    0.67
 -21  -1   3    4.66    0.61
  21   1  -3    5.17    0.61
  21   1  -3    5.95    0.64
  21   1  -3    4.51    0.49
 -21   1   3    5.91    0.73
 -21   1   3    5.53    0.68
 -19  -1   3   69.24    2.28
  19  -1  -3   76.06    2.64
  19  -1  -3   71.81    2.34
 -19  -1   3   69.63    2.34
  19  -1  -3   71.38    2.13
  19  -1  -3   67.50    2.32
 -19  -1   3   69.91    2.56
 -19   1   3   75.21    2.46
  19   1  -3   72.89    2.24
 -19   1   3   71.37    2.29
  19   1  -3   71.95    2.02
 -19   1   3   74.33    2.37
 -19   1   3   69.97    2.22
  19   1  -3   66.70    2.22
  17  -1  -3    5.85    0.63
  17  -1  -3    7.05    0.66
  17  -1  -3    7.10    0.51
  17  -1  -3    6.89    0.69
 -17  -1   3    6.89    0.73
 -17  -1   3    6.03    0.64
 -17  -1   3    6.84    0.59
 -17   1   3    4.68    0.60
  17   1  -3    5.94    0.60
  17   1  -3    6.29    0.61
 -17   1   3    5.08    0.59
  17   1  -3    6.50    0.48
  17   1  -3    6.81    0.68
 -17   1   3    6.46    0.63
 -17   1   3    5.50    0.62
 -17   1   3    6.60    0.66
  17   1  -3    5.91    0.56
  15  -1  -3   42.66    1.53
 -15  -1   3   41.04    1.37
  15  -1  -3   42.39    1.51
 -15  -1   3   40.05    1.45
  15  -1  -3   41.15    1.42
  15  -1  -3   40.66    1.31
  15  -1  -3   42.75    1.68
 -15  -1   3   41.50    1.49
 -15  -1   3   42.22    1.41
 -15  -1   3   41.54    1.65
  15   1  -3   39.46    1.54
  15   1  -3   40.79    1.47
 -15   1   3   42.23    1.32
 -15   1   3   39.49    1.64
  15   1  -3   37.98    1.38
 -15   1   3   43.42    1.52
  15   1  -3   37.61    1.41
  15   1  -3   40.03    1.28
  15   1  -3   41.52    1.46
 -15   1   3   42.24    1.43
 -15   1   3   40.04    1.53
 -15   1   3   40.05    1.47
 -13  -1   3    7.06    0.49
 -13  -1   3    6.70    0.51
 -13  -1   3    7.23    0.51
  13  -1  -3    7.60    0.56
  13  -1  -3    6.71    0.59
 -13  -1   3    7.29    0.56
  13  -1  -3    7.62    0.53
  13  -1  -3    7.32    0.55
 -13  -1   3    7.72    0.61
  13   1  -3    8.60    0.57
 -13   1   3    8.48    0.59
  13   1  -3    8.11    0.58
  13   1  -3    7.14    0.52
  13   1  -3    7.52    0.54
 -13   1   3    6.74    0.55
 -13   1   3    8.07    0.47
 -13   1   3    8.71    0.59
  13   1  -3    8.41    0.49
 -13   1   3    8.27    0.63
 -13   1   3    7.45    0.48
 -13   1   3    7.78    0.53
  13   1  -3    8.20    0.55
  11  -1  -3  150.49    4.28
 -11  -1   3  152.45    3.63
  11  -1  -3  155.70    3.86
 -11  -1   3  148.15    4.23
  11  -1  -3  155.28    3.85
 -11  -1   3  150.83    3.78
  11  -1  -3  153.84    3.67
 -11  -1   3  153.31    3.68
  11  -1  -3  162.24    3.89
 -11  -1   3  148.93    3.81
 -11   1   3  160.39    3.86
 -11   1   3  155.41    3.89
  11   1  -3  159.75    4.21
  11   1  -3  154.32    3.81
  11   1  -3  156.34    3.81
 -11   1   3  145.92    4.24
 -11   1   3  152.36    3.66
 -11   1   3  160.46    3.77
 -11   1   3  158.50    3.57
 -11   1   3  151.98    3.82
 -11   1   3  153.36    3.78
  11   1  -3  156.29    3.57
  11   1  -3  154.69    3.73
  11   1  -3  155.67    3.76
  -9  -1   3    3.77    0.40
   9  -1  -3    3.68    0.44
  -9  -1   3    3.74    0.37
   9  -1  -3    4.52    0.45
   9  -1  -3    4.16    0.43
  -9  -1   3    4.73    0.37
  -9  -1   3    3.66    0.38
  -9  -1   3    3.62    0.38
  -9  -1   3    3.92    0.40
   9  -1  -3    4.62    0.39
  -9  -1   3    4.36    0.42
   9   1  -3    4.06    0.39
   9   1  -3    4.87    0.48
   9   1  -3    5.01    0.46
   9   1  -3    3.88    0.40
   9   1  -3    3.43    0.37
   9   1  -3    3.86    0.32
  -9   1   3    4.56    0.44
  -9   1   3    3.52    0.36
  -9   1   3    3.54    0.42
  -9   1   3    3.22    0.38
  -9   1   3    3.53    0.39
  -9   1   3    4.21    0.29
  -7  -1   3   62.70    1.75
  -7  -1   3   63.17    1.68
  -7  -1   3   67.33    1.75
  -7  -1   3   66.51    1.67
   7  -1  -3   64.93    1.97
  -7  -1   3   58.65    1.93
   7  -1  -3   64.85    1.78
  -7  -1   3   64.59    1.76
   7  -1  -3   62.49    1.75
   7  -1  -3   65.66    1.80
  -7   1   3   64.32    1.66
  -7   1   3   65.88    1.77
  -7   1   3   64.85    1.75
   7   1  -3   62.87    1.91
   7   1  -3   62.37    1.71
   7   1  -3   62.38    1.75
   7   1  -3   63.39    1.76
  -7   1   3   65.02    1.75
  -7   1   3   63.50    1.55
   7   1  -3   62.28    1.62
   7   1  -3   63.71    1.72
  -7   1   3   60.10    1.76
  -5  -1   3  174.76    4.07
  -5  -1   3  175.28    3.96
  -5  -1   3  172.73    4.04
   5  -1  -3  179.85    4.08
   5  -1  -3  174.74    4.52
  -5  -1   3  179.26    4.08
  -5  -1   3  173.83    3.88
   5  -1  -3  172.89    4.04
   5  -1  -3  183.57    4.08
   5   1  -3  173.68    4.02
   5   1  -3  174.86    4.07
   5   1  -3  173.57    3.85
  -5   1   3  171.51    4.06
  -5   1   3  173.87    3.99
   5   1  -3  168.94    4.05
  -5   1   3  172.70    4.49
  -5   1   3  176.91    3.85
  -5   1   3  174.20    4.05
  -5   1   3  175.46    4.04
   5   1  -3  176.15    4.50
  -3  -1   3   82.84    2.06
   3  -1  -3   79.39    2.23
  -3  -1   3   79.83    2.04
   3  -1  -3   79.45    2.01
   3  -1  -3   81.18    2.02
   3  -1  -3   80.61    1.99
  -3  -1   3   82.35    2.28
  -3  -1   3   79.92    1.92
  -3  -1   3   81.31    1.97
  -3  -1   3   79.82    2.01
  -3   1   3   81.84    2.21
   3   1  -3   80.74    1.99
   3   1  -3   81.25    1.91
   3   1  -3   79.36    2.25
   3   1  -3   80.81    2.05
   3   1  -3   79.83    2.03
  -3   1   3   78.28    1.85
   3   1  -3   80.48    1.90
  -3   1   3   79.72    2.00
  -3   1   3   83.08    2.01
  -3   1   3   77.03    1.96
  -3   1   3   80.18    1.97
   3   1  -3   83.22    2.01
   1  -1  -3   45.06    1.18
   1  -1  -3   48.77    1.18
   1  -1  -3   42.75    1.30
  -1  -1   3   44.52    1.25
  -1  -1   3   44.24    1.21
  -1  -1   3   46.51    1.26
  -1  -1   3   42.37    1.14
  -1  -1   3   44.75    1.39
   1  -1  -3   42.78    1.15
   1  -1  -3   43.95    1.18
  -1  -1   3   44.67    1.19
  -1   1   3   41.93    1.14
  -1   1   3   41.46    1.15
  -1   1   3   43.56    1.17
  -1   1   3   41.26    1.13
  -1   1   3   41.69    1.16
  -1   1   3   41.35    1.03
   1   1  -3   42.54    1.36
  -1   1   3   42.51    1.26
   1   1  -3   42.40    1.22
   1   1  -3   41.23    1.13
   1   1  -3   44.66    1.26
   1   1  -3   42.38    1.19
   1   1  -3   43.53    1.21
  -1  -1  -3   26.90    0.86
   1  -1   3   24.47    0.81
   1  -1   3   25.44    0.84
   1  -1   3   25.88    0.95
  -1  -1  -3   24.91    0.75
   1  -1   3   26.26    0.88
  -1  -1  -3   25.53    0.73
  -1  -1  -3   25.75    0.77
   1  -1   3   26.36    0.79
  -1  -1  -3   24.95    0.77
  -1  -1  -3   27.45    0.77
  -1  -1  -3   25.59    0.71
   1  -1   3   25.26    0.81
   1   1   3   26.97    0.78
  -1   1  -3   24.90    0.78
   1   1   3   25.80    0.75
  -1   1  -3   26.97    0.84
   1   1   3   25.87    0.76
   1   1   3   26.05    0.75
  -1   1  -3   25.22    0.95
  -1   1  -3   25.82    0.85
  -1   1  -3   27.77    0.89
  -1   1  -3   26.96    0.84
   1   1   3   26.00    0.80
   1   1   3   25.67    0.74
   1   1   3   26.16    0.86
   3  -1   3   22.18    0.77
   3  -1   3   22.32    0.79
   3  -1   3   22.11    0.72
  -3  -1  -3   21.27    0.69
  -3  -1  -3   22.06    0.70
   3  -1   3   21.19    0.72
  -3  -1  -3   21.08    0.64
  -3  -1  -3   21.89    0.63
   3  -1   3   23.13    0.91
  -3  -1  -3   22.37    0.81
   3  -1   3   22.24    0.73
  -3  -1  -3   21.16    0.75
  -3  -1  -3   23.08    0.69
  -3  -1  -3   21.78    0.68
   3   1   3   23.16    0.82
  -3   1  -3   22.23    0.82
  -3   1  -3   23.52    0.78
  -3   1  -3   23.15    0.80
   3   1   3   23.22    0.71
  -3   1  -3   22.73    0.74
  -3   1  -3   23.86    0.79
  -3   1  -3   23.05    0.90
   3   1   3   22.99    0.68
   3   1   3   22.67    0.69
   3   1   3   22.51    0.68
   3   1   3   23.58    0.68
  -3   1  -3   21.88    0.73
   3   1   3   23.31    0.71
   5  -1   3   24.90    0.89
  -5  -1  -3   26.25    0.95
   5  -1   3   27.41    0.95
  -5  -1  -3   25.92    0.80
  -5  -1  -3   25.39    0.79
   5  -1   3   25.41    0.90
  -5  -1  -3   25.03    0.71
   5  -1   3   25.18    1.02
   5  -1   3   25.30    0.84
  -5  -1  -3   25.98    0.89
   5  -1   3   25.44    0.83
  -5  -1  -3   27.07    0.84
   5   1   3   26.29    0.78
  -5   1  -3   25.96    0.84
  -5   1  -3   26.99    0.86
   5   1   3   25.57    0.81
  -5   1  -3   26.87    0.95
  -5   1  -3   26.81    0.90
   5   1   3   27.65    0.82
  -5   1  -3   26.87    0.88
  -5   1  -3   25.99    0.83
   5   1   3   25.99    0.86
   5   1   3   27.57    0.97
  -5   1  -3   25.66    0.90
  -5   1  -3   24.95    1.03
   5   1   3   26.92    0.79
  -5   1  -3   27.45    0.94
   5   1   3   26.84    0.78
   5   1   3   27.85    0.81
   7  -1   3   73.73    1.97
   7  -1   3   68.81    1.95
  -7  -1  -3   71.67    1.77
   7  -1   3   66.50    2.13
   7  -1   3   71.81    1.90
   7  -1   3   69.11    2.11
  -7  -1  -3   74.92    1.79
  -7  -1  -3   69.14    1.97
   7  -1   3   70.81    1.92
  -7  -1  -3   73.50    2.02
  -7  -1  -3   69.31    1.66
  -7  -1  -3   71.11    1.82
   7   1   3   65.51    1.90
   7   1   3   68.65    1.78
   7   1   3   69.28    1.74
   7   1   3   67.51    1.85
  -7   1  -3   71.24    1.90
   7   1   3   67.67    1.74
  -7   1  -3   68.64    1.95
   7   1   3   68.45    1.88
   7   1   3   68.66    2.01
   7   1   3   68.88    1.75
  -7   1  -3   69.66    1.89
   7   1   3   69.25    1.88
  -7   1  -3   66.42    1.80
  -7   1  -3   71.18    1.96
  -7   1  -3   68.47    1.86
   9  -1   3  198.31    4.70
   9  -1   3  189.80    4.51
  -9  -1  -3  194.84    5.00
   9  -1   3  192.49    5.08
  -9  -1  -3  187.45    4.47
  -9  -1  -3  191.21    4.94
  -9  -1  -3  193.86    4.38
   9  -1   3  196.69    4.73
  -9  -1  -3  193.43    4.25
   9  -1   3  198.55    4.65
   9  -1   3  191.82    4.57
  -9  -1  -3  188.90    4.42
  -9   1  -3  195.43    4.70
  -9   1  -3  190.34    4.38
  -9   1  -3  194.05    4.65
   9   1   3  190.93    4.51
  -9   1  -3  194.28    4.52
   9   1   3  200.18    4.45
  -9   1  -3  188.13    4.64
   9   1   3  195.14    4.81
   9   1   3  189.04    4.37
   9   1   3  188.79    4.39
   9   1   3  192.21    4.83
   9   1   3  180.61    4.73
  -9   1  -3  191.82    4.57
   9   1   3  194.47    4.83
 -11  -1  -3  115.43    2.74
  11  -1   3  120.81    3.07
  11  -1   3  111.65    3.01
 -11  -1  -3  117.43    3.24
  11  -1   3  116.14    3.11
 -11  -1  -3  115.95    3.29
 -11  -1  -3  114.24    2.88
 -11  -1  -3  115.74    2.95
  11  -1   3  115.58    2.99
 -11  -1  -3  119.28    2.74
  11  -1   3  114.60    3.35
  11  -1   3  114.93    3.07
  11   1   3  120.12    3.14
  11   1   3  121.27    2.92
 -11   1  -3  115.81    3.06
 -11   1  -3  116.47    2.91
 -11   1  -3  115.75    2.98
  11   1   3  111.37    3.01
  11   1   3  113.50    2.86
  11   1   3  114.55    2.84
  11   1   3  117.21    2.87
 -11   1  -3  114.99    3.02
  11   1   3  120.81    3.12
  11   1   3  115.42    3.00
  11   1   3  114.77    3.19
 -11   1  -3  119.23    3.11
  13  -1   3    2.34    0.39
 -13  -1  -3    2.33    0.28
 -13  -1  -3    1.82    0.20
  13  -1   3    2.31    0.32
 -13  -1  -3    1.80    0.31
  13  -1   3    2.26    0.37
 -13  -1  -3    1.80    0.29
 -13  -1  -3    1.75    0.32
  13  -1   3    2.33    0.39
  13  -1   3    2.19    0.35
  13   1   3    2.08    0.29
 -13   1  -3    2.33    0.38
  13   1   3    2.26    0.30
  13   1   3    1.81    0.29
  13   1   3    2.17    0.29
 -13   1  -3    2.02    0.32
  13   1   3    1.81    0.29
 -13   1  -3    1.45    0.28
  13   1   3    2.05    0.38
 -13   1  -3    2.17    0.36
 -13   1  -3    2.00    0.36
  13   1   3    2.02    0.34
  13   1   3    1.62    0.29
 -13   1  -3    2.20    0.40
  15  -1   3    3.80    0.51
  15  -1   3    4.09    0.49
 -15  -1  -3    3.44    0.27
 -15  -1  -3    3.61    0.45
 -15  -1  -3    3.91    0.43
  15  -1   3    3.13    0.42
 -15  -1  -3    2.99    0.41
  15  -1   3    2.76    0.36
  15  -1   3    2.76    0.41
  15  -1   3    4.11    0.50
  15  -1   3    2.98    0.48
 -15   1  -3    3.49    0.45
 -15   1  -3    3.22    0.42
  15   1   3    3.54    0.52
 -15   1  -3    3.70    0.45
 -15   1  -3    2.81    0.47
  15   1   3    3.21    0.38
  15   1   3    3.99    0.45
  15   1   3    3.75    0.44
  15   1   3    4.03    0.49
  15   1   3    3.38    0.40
 -15   1  -3    3.43    0.45
 -15   1  -3    3.30    0.49
  15   1   3    2.98    0.34
  17  -1   3    2.19    0.40
  17  -1   3    1.78    0.39
 -17  -1  -3    1.66    0.32
 -17  -1  -3    1.77    0.36
 -17  -1  -3    1.98    0.37
  17  -1   3    2.07    0.37
  17  -1   3    1.39    0.30
  17  -1   3    1.28    0.33
  17  -1   3    2.84    0.50
  17  -1   3    1.38    0.36
  17   1   3    1.76    0.33
 -17   1  -3    1.55    0.33
  17   1   3    2.47    0.41
  17   1   3    2.27    0.36
  17   1   3    1.55    0.27
  17   1   3    2.17    0.36
 -17   1  -3    1.75    0.37
  17   1   3    1.90    0.40
 -17   1  -3    1.62    0.39
  17   1   3    2.35    0.39
 -17   1  -3    2.27    0.43
 -17   1  -3    2.04    0.40
 -17   1  -3    1.54    0.33
 -19  -1  -3    0.50    0.28
 -19  -1  -3    0.27    0.27
  19  -1   3    0.72    0.32
  19  -1   3    0.35    0.26
 -19  -1  -3    0.68    0.30
  19  -1   3    0.74    0.29
  19  -1   3    0.64    0.28
  19  -1   3    0.78    0.33
 -19   1  -3    0.53    0.28
  19   1   3    0.65    0.22
 -19   1  -3    0.70    0.27
  19   1   3    1.22    0.36
  19   1   3    0.51    0.24
  19   1   3    0.78    0.30
 -19   1  -3    0.93    0.35
  19   1   3    0.84    0.28
  19   1   3    1.02    0.36
 -19   1  -3    1.29    0.37
  21  -1   3    3.97    0.55
 -21  -1  -3    4.19    0.57
  21  -1   3    3.58    0.55
  21  -1   3    3.80    0.56
  21  -1   3    4.25    0.61
 -21  -1  -3    3.66    0.51
 -21  -1  -3    4.35    0.62
  21   1   3    3.80    0.50
  21   1   3    4.41    0.66
 -21   1  -3    4.80    0.64
  21   1   3    4.50    0.61
 -21   1  -3    3.60    0.58
 -21   1  -3    4.32    0.55
  23  -1   3    1.53    0.40
  23  -1   3    0.72    0.32
  23  -1   3    1.40    0.43
 -23  -1  -3    1.51    0.39
  23  -1   3    1.40    0.40
 -23  -1  -3    1.56    0.44
  23   1   3    0.95    0.36
 -23   1  -3    1.13    0.41
  23   1   3    1.89    0.40
  23   1   3    1.90    0.49
 -23   1  -3    1.31    0.41
 -23   1  -3    1.09    0.34
  25  -1   3    7.52    0.84
 -25  -1  -3    9.45    0.81
  25  -1   3    8.17    0.86
  25  -1   3    8.23    0.88
  25  -1   3    7.79    0.86
 -25   1  -3    7.60    0.84
  25   1   3    8.09    0.88
  25   1   3    8.20    0.71
 -25   1  -3    8.83    0.96
  25   1   3    6.49    0.85
 -27  -1  -3    1.63    0.48
  27  -1   3    2.20    0.52
 -27   1  -3    2.30    0.60
  27   1   3    1.38    0.50
 -27   1  -3    1.96    0.52
 -29  -1  -3    8.35    0.92
  29   1   3    8.54    1.07
 -29   1  -3    7.39    0.93
 -30  -2   3    5.72    0.83
  30  -2  -3    7.66    1.02
 -30   2   3    7.02    0.94
  28  -2  -3    7.95    0.98
 -28  -2   3    6.77    0.85
 -28   2   3    5.90    0.86
 -26  -2   3    0.65    0.39
  26  -2  -3    1.13    0.47
  26   2  -3    0.85    0.16
 -26   2   3    0.86    0.44
  24  -2  -3    1.70    0.48
 -24  -2   3    1.36    0.44
  24  -2  -3    2.60    0.57
  24   2  -3    1.68    0.23
  24   2  -3    1.52    0.39
 -24   2   3    1.57    0.48
 -24   2   3    2.73    0.59
  22  -2  -3   16.84    1.09
 -22  -2   3   17.01    1.07
 -22  -2   3   16.30    1.13
  22  -2  -3   18.86    1.13
  22  -2  -3   19.85    0.93
 -22  -2   3   17.48    1.05
 -22   2   3   15.91    1.12
  22   2  -3   19.03    1.03
  22   2  -3   16.79    0.67
 -22   2   3   20.27    1.18
 -20  -2   3    4.31    0.58
 -20  -2   3    4.90    0.63
  20  -2  -3    3.26    0.54
 -20  -2   3    4.67    0.65
  20  -2  -3    4.66    0.65
  20  -2  -3    4.95    0.50
 -20   2   3    3.38    0.54
 -20   2   3    5.64    0.70
 -20   2   3    3.94    0.61
  20   2  -3    6.45    0.65
 -20   2   3    4.39    0.57
  20   2  -3    5.18    0.36
  18  -2  -3   13.40    0.68
  18  -2  -3   12.73    0.89
 -18  -2   3   14.27    0.88
 -18  -2   3   14.05    0.95
 -18  -2   3   12.78    0.81
  18  -2  -3   14.90    0.92
  18   2  -3   14.27    0.59
  18   2  -3   13.90    0.78
  18   2  -3   14.04    0.80
 -18   2   3   16.01    0.95
 -18   2   3   14.27    0.83
 -18   2   3   14.01    0.88
 -18   2   3   14.46    0.95
  16  -2  -3   33.04    1.09
 -16  -2   3   33.37    1.32
 -16  -2   3   31.68    1.26
 -16  -2   3   31.09    1.42
  16  -2  -3   34.84    1.54
  16  -2  -3   33.50    1.37
  16  -2  -3   33.21    1.37
 -16   2   3   30.85    1.32
  16   2  -3   33.42    0.99
  16   2  -3   29.97    1.17
  16   2  -3   32.88    1.28
 -16   2   3   32.32    1.08
 -16   2   3   30.55    1.37
  16   2  -3   32.35    1.25
 -16   2   3   31.99    1.25
 -16   2   3   31.53    1.33
  14  -2  -3   24.29    1.22
  14  -2  -3   24.82    0.84
 -14  -2   3   23.88    1.03
  14  -2  -3   22.53    1.07
 -14  -2   3   23.53    0.90
  14  -2  -3   25.23    1.11
 -14  -2   3   22.71    1.12
 -14  -2   3   24.56    1.02
  14   2  -3   24.34    0.96
 -14   2   3   24.68    1.10
 -14   2   3   22.54    1.08
 -14   2   3   25.44    0.85
  14   2  -3   23.64    0.76
  14   2  -3   24.87    1.01
  14   2  -3   24.37    1.01
 -14   2   3   24.18    1.08
  14   2  -3   24.21    0.78
 -14   2   3   25.15    1.02
  12  -2  -3   35.39    1.50
  12  -2  -3   38.96    1.38
 -12  -2   3   37.41    1.29
 -12  -2   3   36.95    1.31
 -12  -2   3   37.05    1.17
 -12  -2   3   34.40    1.42
  12  -2  -3   37.89    1.38
 -12   2   3   36.53    1.34
 -12   2   3   39.25    1.37
 -12   2   3   39.20    1.07
  12   2  -3   39.39    1.31
 -12   2   3   38.92    1.27
 -12   2   3   37.85    1.10
  12   2  -3   39.51    1.31
  12   2  -3   36.62    1.23
 -12   2   3   38.80    1.50
  12   2  -3   41.47    1.38
 -12   2   3   39.70    1.39
  12   2  -3   38.92    1.04
  12   2  -3   37.17    1.05
 -10  -2   3  137.23    3.41
  10  -2  -3  130.70    3.84
  10  -2  -3  137.84    3.46
 -10  -2   3  137.75    3.21
 -10  -2   3  138.69    3.38
  10  -2  -3  138.63    3.48
 -10  -2   3  134.81    3.79
 -10   2   3  135.30    3.20
  10   2  -3  139.32    3.67
  10   2  -3  136.11    3.37
 -10   2   3  136.98    3.24
 -10   2   3  136.27    3.80
 -10   2   3  133.30    3.48
 -10   2   3  136.77    3.43
  10   2  -3  137.87    3.38
 -10   2   3  136.74    3.43
  10   2  -3  134.69    3.31
 -10   2   3  133.36    3.03
  10   2  -3  136.82    3.05
  10   2  -3  138.44    3.02
 -10   2   3  136.50    3.43
   8  -2  -3   54.13    1.60
  -8  -2   3   53.67    1.42
  -8  -2   3   54.82    1.56
   8  -2  -3   50.35    1.74
  -8  -2   3   52.20    1.52
  -8  -2   3   52.22    1.54
  -8  -2   3   54.87    1.74
   8  -2  -3   50.61    1.56
  -8   2   3   51.77    1.42
  -8   2   3   51.14    1.54
  -8   2   3   52.83    1.60
   8   2  -3   51.26    1.31
  -8   2   3   54.20    1.57
   8   2  -3   53.97    1.29
  -8   2   3   51.52    1.21
   8   2  -3   50.16    1.46
   8   2  -3   51.76    1.52
  -8   2   3   51.51    1.56
  -8   2   3   52.15    1.70
   8   2  -3   52.11    1.62
   8   2  -3   51.66    1.52
  -6  -2   3  150.12    3.53
  -6  -2   3  150.43    3.53
   6  -2  -3  143.39    3.92
  -6  -2   3  150.40    3.36
   6  -2  -3  149.40    3.55
   6  -2  -3  144.10    3.52
  -6  -2   3  145.87    3.91
   6  -2  -3  147.64    3.52
  -6  -2   3  144.65    3.48
   6   2  -3  147.64    3.20
   6   2  -3  153.69    3.84
  -6   2   3  146.31    3.85
  -6   2   3  144.52    3.24
  -6   2   3  148.40    3.76
   6   2  -3  145.55    3.21
   6   2  -3  139.55    3.47
   6   2  -3  149.33    3.50
   6   2  -3  142.75    3.43
  -6   2   3  144.31    3.48
  -6   2   3  140.14    3.51
  -6   2   3  145.96    3.48
  -6   2   3  145.78    3.47
  -4  -2   3  238.91    5.63
  -4  -2   3  246.68    6.32
   4  -2  -3  247.01    5.63
   4  -2  -3  245.32    5.91
  -4  -2   3  243.59    5.66
   4  -2  -3  251.26    5.65
   4  -2  -3  250.24    5.64
  -4  -2   3  248.87    5.49
  -4  -2   3  250.88    5.68
   4  -2  -3  256.60    6.29
  -4   2   3  259.70    6.20
   4   2  -3  250.09    5.61
  -4   2   3  251.51    5.66
   4   2  -3  249.19    5.32
  -4   2   3  247.49    5.22
  -4   2   3  254.12    6.00
   4   2  -3  259.37    5.31
  -4   2   3  254.32    5.55
   4   2  -3  257.06    6.27
   4   2  -3  247.81    5.65
  -4   2   3  244.35    5.58
   4   2  -3  249.33    5.67
  -4   2   3  250.45    5.62
  -4   2   3  250.73    5.61
   2  -2  -3   63.44    1.81
   2  -2  -3   62.16    1.65
   2  -2  -3   65.92    1.69
  -2  -2   3   67.64    1.79
  -2  -2   3   63.37    1.64
  -2  -2   3   64.22    1.76
   2  -2  -3   68.09    1.87
  -2  -2   3   64.89    1.66
  -2  -2   3   63.52    1.97
  -2  -2   3   63.15    1.73
   2  -2  -3   65.42    1.66
   2  -2  -3   65.47    1.84
   2  -2  -3   63.62    1.67
   2   2  -3   68.33    1.60
  -2   2   3   67.72    1.48
  -2   2   3   68.19    1.67
  -2   2   3   65.86    1.63
  -2   2   3   67.46    1.86
   2   2  -3   68.32    1.79
   2   2  -3   65.32    1.74
  -2   2   3   66.70    1.69
  -2   2   3   65.15    1.65
  -2   2   3   67.75    1.76
   2   2  -3   65.47    1.59
  -2   2   3   69.82    1.66
   2   2  -3   67.37    1.94
   2   2  -3   66.53    1.72
   0  -2  -3  148.12    3.56
   0  -2  -3  135.09    3.18
   0  -2  -3  139.93    3.48
   0  -2   3  135.81    3.75
   0  -2  -3  141.31    3.38
   0  -2  -3  140.31    3.18
   0  -2  -3  139.87    3.20
   0  -2   3  139.68    3.35
   0  -2  -3  143.29    3.42
   0  -2   3  140.49    3.18
   0  -2   3  140.71    3.38
   0  -2  -3  141.06    3.20
   0  -2   3  136.00    3.56
   0   2  -3  147.78    3.16
   0   2   3  140.72    3.16
   0   2   3  144.69    3.50
   0   2   3  142.03    3.12
   0   2  -3  141.27    3.73
   0   2   3  142.31    3.11
   0   2  -3  134.85    3.12
   0   2  -3  138.32    3.32
   0   2  -3  142.08    3.39
   0   2   3  139.07    3.38
   0   2  -3  143.48    3.36
  -2  -2  -3   48.04    1.20
  -2  -2  -3   47.43    1.40
  -2  -2  -3   50.11    1.33
   2  -2   3   47.02    1.59
   2  -2   3   47.93    1.31
  -2  -2  -3   45.97    1.19
  -2  -2  -3   48.09    1.22
  -2  -2  -3   47.80    1.41
   2  -2   3   47.74    1.44
   2  -2   3   48.09    1.49
  -2  -2  -3   47.29    1.21
   2  -2   3   46.86    1.40
   2   2   3   48.99    1.27
  -2   2  -3   49.65    1.30
  -2   2  -3   47.55    1.41
  -2   2  -3   49.45    1.52
  -2   2  -3   48.89    1.58
   2   2   3   49.50    1.16
  -2   2  -3   49.61    1.39
  -2   2  -3   48.74    1.28
  -2   2  -3   49.60    1.39
   2   2   3   48.54    1.14
   2   2   3   50.28    1.43
  -2   2  -3   48.28    1.44
  -4  -2  -3  120.26    2.64
   4  -2   3  112.13    3.24
  -4  -2  -3  117.37    2.64
   4  -2   3  117.98    3.02
  -4  -2  -3  119.73    2.63
  -4  -2  -3  121.39    2.90
  -4  -2  -3  114.83    2.61
   4  -2   3  112.86    2.93
   4  -2   3  115.60    2.90
  -4  -2  -3  118.11    2.93
  -4  -2  -3  130.06    3.03
  -4  -2  -3  117.20    2.74
  -4   2  -3  111.96    2.71
   4   2   3  107.16    3.12
  -4   2  -3  116.67    3.02
  -4   2  -3  111.94    3.22
  -4   2  -3  114.59    2.70
   4   2   3  114.01    2.55
  -4   2  -3  116.41    2.87
  -4   2  -3  111.19    3.03
   4   2   3  113.23    2.54
   4   2   3  115.83    2.99
   4   2   3  115.82    2.52
  -4   2  -3  112.91    2.93
  -4   2  -3  118.20    2.84
  -4   2  -3  111.50    2.99
   4   2   3  116.55    2.54
   4   2   3  118.06    2.75
  -4   2  -3  111.12    2.85
   6  -2   3  125.56    3.25
   6  -2   3  120.78    3.53
   6  -2   3  127.54    3.15
   6  -2   3  124.37    3.19
  -6  -2  -3  124.29    3.17
  -6  -2  -3  127.65    3.16
  -6  -2  -3  126.07    2.88
  -6  -2  -3  128.27    2.86
  -6  -2  -3  125.68    2.88
  -6  -2  -3  126.72    2.85
   6   2   3  128.74    2.77
   6   2   3  124.21    2.78
   6   2   3  126.32    3.28
  -6   2  -3  127.47    3.31
  -6   2  -3  124.81    3.20
   6   2   3  128.28    2.75
  -6   2  -3  123.58    2.97
   6   2   3  127.05    2.79
   6   2   3  123.69    3.03
   6   2   3  123.91    3.39
  -6   2  -3  124.76    3.12
  -6   2  -3  124.07    3.25
   6   2   3  124.26    2.77
  -6   2  -3  120.19    3.10
  -6   2  -3  121.14    3.16
  -6   2  -3  127.99    2.96
  -8  -2  -3    8.70    0.41
  -8  -2  -3    8.84    0.46
   8  -2   3    9.12    0.53
  -8  -2  -3    8.85    0.44
   8  -2   3   10.02    0.62
   8  -2   3    9.28    0.59
   8  -2   3    9.26    0.63
  -8  -2  -3    8.91    0.42
  -8  -2  -3    9.15    0.41
  -8   2  -3   10.51    0.65
   8   2   3    9.68    0.62
  -8   2  -3    9.04    0.57
   8   2   3    9.10    0.36
   8   2   3    8.85    0.60
   8   2   3    8.74    0.53
  -8   2  -3    9.09    0.42
   8   2   3    9.07    0.41
  -8   2  -3   10.11    0.59
   8   2   3    9.07    0.41
  -8   2  -3    8.39    0.51
   8   2   3    9.83    0.36
  -8   2  -3    9.66    0.57
  -8   2  -3    8.16    0.57
 -10  -2  -3   35.73    1.24
  10  -2   3   37.42    1.34
 -10  -2  -3   39.21    1.15
  10  -2   3   38.26    1.29
 -10  -2  -3   38.21    1.12
 -10  -2  -3   39.87    1.30
  10  -2   3   38.74    1.51
  10  -2   3   36.36    1.53
  10  -2   3   39.33    1.31
 -10  -2  -3   38.09    1.16
  10   2   3   40.46    1.33
 -10   2  -3   38.82    1.42
  10   2   3   39.10    1.44
 -10   2  -3   38.55    1.35
  10   2   3   36.75    1.36
  10   2   3   40.90    1.08
 -10   2  -3   39.81    1.27
 -10   2  -3   38.78    1.41
  10   2   3   38.99    1.13
 -10   2  -3   39.42    1.36
  12  -2   3    6.22    0.60
 -12  -2  -3    6.82    0.45
 -12  -2  -3    6.57    0.47
  12  -2   3    6.91    0.53
  12  -2   3    7.50    0.62
 -12  -2  -3    7.17    0.50
  12  -2   3    7.09    0.56
  12  -2   3    6.78    0.50
 -12  -2  -3    7.49    0.45
 -12  -2  -3    6.99    0.45
 -12   2  -3    5.85    0.51
  12   2   3    7.02    0.52
  12   2   3    7.44    0.60
 -12   2  -3    6.45    0.54
  12   2   3    6.83    0.44
  12   2   3    7.75    0.40
 -12   2  -3    6.87    0.57
  12   2   3    6.79    0.54
  12   2   3    7.76    0.42
 -12   2  -3    7.68    0.53
 -12   2  -3    7.57    0.57
 -14  -2  -3   36.62    1.20
 -14  -2  -3   36.28    1.35
  14  -2   3   38.45    1.59
  14  -2   3   34.98    1.30
  14  -2   3   36.49    1.61
  14  -2   3   34.83    1.39
 -14  -2  -3   34.66    1.22
  14   2   3   35.11    1.48
 -14   2  -3   36.43    1.32
  14   2   3   35.68    1.15
 -14   2  -3   36.36    1.46
 -14   2  -3   36.65    1.40
  14   2   3   36.08    1.13
  14   2   3   34.06    1.33
 -14   2  -3   37.65    1.41
  14   2   3   36.05    1.20
  14   2   3   34.92    1.37
 -14   2  -3   35.33    1.41
 -16  -2  -3   41.78    1.43
  16  -2   3   43.49    1.61
 -16  -2  -3   43.54    1.40
  16  -2   3   38.31    1.45
  16  -2   3   43.29    1.83
  16  -2   3   40.65    1.73
  16  -2   3   41.70    1.50
 -16  -2  -3   40.98    1.55
 -16   2  -3   40.33    1.57
  16   2   3   38.86    1.49
 -16   2  -3   39.90    1.53
 -16   2  -3   41.23    1.64
  16   2   3   39.84    1.28
  16   2   3   40.66    1.39
 -16   2  -3   40.72    1.57
  16   2   3   38.37    1.66
 -16   2  -3   40.67    1.50
  16   2   3   38.48    1.52
 -18  -2  -3    2.13    0.38
  18  -2   3    2.44    0.41
 -18  -2  -3    2.07    0.39
  18  -2   3    2.13    0.41
 -18  -2  -3    2.28    0.39
  18  -2   3    1.55    0.41
  18  -2   3    2.24    0.43
 -18   2  -3    2.40    0.41
  18   2   3    3.17    0.44
 -18   2  -3    2.76    0.51
  18   2   3    2.96    0.37
 -18   2  -3    2.18    0.44
 -18   2  -3    1.82    0.43
  18   2   3    2.48    0.44
 -18   2  -3    2.63    0.48
  18   2   3    2.52    0.51
 -20  -2  -3    5.64    0.59
  20  -2   3    5.46    0.62
  20  -2   3    6.65    0.74
  20  -2   3    4.59    0.57
  20  -2   3    5.81    0.70
 -20  -2  -3    4.92    0.62
  20   2   3    6.83    0.66
 -20   2  -3    5.49    0.68
  20   2   3    5.20    0.65
 -20   2  -3    6.73    0.77
  20   2   3    5.56    0.47
  20   2   3    5.53    0.73
 -20   2  -3    6.81    0.71
  22  -2   3   16.01    0.98
 -22  -2  -3   15.58    0.93
  22  -2   3   16.01    1.04
  22  -2   3   14.62    0.93
  22  -2   3   16.32    1.07
 -22  -2  -3   15.69    1.04
  22   2   3   15.69    1.05
  22   2   3   16.29    1.13
 -22   2  -3   16.45    1.03
 -22   2  -3   17.26    1.08
 -22   2  -3   17.21    1.14
  22   2   3   16.08    0.85
 -24  -2  -3   18.13    1.04
  24  -2   3   17.83    1.17
  24  -2   3   18.94    1.09
 -24  -2  -3   17.09    1.16
  24  -2   3   18.16    1.09
  24  -2   3   18.77    1.18
  24   2   3   14.75    1.15
 -24   2  -3   19.91    1.21
  24   2   3   18.34    0.95
 -24   2  -3   19.31    1.14
 -24   2  -3   17.64    1.22
  24   2   3   16.87    1.13
  26  -2   3    7.89    0.86
 -26  -2  -3    8.25    0.84
  26  -2   3   11.42    1.11
  26   2   3    8.36    0.68
 -26   2  -3    8.85    1.00
 -26   2  -3    7.28    0.94
  26   2   3    6.67    0.93
 -28  -2  -3    0.70    0.41
  28  -2   3    0.85    0.48
 -28   2  -3    1.15    0.46
  27  -3  -3   -0.44    0.28
 -27  -3   3    0.05    0.32
  27   3  -3    0.19    0.42
 -27   3   3    0.42    0.41
  25  -3  -3   12.22    1.03
 -25  -3   3   10.48    0.87
  25   3  -3   12.03    0.85
  25   3  -3   12.79    1.11
 -25   3   3   11.96    0.99
 -23  -3   3    1.63    0.46
  23  -3  -3    2.40    0.54
 -23  -3   3    0.77    0.36
  23  -3  -3    1.31    0.49
  23   3  -3    1.47    0.37
 -23   3   3    1.21    0.44
  23   3  -3    1.14    0.47
 -23   3   3    1.15    0.39
 -23   3   3    2.02    0.55
  21  -3  -3    9.40    0.81
 -21  -3   3    8.99    0.81
  21  -3  -3    6.79    0.82
 -21  -3   3    8.43    0.71
 -21   3   3    8.26    0.86
 -21   3   3    7.13    0.73
 -21   3   3    9.35    0.94
 -21   3   3    9.33    0.94
  21   3  -3    7.13    0.60
  19  -3  -3    1.50    0.42
  19  -3  -3    2.08    0.46
 -19  -3   3    2.32    0.47
 -19  -3   3    1.64    0.39
  19   3  -3    2.25    0.38
 -19   3   3    1.83    0.40
 -19   3   3    1.49    0.41
 -19   3   3    2.43    0.50
 -19   3   3    0.98    0.43
 -17  -3   3  183.27    4.58
  17  -3  -3  185.36    4.84
 -17  -3   3  185.06    4.61
  17  -3  -3  183.49    4.16
 -17  -3   3  171.83    5.11
  17  -3  -3  179.70    4.77
 -17   3   3  176.57    4.43
 -17   3   3  179.79    4.74
 -17   3   3  181.17    4.73
  17   3  -3  181.91    4.50
 -17   3   3  176.09    4.80
 -15  -3   3   39.70    1.62
 -15  -3   3   39.57    1.43
  15  -3  -3   41.20    1.57
 -15  -3   3   39.48    1.46
  15  -3  -3   38.96    1.57
 -15   3   3   42.15    1.56
 -15   3   3   42.81    1.43
  15   3  -3   40.42    1.38
 -15   3   3   41.72    1.61
 -15   3   3   40.11    1.58
 -13  -3   3    2.29    0.36
  13  -3  -3    2.11    0.42
 -13  -3   3    3.16    0.42
  13  -3  -3    2.84    0.44
  13  -3  -3    2.23    0.40
 -13  -3   3    2.76    0.42
 -13   3   3    3.10    0.44
  13   3  -3    3.48    0.40
 -13   3   3    2.94    0.37
  13   3  -3    3.04    0.41
 -13   3   3    2.37    0.40
 -13   3   3    3.00    0.45
  13   3  -3    2.49    0.34
  13   3  -3    3.23    0.36
 -13   3   3    2.47    0.42
  11  -3  -3    7.77    0.57
 -11  -3   3    8.45    0.54
  11  -3  -3    8.90    0.67
  11  -3  -3    6.96    0.57
 -11  -3   3    7.30    0.57
 -11  -3   3    7.80    0.52
 -11   3   3    8.58    0.59
 -11   3   3    7.93    0.59
 -11   3   3    8.64    0.49
  11   3  -3    8.27    0.50
  11   3  -3    7.68    0.49
 -11   3   3    8.90    0.59
 -11   3   3    8.40    0.60
  11   3  -3    7.70    0.45
  11   3  -3    8.07    0.53
  -9  -3   3   10.40    0.57
   9  -3  -3   11.03    0.64
  -9  -3   3   10.83    0.66
   9  -3  -3   11.61    0.71
   9  -3  -3   10.18    0.63
  -9  -3   3   11.67    0.61
  -9   3   3   11.19    0.49
   9   3  -3   11.14    0.60
  -9   3   3   11.57    0.63
  -9   3   3   10.77    0.63
   9   3  -3   11.32    0.53
   9   3  -3   11.53    0.57
   9   3  -3    9.90    0.54
  -9   3   3   10.76    0.61
  -9   3   3   10.79    0.64
  -9   3   3   10.85    0.63
   7  -3  -3   27.87    1.12
  -7  -3   3   26.43    1.07
  -7  -3   3   26.32    0.94
   7  -3  -3   25.26    0.98
   7  -3  -3   24.76    0.96
  -7  -3   3   25.97    0.96
   7   3  -3   25.57    0.91
  -7   3   3   27.55    1.00
  -7   3   3   27.32    1.01
  -7   3   3   25.80    0.72
  -7   3   3   26.64    0.95
   7   3  -3   26.04    0.88
  -7   3   3   27.48    0.96
   7   3  -3   27.38    0.93
   7   3  -3   24.81    0.91
  -7   3   3   25.60    0.97
   7   3  -3   27.19    0.95
  -5  -3   3   91.87    2.64
  -5  -3   3   90.43    2.33
   5  -3  -3   90.76    2.62
   5  -3  -3   90.87    2.33
  -5  -3   3   89.69    2.36
   5  -3  -3   90.98    2.35
   5   3  -3   93.01    2.31
   5   3  -3   94.44    2.47
  -5   3   3   91.33    2.28
  -5   3   3   91.27    2.32
   5   3  -3   89.63    2.32
  -5   3   3   89.94    2.12
   5   3  -3   88.30    2.29
  -5   3   3   88.78    2.30
   5   3  -3   88.18    2.25
  -5   3   3   90.20    2.43
  -3  -3   3   81.45    2.11
   3  -3  -3   82.32    2.35
  -3  -3   3   77.41    2.36
   3  -3  -3   82.30    2.28
   3  -3  -3   78.16    2.01
  -3  -3   3   78.99    2.12
   3  -3  -3   80.33    2.03
  -3  -3   3   82.37    2.14
   3  -3  -3   81.55    2.06
   3  -3  -3   76.98    2.02
   3   3  -3   78.60    2.06
   3   3  -3   78.61    2.04
   3   3  -3   74.99    2.25
   3   3  -3   76.01    2.06
  -3   3   3   83.47    2.02
   3   3  -3   80.19    2.11
  -3   3   3   77.73    1.98
  -3   3   3   78.13    1.99
   3   3  -3   85.97    2.26
   3   3  -3   84.33    2.51
  -1  -3   3   96.93    2.51
  -1  -3   3   94.87    2.54
   1  -3  -3  102.31    2.63
   1  -3  -3   97.32    2.35
   1  -3  -3   97.76    2.36
  -1  -3   3   99.73    2.84
   1  -3  -3  101.87    2.48
  -1  -3   3   94.12    2.82
   1  -3  -3  102.36    2.62
   1  -3  -3   99.12    2.35
   1  -3  -3   96.19    2.72
   1  -3  -3  102.15    2.38
   1   3  -3   93.46    2.44
   1   3  -3   99.20    2.17
  -1   3   3   97.22    2.27
   1   3  -3   99.70    2.17
  -1   3   3   98.33    2.22
   1   3  -3   95.64    2.52
   1   3  -3  101.66    2.73
   1   3  -3   95.53    2.70
  -1   3   3   96.33    2.23
  -1   3   3   98.81    2.48
   1   3  -3   98.53    2.47
  -1   3   3   99.54    2.75
   1   3  -3   96.32    2.49
   1   3  -3  105.58    2.92
  -1   3   3  100.91    2.31
  -1  -3  -3   70.96    1.69
   1  -3   3   68.95    1.93
   1  -3   3   66.85    2.15
  -1  -3  -3   69.88    1.68
  -1  -3  -3   72.01    1.85
  -1  -3  -3   70.78    1.92
  -1  -3  -3   72.16    1.93
  -1  -3  -3   70.19    1.69
  -1  -3  -3   71.11    2.08
  -1  -3  -3   70.39    1.68
   1  -3   3   68.08    2.17
   1   3   3   72.38    2.26
  -1   3  -3   70.02    2.16
   1   3   3   71.60    1.73
  -1   3  -3   70.25    1.67
  -1   3  -3   68.38    2.10
  -1   3  -3   68.42    1.94
   1   3   3   67.68    1.91
   1   3   3   72.16    1.63
  -1   3  -3   70.32    1.92
   1   3   3   68.91    2.07
  -1   3  -3   66.10    1.85
  -1   3  -3   70.73    1.67
  -3  -3  -3   35.12    1.28
  -3  -3  -3   36.49    1.11
   3  -3   3   32.57    1.34
  -3  -3  -3   37.49    1.09
  -3  -3  -3   35.91    0.93
  -3  -3  -3   35.24    0.91
  -3  -3  -3   36.89    0.93
  -3  -3  -3   35.49    0.91
   3  -3   3   33.68    1.19
   3  -3   3   34.37    1.34
  -3   3  -3   37.53    1.33
  -3   3  -3   38.22    1.06
   3   3   3   37.64    1.45
  -3   3  -3   37.71    1.25
  -3   3  -3   36.08    1.21
   3   3   3   38.66    1.10
   3   3   3   37.52    1.24
  -3   3  -3   36.00    1.17
  -3   3  -3   36.85    1.04
  -3   3  -3   37.19    1.23
  -3   3  -3   34.84    1.33
  -5  -3  -3    2.15    0.17
  -5  -3  -3    1.58    0.25
  -5  -3  -3    1.99    0.22
  -5  -3  -3    1.72    0.15
   5  -3   3    2.09    0.32
   5  -3   3    1.69    0.31
  -5  -3  -3    1.47    0.27
   5  -3   3    1.85    0.34
  -5  -3  -3    2.13    0.16
  -5  -3  -3    1.83    0.16
   5   3   3    2.10    0.28
  -5   3  -3    2.02    0.26
  -5   3  -3    1.89    0.31
  -5   3  -3    2.15    0.34
   5   3   3    2.35    0.36
  -5   3  -3    2.00    0.26
   5   3   3    2.10    0.38
  -5   3  -3    1.65    0.33
  -5   3  -3    1.84    0.32
  -5   3  -3    1.61    0.28
  -7  -3  -3   96.25    2.18
  -7  -3  -3   96.34    2.20
  -7  -3  -3   97.31    2.39
  -7  -3  -3  104.35    2.52
   7  -3   3   90.91    2.74
   7  -3   3   92.10    2.60
   7  -3   3   91.25    2.93
  -7  -3  -3   94.37    2.38
  -7  -3  -3   95.74    2.69
  -7  -3  -3   95.51    2.25
  -7  -3  -3   97.97    2.19
   7   3   3   94.00    2.72
  -7   3  -3   92.69    2.40
  -7   3  -3   96.92    2.57
  -7   3  -3   93.50    2.78
  -7   3  -3   93.37    2.65
  -7   3  -3   93.49    2.36
  -7   3  -3   94.71    2.63
   7   3   3   94.75    2.49
   7   3   3  101.89    2.10
  -7   3  -3   91.96    2.58
   7   3   3   93.69    2.87
   9  -3   3   10.11    0.69
   9  -3   3    7.55    0.66
  -9  -3  -3    7.64    0.38
  -9  -3  -3    8.58    0.38
  -9  -3  -3    8.51    0.37
  -9  -3  -3    8.93    0.37
  -9  -3  -3    8.22    0.40
   9  -3   3    8.16    0.59
   9   3   3    8.16    0.54
  -9   3  -3    7.91    0.58
   9   3   3    8.55    0.36
  -9   3  -3    8.10    0.52
  -9   3  -3    8.17    0.57
  -9   3  -3    8.53    0.64
  -9   3  -3    7.10    0.57
  -9   3  -3    7.33    0.48
   9   3   3    7.67    0.65
  -9   3  -3    7.63    0.49
   9   3   3    9.10    0.64
   9   3   3    8.02    0.34
 -11  -3  -3   25.98    0.94
 -11  -3  -3   23.82    0.89
 -11  -3  -3   24.99    0.81
 -11  -3  -3   24.71    0.82
  11  -3   3   24.35    1.10
 -11  -3  -3   25.48    0.84
  11  -3   3   24.55    0.99
  11  -3   3   24.26    1.22
  11   3   3   25.29    1.19
 -11   3  -3   26.72    1.12
 -11   3  -3   26.64    0.99
 -11   3  -3   25.68    1.12
  11   3   3   25.19    1.07
  11   3   3   24.43    1.17
 -11   3  -3   26.19    1.20
 -11   3  -3   25.48    1.01
  11   3   3   26.35    0.81
 -11   3  -3   26.07    1.16
  13  -3   3    2.23    0.44
  13  -3   3    2.27    0.45
  13  -3   3    2.12    0.35
 -13  -3  -3    1.95    0.26
 -13  -3  -3    2.14    0.28
 -13  -3  -3    2.03    0.29
  13  -3   3    2.43    0.49
 -13   3  -3    1.99    0.41
  13   3   3    2.31    0.16
 -13   3  -3    2.75    0.38
  13   3   3    2.10    0.42
  13   3   3    2.16    0.38
 -13   3  -3    1.85    0.37
 -13   3  -3    2.33    0.37
  13   3   3    2.53    0.46
  13   3   3    2.62    0.31
 -13   3  -3    1.55    0.38
 -13   3  -3    2.78    0.45
 -15  -3  -3   10.30    0.56
  15  -3   3   10.85    0.66
  15  -3   3    9.96    0.86
 -15  -3  -3   10.71    0.64
  15  -3   3   10.88    0.78
 -15   3  -3   10.35    0.79
 -15   3  -3   10.28    0.78
  15   3   3   10.59    0.73
 -15   3  -3    9.70    0.67
  15   3   3   10.26    0.42
  15   3   3   10.48    0.83
  15   3   3   10.41    0.79
 -15   3  -3    9.77    0.75
  15   3   3   10.81    0.58
 -15   3  -3   10.28    0.74
 -17  -3  -3   26.33    1.15
  17  -3   3   25.91    1.10
  17  -3   3   25.44    1.26
  17  -3   3   24.31    1.24
 -17  -3  -3   24.60    0.99
  17   3   3   24.45    1.33
  17   3   3   23.41    1.20
  17   3   3   26.13    1.28
  17   3   3   26.53    0.84
 -17   3  -3   26.23    1.27
 -17   3  -3   24.97    1.31
 -17   3  -3   24.93    1.16
 -17   3  -3   24.61    1.28
 -17   3  -3   24.84    1.25
  19  -3   3    5.34    0.69
  19  -3   3    5.91    0.64
 -19  -3  -3    6.22    0.59
  19  -3   3    6.62    0.58
  19  -3   3    6.66    0.77
 -19  -3  -3    6.75    0.55
 -19   3  -3    5.90    0.75
  19   3   3    6.04    0.41
  19   3   3    7.07    0.77
 -19   3  -3    5.72    0.66
 -19   3  -3    5.99    0.74
 -19   3  -3    5.55    0.70
  19   3   3    6.46    0.73
  19   3   3    5.75    0.76
  21  -3   3   25.49    1.37
 -21  -3  -3   25.78    1.12
 -21  -3  -3   22.45    1.23
  21  -3   3   25.83    1.38
  21  -3   3   25.52    1.22
 -21   3  -3   25.39    1.36
  21   3   3   25.27    1.47
 -21   3  -3   24.64    1.40
  21   3   3   25.04    1.30
 -21   3  -3   23.40    1.30
  21   3   3   25.46    1.34
  21   3   3   25.09    0.94
  23  -3   3   11.39    0.94
 -23  -3  -3   10.71    0.75
  23  -3   3    9.86    1.02
  23  -3   3   10.68    0.81
 -23   3  -3    9.74    0.99
 -23   3  -3   10.12    1.05
  23   3   3   10.53    1.12
 -23   3  -3    9.40    0.97
  23   3   3    9.87    0.60
  23   3   3    8.18    0.90
  25  -3   3    0.40    0.35
 -25  -3  -3    0.30    0.31
  25  -3   3    0.30    0.29
 -25   3  -3    0.50    0.37
  25   3   3    0.33    0.37
 -25   3  -3    0.07    0.33
  27  -3   3    0.68    0.47
 -27  -3  -3    0.11    0.33
 -27   3  -3    0.83    0.44
 -26  -4   3    6.11    0.76
  26  -4  -3    5.15    0.84
 -26   4   3    5.63    0.71
  26   4  -3    6.13    0.96
  24  -4  -3    3.89    0.70
 -24  -4   3    3.45    0.59
  24  -4  -3    4.96    0.77
  24   4  -3    2.70    0.45
 -24   4   3    3.32    0.54
  24   4  -3    3.08    0.70
  22  -4  -3    2.38    0.57
 -22  -4   3    1.79    0.43
  22  -4  -3    2.11    0.54
  22   4  -3    0.80    0.29
 -22   4   3    0.78    0.32
  22   4  -3    1.69    0.54
 -22   4   3    1.99    0.50
  20  -4  -3    3.31    0.59
 -20  -4   3    2.22    0.44
  20  -4  -3    1.61    0.46
 -20  -4   3    2.11    0.48
 -20   4   3    2.36    0.55
  20   4  -3    2.70    0.62
  20   4  -3    2.42    0.38
 -20   4   3    1.86    0.38
 -20   4   3    2.49    0.53
 -20   4   3    2.83    0.56
  18  -4  -3    0.11    0.25
 -18  -4   3    0.37    0.28
 -18  -4   3    0.59    0.30
  18  -4  -3    0.14    0.30
 -18   4   3   -0.29    0.27
 -18   4   3    0.19    0.21
  18   4  -3    0.09    0.29
  18   4  -3    0.32    0.21
 -18   4   3    0.29    0.30
 -18   4   3    0.41    0.34
  16  -4  -3   36.92    1.58
 -16  -4   3   38.88    1.41
  16  -4  -3   39.73    1.61
 -16  -4   3   36.34    1.57
  16   4  -3   38.41    1.85
 -16   4   3   36.27    1.29
 -16   4   3   36.15    1.57
  16   4  -3   36.79    1.27
 -16   4   3   36.48    1.56
 -16   4   3   37.09    1.52
 -14  -4   3   13.95    0.87
  14  -4  -3   13.52    0.88
 -14  -4   3   14.96    0.79
  14  -4  -3   15.37    0.91
 -14   4   3   16.35    0.90
 -14   4   3   15.68    0.70
 -14   4   3   14.62    0.90
 -14   4   3   13.87    0.86
  14   4  -3   16.96    1.15
  14   4  -3   15.66    0.72
 -12  -4   3   19.25    0.86
  12  -4  -3   19.37    0.98
 -12  -4   3   18.07    0.84
  12  -4  -3   19.13    0.97
 -12  -4   3   17.81    0.95
  12  -4  -3   18.09    1.06
 -12   4   3   18.56    0.99
  12   4  -3   17.54    1.14
 -12   4   3   17.33    0.92
 -12   4   3   18.35    0.95
 -12   4   3   17.34    0.68
 -12   4   3   18.93    0.92
  12   4  -3   18.88    0.76
  10  -4  -3   65.53    2.03
  10  -4  -3   64.91    2.28
  10  -4  -3   65.08    2.03
 -10  -4   3   63.39    1.87
 -10  -4   3   62.44    2.12
 -10  -4   3   66.67    1.92
 -10   4   3   64.26    1.51
 -10   4   3   67.24    2.03
 -10   4   3   68.16    2.07
  10   4  -3   67.36    1.89
  10   4  -3   64.81    2.42
 -10   4   3   68.08    2.08
  10   4  -3   63.59    1.79
 -10   4   3   66.09    1.96
 -10   4   3   64.47    1.50
  -8  -4   3    2.98    0.40
   8  -4  -3    3.08    0.41
   8  -4  -3    3.48    0.43
   8  -4  -3    3.53    0.48
  -8  -4   3    2.93    0.37
  -8  -4   3    3.75    0.40
   8   4  -3    3.99    0.34
   8   4  -3    3.24    0.34
   8   4  -3    3.06    0.41
  -8   4   3    3.33    0.40
   8   4  -3    3.90    0.59
  -8   4   3    3.58    0.44
  -8   4   3    4.07    0.41
   8   4  -3    3.38    0.39
  -6  -4   3   65.48    1.89
  -6  -4   3   70.48    2.18
  -6  -4   3   68.89    1.94
   6  -4  -3   69.10    1.94
   6  -4  -3   66.85    2.17
   6  -4  -3   69.50    1.95
   6   4  -3   70.34    1.90
   6   4  -3   66.93    1.84
  -6   4   3   67.10    1.84
  -6   4   3   68.93    1.95
   6   4  -3   70.39    2.43
  -6   4   3   67.01    1.89
   6   4  -3   70.27    1.85
   6   4  -3   67.53    2.09
  -4  -4   3    7.82    0.49
  -4  -4   3    8.34    0.51
  -4  -4   3    7.95    0.66
  -4  -4   3    6.71    0.52
   4  -4  -3    6.65    0.44
   4  -4  -3    8.49    0.53
   4  -4  -3    7.29    0.45
   4  -4  -3    7.46    0.61
   4  -4  -3    7.88    0.46
   4   4  -3    7.43    0.45
   4   4  -3    8.21    0.47
  -4   4   3    7.85    0.42
   4   4  -3    7.14    0.55
   4   4  -3    8.04    0.71
   4   4  -3    7.93    0.50
  -4   4   3    8.55    0.49
   2  -4  -3   23.14    0.82
  -2  -4   3   23.60    0.92
  -2  -4   3   22.91    1.17
   2  -4  -3   23.98    0.82
   2  -4  -3   24.99    0.82
   2  -4  -3   24.45    0.92
   2  -4  -3   24.62    0.83
  -2  -4   3   23.71    1.05
   2  -4  -3   25.14    1.14
   2   4  -3   24.64    0.93
   2   4  -3   24.26    0.85
  -2   4   3   23.40    0.82
   2   4  -3   24.04    1.19
  -2   4   3   25.62    0.84
   2   4  -3   24.46    0.88
  -2   4   3   24.46    0.70
   2   4  -3   24.00    1.08
   2   4  -3   23.30    0.89
   0  -4  -3   74.01    1.78
   0  -4  -3   73.54    1.80
   0  -4  -3   68.99    1.98
   0  -4   3   72.41    2.04
   0  -4   3   72.01    2.40
   0  -4  -3   72.04    1.99
   0  -4  -3   70.40    1.77
   0  -4  -3   71.95    2.28
   0  -4  -3   77.55    1.83
   0  -4  -3   73.33    1.79
   0  -4   3   70.20    2.29
   0   4  -3   69.70    1.92
   0   4  -3   69.73    2.38
   0   4   3   68.93    1.99
   0   4  -3   69.58    2.00
   0   4  -3   73.67    2.27
   0   4   3   73.40    1.76
   0   4  -3   71.96    1.98
   0   4  -3   72.98    1.99
   2  -4   3   59.65    1.79
   2  -4   3   57.20    2.06
  -2  -4  -3   61.17    1.45
  -2  -4  -3   66.10    1.80
  -2  -4  -3   61.56    1.59
  -2  -4  -3   59.13    1.43
  -2  -4  -3   58.27    1.42
  -2  -4  -3   58.70    1.98
  -2  -4  -3   58.99    1.57
   2  -4   3   56.53    1.99
  -2   4  -3   55.45    1.72
  -2   4  -3   56.10    1.76
  -2   4  -3   56.54    1.75
   2   4   3   61.92    2.17
  -2   4  -3   53.51    1.93
  -2   4  -3   55.87    1.67
   2   4   3   57.50    1.78
   2   4   3   60.70    1.38
  -2   4  -3   58.77    1.73
  -2   4  -3   58.48    2.05
  -4  -4  -3   10.59    0.34
  -4  -4  -3   10.46    0.55
  -4  -4  -3   10.35    0.33
   4  -4   3    9.51    0.72
  -4  -4  -3    9.60    0.69
  -4  -4  -3   10.81    0.55
   4  -4   3   10.64    0.64
   4  -4   3    8.96    0.68
  -4  -4  -3   10.17    0.33
  -4   4  -3   10.38    0.59
  -4   4  -3   10.76    0.74
  -4   4  -3   10.76    0.43
  -4   4  -3    9.96    0.63
  -4   4  -3   11.19    0.64
   4   4   3   11.29    0.66
  -4   4  -3    9.73    0.71
  -4   4  -3    9.38    0.61
   4   4   3   11.15    0.82
   4   4   3   10.39    0.55
  -4   4  -3   11.06    0.44
  -6  -4  -3   17.21    0.64
   6  -4   3   16.10    0.93
  -6  -4  -3   16.03    0.89
   6  -4   3   16.24    0.94
   6  -4   3   15.54    0.83
  -6   4  -3   15.18    0.62
   6   4   3   14.91    0.72
  -6   4  -3   14.20    0.59
  -6   4  -3   15.82    0.83
   6   4   3   14.29    0.95
  -6   4  -3   16.12    0.78
  -6   4  -3   15.24    0.91
  -6   4  -3   14.82    0.86
   6   4   3   15.32    0.84
  -6   4  -3   15.38    0.81
   8  -4   3   22.77    1.16
   8  -4   3   22.04    1.21
   8  -4   3   25.84    1.22
   8  -4   3   23.64    1.08
  -8  -4  -3   23.33    1.12
  -8   4  -3   21.86    0.99
  -8   4  -3   22.28    1.04
  -8   4  -3   24.51    0.89
  -8   4  -3   23.16    0.85
   8   4   3   24.65    1.01
  -8   4  -3   24.70    1.10
   8   4   3   25.38    1.30
  -8   4  -3   24.12    1.09
   8   4   3   23.54    1.12
  -8   4  -3   21.02    1.13
 -10  -4  -3   24.25    0.81
  10  -4   3   27.73    1.33
 -10  -4  -3   26.32    0.72
  10  -4   3   24.78    1.24
 -10  -4  -3   25.02    0.80
 -10  -4  -3   24.65    1.19
 -10  -4  -3   26.43    0.73
  10  -4   3   23.10    1.31
  10  -4   3   25.14    1.17
  10   4   3   25.52    1.24
 -10   4  -3   26.05    0.96
 -10   4  -3   26.30    1.18
  10   4   3   25.25    1.09
 -10   4  -3   25.53    1.27
 -10   4  -3   27.32    1.12
  10   4   3   29.20    1.39
  10   4   3   25.67    0.71
  10   4   3   27.33    0.72
 -10   4  -3   28.15    1.15
 -10   4  -3   24.52    0.97
 -10   4  -3   25.84    1.19
  12  -4   3   53.35    1.69
 -12  -4  -3   54.79    1.40
 -12  -4  -3   51.18    1.58
  12  -4   3   51.90    2.18
  12  -4   3   54.48    1.93
  12   4   3   56.41    2.12
  12   4   3   56.51    1.41
 -12   4  -3   50.49    1.89
 -12   4  -3   54.50    1.87
 -12   4  -3   54.73    1.95
 -12   4  -3   54.14    1.64
 -12   4  -3   52.41    1.67
  12   4   3   54.65    2.04
  12   4   3   55.76    1.86
 -12   4  -3   53.87    2.06
  14  -4   3   34.96    1.51
  14  -4   3   35.78    1.77
 -14  -4  -3   37.26    1.10
 -14  -4  -3   34.91    1.25
  14  -4   3   37.40    1.31
 -14   4  -3   36.73    1.66
  14   4   3   35.96    1.64
 -14   4  -3   35.95    1.54
 -14   4  -3   36.14    1.57
  14   4   3   37.05    1.67
 -14   4  -3   37.72    1.51
  14   4   3   38.00    1.13
 -14   4  -3   36.67    1.36
  14   4   3   34.54    1.45
 -16  -4  -3   32.38    1.07
 -16  -4  -3   30.14    1.21
  16  -4   3   33.64    1.51
  16  -4   3   31.67    1.46
  16   4   3   29.75    1.38
 -16   4  -3   31.89    1.43
 -16   4  -3   33.42    1.51
 -16   4  -3   29.86    1.27
  16   4   3   31.82    1.57
 -16   4  -3   31.41    1.52
  16   4   3   32.79    1.10
  16   4   3   29.73    1.55
 -16   4  -3   32.43    1.57
  18  -4   3   24.89    1.35
 -18  -4  -3   25.75    1.14
 -18  -4  -3   23.50    0.97
  18  -4   3   25.44    1.35
 -18   4  -3   26.72    1.35
 -18   4  -3   23.96    1.16
 -18   4  -3   23.12    1.36
  18   4   3   25.73    1.31
  18   4   3   28.32    1.46
 -18   4  -3   26.76    1.41
 -18   4  -3   24.27    1.34
  18   4   3   21.87    1.36
  20  -4   3    0.06    0.28
  20  -4   3   -0.11    0.25
  20  -4   3    0.23    0.32
 -20  -4  -3    0.05    0.24
 -20   4  -3   -0.03    0.28
 -20   4  -3   -0.41    0.20
 -20   4  -3   -0.44    0.27
  20   4   3    0.13    0.29
  20   4   3    0.14    0.30
  20   4   3    0.29    0.28
 -20   4  -3   -0.01    0.28
 -22  -4  -3    4.97    0.56
  22  -4   3    5.26    0.78
  22  -4   3    5.81    0.83
  22   4   3    6.33    0.89
 -22   4  -3    5.89    0.71
 -22   4  -3    5.23    0.77
 -22   4  -3    5.38    0.76
  22   4   3    5.46    0.79
  24  -4   3    4.15    0.73
 -24  -4  -3    1.63    0.42
 -24   4  -3    2.74    0.65
 -24   4  -3    3.15    0.67
  26  -4   3    2.01    0.60
 -26  -4  -3    1.96    0.45
 -26   4  -3    1.47    0.54
  23  -5  -3    4.81    0.78
 -23  -5   3    5.34    0.68
 -23   5   3    4.97    0.58
  23   5  -3    4.78    0.89
  21  -5  -3    5.18    0.77
 -21  -5   3    5.86    0.66
  21   5  -3    4.74    0.87
 -21   5   3    5.29    0.56
 -21   5   3    5.86    0.86
 -19  -5   3    2.35    0.45
  19  -5  -3    3.46    0.61
  19   5  -3    2.45    0.63
 -19   5   3    2.81    0.59
 -19   5   3    2.09    0.33
 -19   5   3    1.80    0.33
 -17  -5   3   13.57    0.79
  17  -5  -3   12.74    0.95
 -17   5   3   13.46    0.62
 -17   5   3   12.55    0.96
  17   5  -3   13.03    1.15
 -17   5   3   14.03    0.64
 -17   5   3   13.89    0.97
 -15  -5   3    0.09    0.23
  15  -5  -3    0.07    0.26
 -15  -5   3    0.26    0.24
 -15   5   3    0.14    0.12
  15   5  -3   -0.03    0.31
 -15   5   3    0.31    0.27
 -15   5   3    0.26    0.13
 -15   5   3   -0.12    0.27
  13  -5  -3    7.73    0.77
 -13  -5   3    7.36    0.64
 -13  -5   3    8.63    0.58
 -13   5   3    7.96    0.66
  13   5  -3    7.96    0.97
 -13   5   3    8.66    0.73
  13   5  -3    8.02    0.43
  11  -5  -3   34.42    1.37
 -11  -5   3   35.36    1.40
 -11  -5   3   33.07    1.19
 -11   5   3   30.91    1.35
  11   5  -3   30.94    0.98
 -11   5   3   30.81    1.28
  11   5  -3   32.20    1.28
  11   5  -3   31.44    1.67
   9  -5  -3   34.53    1.34
   9  -5  -3   37.47    1.57
  -9  -5   3   34.79    1.42
  -9  -5   3   35.78    1.24
   9   5  -3   34.89    1.06
  -9   5   3   36.59    1.41
   9   5  -3   34.40    1.37
   9   5  -3   34.78    1.74
  -9   5   3   37.64    1.33
   7  -5  -3    4.15    0.52
  -7  -5   3    4.09    0.45
  -7  -5   3    4.79    0.68
   7  -5  -3    4.56    0.49
  -7  -5   3    4.57    0.52
   7   5  -3    5.10    0.56
   7   5  -3    5.93    0.80
  -7   5   3    4.74    0.45
  -7   5   3    4.73    0.53
   7   5  -3    4.65    0.34
  -5  -5   3   33.55    1.37
  -5  -5   3   34.62    1.64
  -5  -5   3   33.80    1.22
   5  -5  -3   33.29    1.54
   5  -5  -3   34.02    1.36
   5  -5  -3   34.94    1.21
   5   5  -3   36.29    1.10
  -5   5   3   35.83    1.09
  -5   5   3   33.63    1.23
   5   5  -3   36.37    1.24
   5   5  -3   34.94    1.68
   5   5  -3   34.24    1.39
   3  -5  -3    7.50    0.53
  -3  -5   3    6.49    0.78
   3  -5  -3    6.63    0.45
  -3  -5   3    6.36    0.55
   3  -5  -3    6.29    0.72
  -3  -5   3    7.07    0.52
   3   5  -3    6.01    0.49
   3   5  -3    7.16    0.62
  -3   5   3    6.53    0.30
  -3   5   3    6.81    0.46
   3   5  -3    6.17    0.79
   3   5  -3    6.55    0.44
   1  -5  -3   41.76    1.38
   1  -5  -3   40.38    1.70
   1  -5  -3   42.78    1.23
  -1  -5   3   38.36    1.76
  -1  -5   3   40.77    1.62
  -1  -5   3   41.53    1.42
  -1   5   3   43.74    1.87
   1   5  -3   43.56    1.35
  -1   5   3   42.87    1.24
   1   5  -3   42.46    1.84
   1   5  -3   41.01    1.63
   1   5  -3   43.28    1.41
  -1  -5  -3   13.66    0.59
  -1  -5  -3   14.41    0.54
   1  -5   3   12.60    0.82
   1  -5   3   13.74    0.76
  -1  -5  -3   12.66    0.88
   1  -5   3   11.65    0.90
  -1   5  -3   13.10    0.68
   1   5   3   13.87    1.03
  -1   5  -3   12.83    0.86
  -1   5  -3   15.23    0.80
   1   5   3   15.07    0.56
  -1   5  -3   15.34    1.02
   3  -5   3   -0.01    0.20
  -3  -5  -3    0.25    0.22
  -3  -5  -3    0.28    0.11
  -3  -5  -3    0.20    0.11
   3  -5   3   -0.13    0.17
  -3  -5  -3    0.19    0.18
   3  -5   3   -0.02    0.18
  -3   5  -3    0.29    0.23
  -3   5  -3    0.16    0.25
  -3   5  -3    0.07    0.18
   3   5   3    0.10    0.26
  -3   5  -3    0.37    0.27
   3   5   3    0.20    0.11
  -5  -5  -3   18.39    1.07
   5  -5   3   18.93    0.95
   5  -5   3   19.06    1.09
   5  -5   3   20.59    1.16
  -5   5  -3   19.39    1.11
  -5   5  -3   17.54    0.94
  -5   5  -3   19.03    0.91
  -5   5  -3   18.09    1.08
   5   5   3   18.07    1.19
   7  -5   3    6.53    0.75
   7  -5   3    5.55    0.62
   7  -5   3    6.80    0.78
  -7  -5  -3    6.08    0.69
  -7   5  -3    6.53    0.74
  -7   5  -3    6.56    0.29
  -7   5  -3    6.39    0.72
  -7   5  -3    5.79    0.64
   7   5   3    7.78    0.88
  -7   5  -3    7.09    0.58
   7   5   3    6.84    0.60
   9  -5   3   89.65    3.00
   9  -5   3   88.84    2.72
   9  -5   3   84.03    3.05
  -9  -5  -3   89.33    2.92
  -9   5  -3   90.28    2.70
   9   5   3   91.56    3.15
   9   5   3   87.15    2.82
  -9   5  -3   89.46    2.16
  -9   5  -3   86.95    2.78
   9   5   3   87.57    2.57
  -9   5  -3   87.10    2.95
  -9   5  -3   92.34    2.19
  -9   5  -3   85.58    2.70
  11  -5   3    1.34    0.39
 -11  -5  -3    0.53    0.31
  11  -5   3    0.71    0.36
 -11   5  -3    0.60    0.20
 -11   5  -3   -0.01    0.24
  11   5   3    0.66    0.28
  11   5   3    0.45    0.32
  11   5   3    0.76    0.40
 -11   5  -3    0.96    0.32
 -11   5  -3    0.01    0.25
 -11   5  -3    0.34    0.19
 -11   5  -3    0.38    0.28
 -13  -5  -3    2.51    0.21
 -13  -5  -3    2.09    0.25
  13  -5   3    2.42    0.51
 -13  -5  -3    2.40    0.49
 -13   5  -3    2.07    0.34
  13   5   3    1.42    0.41
 -13   5  -3    3.23    0.56
 -13   5  -3    2.04    0.48
 -13   5  -3    2.38    0.35
  13   5   3    2.64    0.27
 -13   5  -3    2.41    0.54
  13   5   3    2.36    0.43
  13   5   3    3.02    0.62
  15  -5   3    2.13    0.52
 -15  -5  -3    2.88    0.28
  15   5   3    2.75    0.32
 -15   5  -3    2.38    0.53
  15   5   3    1.94    0.44
 -15   5  -3    1.85    0.44
 -15   5  -3    2.35    0.54
  15   5   3    2.58    0.59
 -15   5  -3    2.28    0.38
  15   5   3    1.83    0.48
  17  -5   3    6.41    0.83
  17  -5   3    6.66    0.82
 -17  -5  -3    6.11    0.42
  17   5   3    6.94    0.88
 -17   5  -3    5.89    0.80
 -17   5  -3    5.55    0.82
  17   5   3    5.80    0.84
 -17   5  -3    5.74    0.59
 -17   5  -3    6.01    0.77
  17   5   3    6.01    0.73
  19  -5   3    2.98    0.63
 -19  -5  -3    2.35    0.35
  19  -5   3    3.20    0.63
 -19   5  -3    3.27    0.49
  19   5   3    1.23    0.40
  19   5   3    2.69    0.63
 -19   5  -3    2.39    0.61
  21  -5   3    2.79    0.62
  21  -5   3    1.54    0.53
 -21  -5  -3    2.31    0.38
  21   5   3    1.71    0.56
 -21   5  -3    1.38    0.38
  23  -5   3    5.23    0.84
 -23  -5  -3    6.86    0.57
  23   5   3    5.96    0.90
 -23   5  -3    5.74    0.70
  20  -6  -3    3.57    0.71
 -20  -6   3    4.38    0.57
  20   6  -3    4.40    0.89
 -20   6   3    3.96    0.73
  18  -6  -3    4.90    0.74
 -18  -6   3    6.88    0.66
  18   6  -3    5.42    0.93
 -18   6   3    4.91    0.76
  16  -6  -3    7.34    0.84
 -16  -6   3    6.58    0.58
  16   6  -3    6.15    0.96
 -16   6   3    6.87    0.84
  14  -6  -3    4.68    0.67
 -14  -6   3    5.69    0.56
 -14   6   3    5.04    0.63
  14   6  -3    6.28    0.93
 -14   6   3    4.20    0.66
 -12  -6   3   12.92    1.10
 -12  -6   3   14.19    0.76
  12  -6  -3   14.62    0.93
  12   6  -3   12.19    1.14
 -12   6   3   15.04    0.86
 -12   6   3   12.44    0.92
 -10  -6   3    3.56    0.44
 -10  -6   3    3.35    0.65
  10  -6  -3    2.20    0.44
 -10   6   3    4.03    0.58
 -10   6   3    4.36    0.50
  10   6  -3    3.76    0.74
   8  -6  -3    0.45    0.26
  -8  -6   3    0.28    0.28
  -8  -6   3    0.54    0.24
  -8  -6   3    0.74    0.28
  -8   6   3    0.54    0.22
   8   6  -3    0.90    0.45
  -8   6   3    0.25    0.27
   8   6  -3    0.88    0.33
   6  -6  -3    7.32    0.90
  -6  -6   3    7.16    0.62
  -6  -6   3    8.59    0.58
  -6  -6   3    7.68    0.92
   6  -6  -3    7.82    0.58
  -6   6   3    7.18    0.43
   6   6  -3    5.49    0.83
  -6   6   3    7.09    0.58
   6   6  -3    7.83    0.68
   4  -6  -3   36.21    1.77
  -4  -6   3   38.78    1.59
  -4  -6   3   40.23    1.92
   4  -6  -3   39.18    1.33
  -4  -6   3   39.56    1.39
   4  -6  -3   39.08    1.52
   4   6  -3   38.72    1.92
  -4   6   3   38.30    1.36
   4   6  -3   39.40    1.13
   4   6  -3   38.81    1.62
  -2  -6   3   58.79    2.14
   2  -6  -3   61.22    1.97
  -2  -6   3   58.98    1.87
   2  -6  -3   58.95    1.70
  -2  -6   3   60.22    2.45
   2  -6  -3   59.00    2.33
  -2   6   3   58.81    1.73
   2   6  -3   59.70    1.65
   2   6  -3   64.04    2.51
   2   6  -3   55.00    2.11
   0  -6   3    4.04    0.67
   0  -6  -3    1.75    0.45
   0  -6  -3    3.33    0.38
   0  -6  -3    3.01    0.32
   0  -6   3    2.47    0.45
   0  -6   3    2.79    0.43
   0   6   3    2.67    0.62
   0   6   3    2.61    0.33
   0   6  -3    2.56    0.43
   0   6  -3    2.44    0.49
   0   6  -3    3.04    0.37
   0   6  -3    2.85    0.61
  -2  -6  -3    1.68    0.45
  -2  -6  -3    1.99    0.27
   2  -6   3    2.12    0.46
   2  -6   3    3.00    0.48
  -2  -6  -3    2.45    0.24
   2  -6   3    1.90    0.48
  -2   6  -3    1.14    0.46
   2   6   3    2.91    0.61
  -2   6  -3    1.67    0.39
   2   6   3    2.09    0.26
  -2   6  -3    1.74    0.32
  -2   6  -3    2.25    0.51
  -4  -6  -3   10.45    0.46
   4  -6   3    9.81    0.89
  -4  -6  -3    9.51    0.84
   4  -6   3    9.88    0.72
   4  -6   3   10.23    0.84
   4   6   3   11.10    1.02
   4   6   3   10.95    0.43
  -4   6  -3    9.15    0.64
  -4   6  -3   10.26    1.06
  -4   6  -3    9.09    0.72
  -4   6  -3   10.39    0.85
   6  -6   3   12.73    0.99
   6  -6   3   12.99    1.04
   6  -6   3   12.42    0.85
  -6  -6  -3   14.04    1.04
  -6   6  -3   16.59    1.11
   6   6   3   16.42    1.24
  -6   6  -3   15.35    0.85
  -6   6  -3   16.35    1.09
  -6   6  -3   14.76    0.93
   8  -6   3    7.48    0.77
  -8  -6  -3    5.92    0.79
   8  -6   3    5.31    0.77
   8  -6   3    5.30    0.76
  -8   6  -3    6.39    0.83
  -8   6  -3    6.97    0.77
  -8   6  -3    5.72    0.64
   8   6   3    5.92    0.86
  -8   6  -3    7.03    0.82
  10  -6   3   24.64    1.46
  10  -6   3   22.44    1.22
 -10  -6  -3   23.40    1.38
  10  -6   3   24.19    1.44
 -10   6  -3   23.56    1.27
 -10   6  -3   23.25    1.18
 -10   6  -3   23.78    1.43
  10   6   3   24.87    1.51
 -10   6  -3   23.11    1.32
 -12  -6  -3    6.25    0.81
  12  -6   3    6.24    0.77
 -12   6  -3    7.41    0.79
  12   6   3    7.20    0.99
 -12   6  -3    6.42    0.79
 -12   6  -3    4.63    0.76
  14  -6   3    5.45    0.77
 -14  -6  -3    4.22    0.70
 -14   6  -3    4.80    0.36
  14   6   3    4.26    0.80
  14   6   3    5.02    0.34
 -14   6  -3    3.64    0.63
 -14   6  -3    3.87    0.70
 -16  -6  -3    3.71    0.69
  16  -6   3    3.87    0.67
 -16   6  -3    3.74    0.41
 -16   6  -3    2.73    0.63
 -16   6  -3    3.20    0.39
  16   6   3    3.44    0.74
  18  -6   3    2.00    0.57
 -18  -6  -3    1.07    0.45
  18   6   3    1.60    0.59
 -18   6  -3    2.14    0.37
 -18   6  -3    1.90    0.59
  20  -6   3    6.29    0.90
  20   6   3    6.86    1.05
 -20   6  -3    5.17    0.57
 -15  -7   3    7.59    0.60
  15  -7  -3    7.69    0.88
 -15   7   3    7.20    0.90
  15   7  -3    8.62    1.21
 -13  -7   3    4.01    0.50
  13  -7  -3    3.50    0.60
  13   7  -3    3.64    0.82
 -13   7   3    4.13    0.68
 -11  -7   3   13.61    0.76
  11  -7  -3   11.55    0.86
  11   7  -3   12.79    1.40
 -11   7   3   13.04    0.97
   9  -7  -3    0.71    0.34
  -9  -7   3    1.27    0.32
  -9   7   3    0.43    0.36
   9   7  -3    1.85    0.63
   7  -7  -3   24.30    1.11
  -7  -7   3   24.78    1.06
   7   7  -3   21.61    1.56
  -7   7   3   23.49    1.16
   5  -7  -3    1.77    0.51
  -5  -7   3    2.37    0.60
   5  -7  -3    1.80    0.38
  -5  -7   3    1.64    0.36
  -5   7   3    2.27    0.42
   5   7  -3    1.78    0.45
   5   7  -3    2.52    0.65
   3  -7  -3    8.50    1.03
  -3  -7   3    7.20    0.98
   3  -7  -3    8.91    0.59
  -3  -7   3    7.72    0.61
   3   7  -3    9.62    0.73
   3   7  -3    8.31    1.07
  -3   7   3    8.24    0.61
   3   7  -3    9.31    0.92
   1  -7  -3    3.01    0.37
  -1  -7   3    3.14    0.66
   1  -7  -3    3.20    0.44
   1  -7  -3    3.91    0.70
  -1  -7   3    2.72    0.46
   1   7  -3    3.01    0.70
  -1   7   3    2.96    0.39
   1   7  -3    3.44    0.62
   1   7  -3    3.97    0.54
   1  -7   3   12.05    1.10
  -1  -7  -3   12.61    1.07
   1  -7   3   13.75    0.85
   1   7   3   13.74    0.66
  -1   7  -3   13.83    1.19
  -1   7  -3   12.58    1.00
  -1   7  -3   13.96    0.90
   1   7   3   15.60    1.27
  -3  -7  -3   10.45    1.10
   3  -7   3    9.80    0.75
   3  -7   3    7.71    0.98
  -3   7  -3   10.32    1.05
  -3   7  -3    9.65    0.78
  -3   7  -3   10.54    1.17
   3   7   3   10.47    1.24
   3   7   3    9.57    0.51
   5  -7   3    4.88    0.65
  -5  -7  -3    4.70    0.75
   5  -7   3    4.81    0.82
  -5   7  -3    4.77    0.75
   5   7   3    5.04    0.32
  -5   7  -3    5.72    0.59
   5   7   3    4.04    0.78
  -5   7  -3    5.15    0.84
  -5   7  -3    5.03    0.69
  -7  -7  -3    0.68    0.39
   7  -7   3    0.55    0.36
  -7   7  -3    0.79    0.46
  -7   7  -3    1.25    0.36
  -7   7  -3    0.54    0.40
   7   7   3    1.11    0.52
  -7   7  -3    0.78    0.38
  -9  -7  -3    1.29    0.49
   9  -7   3    0.77    0.39
  -9   7  -3    1.22    0.43
  -9   7  -3    1.58    0.41
  -9   7  -3    1.59    0.53
   9   7   3    0.89    0.49
  11  -7   3   14.85    1.06
 -11  -7  -3   17.33    1.26
 -11   7  -3   14.49    1.09
  11   7   3   15.31    1.33
 -13  -7  -3    0.28    0.36
  13  -7   3   -0.16    0.31
  13   7   3    0.76    0.50
 -13   7  -3   -0.30    0.34
  15  -7   3    0.23    0.39
 -15   7  -3   -0.02    0.38
  15   7   3    0.52    0.46
  -6  -8   3   12.48    0.79
   6  -8  -3   11.87    0.80
   6   8  -3   15.45    1.39
  -6   8   3   14.27    0.93
   6   8  -3   14.20    0.91
  -4  -8   3   11.36    0.76
   4   8  -3    9.68    0.80
   4   8  -3   11.88    1.38
  -4   8   3   11.06    0.78
  -2  -8   3    2.07    0.43
   2   8  -3    1.59    0.62
   2   8  -3    1.99    0.45
  -2   8   3    1.31    0.34
   0  -8   3    5.08    0.63
   0   8   3    3.98    0.49
   0   8  -3    4.56    0.65
   0   8  -3    4.20    0.87
   2  -8   3    8.12    0.79
  -2   8  -3    6.16    1.01
   2   8   3    6.99    0.51
  -2   8  -3    7.39    0.83
   4  -8   3    6.81    0.78
  -4   8  -3    5.00    0.91
   4   8   3    5.66    0.42
  -4   8  -3    4.87    0.72
   4   8   3    6.38    1.04
   6  -8   3    2.83    0.57
  -6   8  -3    3.02    0.63
   6   8   3    3.10    0.30
  -6   8  -3    4.21    0.89
   6   8   3    2.84    0.80
 -30   0   4    5.58    0.84
 -28   0   4    3.45    0.68
 -28   0   4    2.16    0.62
  26   0  -4   -0.07    0.27
 -26   0   4    0.05    0.30
 -26   0   4   -0.06    0.35
  24   0  -4   52.53    2.09
  24   0  -4   51.54    2.04
 -24   0   4   53.21    2.12
 -24   0   4   52.64    2.16
 -22   0   4  117.97    3.54
  22   0  -4  116.52    3.52
  22   0  -4  117.60    3.47
 -22   0   4  118.74    3.60
  20   0  -4   28.45    1.31
 -20   0   4   29.11    1.40
  20   0  -4   26.01    1.28
  20   0  -4   25.20    1.37
 -20   0   4   28.09    1.33
 -18   0   4   -0.01    0.22
  18   0  -4    0.60    0.28
  18   0  -4    0.21    0.24
 -18   0   4   -0.01    0.22
 -18   0   4    0.18    0.25
  18   0  -4    0.48    0.25
 -16   0   4    0.39    0.25
  16   0  -4    1.11    0.30
 -16   0   4    0.88    0.31
 -16   0   4    1.38    0.32
 -16   0   4    0.66    0.27
 -16   0   4    0.12    0.24
  16   0  -4    0.90    0.27
  16   0  -4    0.92    0.30
  16   0  -4    0.54    0.25
 -14   0   4    9.02    0.68
  14   0  -4    9.75    0.60
 -14   0   4   10.19    0.66
 -14   0   4    9.34    0.64
  14   0  -4    9.19    0.63
  14   0  -4    9.33    0.64
 -14   0   4    9.28    0.61
 -14   0   4    9.36    0.71
  14   0  -4    9.02    0.68
 -12   0   4   36.77    1.50
  12   0  -4   35.90    1.34
  12   0  -4   38.98    1.35
 -12   0   4   37.80    1.34
  12   0  -4   36.52    1.36
 -12   0   4   38.84    1.33
 -12   0   4   40.13    1.28
 -12   0   4   35.95    1.27
  12   0  -4   39.53    1.52
 -12   0   4   37.83    1.39
  10   0  -4  124.77    3.64
 -10   0   4  124.87    3.66
  10   0  -4  126.88    3.26
 -10   0   4  128.04    3.32
  10   0  -4  134.46    3.34
  10   0  -4  127.47    3.32
 -10   0   4  134.50    3.15
 -10   0   4  130.32    3.30
 -10   0   4  126.16    3.12
 -10   0   4  131.08    3.23
 -10   0   4  126.68    3.28
  -8   0   4   10.47    0.66
   8   0  -4   12.49    0.63
  -8   0   4   11.69    0.64
  -8   0   4   11.93    0.63
   8   0  -4   12.13    0.59
   8   0  -4   11.16    0.63
  -8   0   4   11.13    0.60
  -8   0   4   11.94    0.61
   8   0  -4   12.34    0.67
   8   0  -4   11.05    0.67
  -8   0   4   12.01    0.59
  -6   0   4    4.20    0.41
  -6   0   4    3.81    0.38
   6   0  -4    4.24    0.37
   6   0  -4    3.55    0.38
   6   0  -4    4.46    0.39
  -6   0   4    3.55    0.36
   6   0  -4    3.75    0.35
  -6   0   4    3.66    0.39
   6   0  -4    3.74    0.40
  -6   0   4    3.41    0.33
   4   0  -4  222.49    5.02
  -4   0   4  219.70    5.04
   4   0  -4  214.12    4.92
   4   0  -4  216.93    5.05
   4   0  -4  219.76    4.81
   4   0  -4  218.84    5.03
  -4   0   4  218.80    5.01
  -4   0   4  214.49    4.93
   4   0  -4  219.99    5.61
  -4   0   4  223.11    5.05
  -4   0   4  214.53    4.78
  -2   0   4    0.17    0.17
   2   0  -4   -0.18    0.10
   2   0  -4    0.27    0.15
   2   0  -4   -0.07    0.13
  -2   0   4    0.05    0.12
  -2   0   4    0.24    0.14
  -2   0   4    0.05    0.14
   2   0  -4    0.24    0.13
   2   0  -4    0.22    0.15
  -2   0   4    0.22    0.14
   2   0  -4    0.16    0.14
   0   0   4    6.69    0.39
   0   0  -4    5.49    0.41
   0   0   4    6.10    0.35
   0   0  -4    5.93    0.39
   0   0   4    7.06    0.42
   0   0  -4    6.03    0.39
   0   0  -4    6.23    0.38
   0   0   4    6.29    0.40
   0   0   4    6.21    0.39
   2   0   4  120.23    2.90
  -2   0  -4  118.56    2.86
   2   0   4  119.04    3.19
   2   0   4  120.69    2.83
  -2   0  -4  117.13    3.21
   2   0   4  119.62    2.88
  -2   0  -4  117.22    2.91
  -2   0  -4  119.49    2.89
  -4   0  -4  310.32    6.94
  -4   0  -4  309.59    6.92
  -4   0  -4  310.45    7.76
  -4   0  -4  318.34    6.99
   4   0   4  312.58    6.82
  -4   0  -4  307.50    6.63
   4   0   4  302.12    6.91
  -4   0  -4  305.14    6.79
   4   0   4  317.01    6.97
  -6   0  -4  162.75    3.86
   6   0   4  162.55    4.29
  -6   0  -4  162.78    3.79
   6   0   4  162.40    3.83
   6   0   4  159.50    4.27
  -6   0  -4  165.15    3.93
   6   0   4  166.64    3.82
  -6   0  -4  159.81    3.75
   6   0   4  167.16    3.92
   6   0   4  160.71    3.85
  -6   0  -4  166.37    3.70
   6   0   4  162.99    4.10
  -6   0  -4  165.34    4.37
  -8   0  -4   16.30    0.67
   8   0   4   15.99    0.61
  -8   0  -4   17.78    0.69
  -8   0  -4   14.71    0.79
   8   0   4   16.02    0.71
   8   0   4   15.48    0.75
   8   0   4   15.04    0.76
  -8   0  -4   16.15    0.75
   8   0   4   15.97    0.78
   8   0   4   18.48    0.77
   8   0   4   16.13    0.73
  -8   0  -4   15.44    0.69
  -8   0  -4   16.34    0.69
  10   0   4   70.54    2.18
 -10   0  -4   71.58    1.96
  10   0   4   72.70    2.24
 -10   0  -4   69.83    2.07
  10   0   4   72.03    2.21
 -10   0  -4   73.64    1.83
 -10   0  -4   74.07    1.98
 -10   0  -4   71.41    2.01
 -10   0  -4   69.99    2.30
  10   0   4   69.00    1.82
  10   0   4   72.58    2.07
 -10   0  -4   75.05    1.96
  10   0   4   72.27    2.01
  10   0   4   71.20    2.02
  12   0   4   10.46    0.66
 -12   0  -4   10.20    0.59
 -12   0  -4   10.37    0.73
  12   0   4    9.96    0.51
 -12   0  -4   10.12    0.59
 -12   0  -4   11.95    0.58
  12   0   4   10.83    0.65
 -12   0  -4   10.23    0.61
  12   0   4   10.35    0.67
  12   0   4   10.97    0.62
  12   0   4   10.18    0.64
 -12   0  -4   11.04    0.66
  12   0   4   10.26    0.66
  12   0   4   10.02    0.69
  14   0   4    9.59    0.64
 -14   0  -4    9.11    0.69
 -14   0  -4    8.99    0.64
 -14   0  -4    8.93    0.58
 -14   0  -4    9.90    0.62
  14   0   4    9.05    0.67
 -14   0  -4    9.43    0.55
  14   0   4    9.64    0.68
 -14   0  -4    9.54    0.62
  14   0   4    9.49    0.52
  14   0   4    9.89    0.65
  14   0   4   10.72    0.68
  14   0   4    9.74    0.66
  14   0   4    8.56    0.59
 -16   0  -4    3.89    0.42
  16   0   4    4.50    0.53
  16   0   4    3.84    0.47
 -16   0  -4    4.44    0.58
  16   0   4    3.92    0.51
  16   0   4    4.63    0.43
 -16   0  -4    4.31    0.54
 -16   0  -4    3.60    0.49
  16   0   4    3.12    0.47
  16   0   4    5.21    0.60
  16   0   4    4.48    0.57
  16   0   4    3.97    0.54
 -18   0  -4   20.26    1.14
 -18   0  -4   19.78    1.00
  18   0   4   19.35    1.07
 -18   0  -4   20.33    1.07
  18   0   4   19.87    0.99
  18   0   4   18.59    1.06
 -18   0  -4   19.66    0.88
  18   0   4   19.56    1.04
  18   0   4   17.40    0.94
  18   0   4   18.17    0.80
 -20   0  -4    3.75    0.54
 -20   0  -4    4.23    0.47
 -20   0  -4    3.62    0.58
  20   0   4    2.88    0.48
  20   0   4    3.03    0.48
  20   0   4    2.92    0.51
  20   0   4    2.95    0.38
  20   0   4    3.68    0.53
 -20   0  -4    3.59    0.57
  22   0   4    1.69    0.41
  22   0   4    0.92    0.39
  22   0   4    2.14    0.33
  22   0   4    1.70    0.43
 -22   0  -4    1.51    0.44
 -22   0  -4    2.05    0.45
  24   0   4   38.23    1.32
  24   0   4   34.87    1.61
 -24   0  -4   36.64    1.66
  24   0   4   37.14    1.77
 -24   0  -4   37.79    1.73
  24   0   4   36.28    1.67
  26   0   4    0.33    0.38
  26   0   4    0.32    0.22
 -26   0  -4    0.09    0.33
  28   0   4    1.12    0.50
 -28   0  -4    2.75    0.60
  30   0   4   25.14    1.00
 -30   0  -4   24.55    1.50
  29  -1  -4   14.58    1.18
 -29   1   4   17.15    1.26
 -27  -1   4    6.58    0.84
  27  -1  -4    5.84    0.81
 -27   1   4    6.37    0.85
  25  -1  -4   10.59    1.05
 -25  -1   4    7.99    0.89
 -25  -1   4   11.16    0.95
  25  -1  -4   10.89    0.90
 -25   1   4   12.31    1.06
 -25   1   4    9.09    0.96
 -23  -1   4    8.55    0.87
 -23  -1   4    8.55    0.90
  23  -1  -4    8.36    0.88
  23  -1  -4    8.15    0.87
  23   1  -4    9.47    0.76
 -23   1   4    6.38    0.81
  23   1  -4    7.93    0.81
 -23   1   4    8.35    0.91
  21  -1  -4   31.02    1.43
 -21  -1   4   31.52    1.43
 -21  -1   4   31.65    1.48
  21  -1  -4   29.95    1.44
  21   1  -4   28.36    1.17
 -21   1   4   33.52    1.51
 -21   1   4   29.67    1.48
  21   1  -4   27.29    1.35
  21   1  -4   31.26    1.38
 -19  -1   4   21.67    1.12
  19  -1  -4   22.88    1.16
  19  -1  -4   22.41    1.16
 -19  -1   4   20.73    1.23
 -19  -1   4   22.28    1.19
 -19   1   4   22.24    1.09
  19   1  -4   22.32    1.09
 -19   1   4   19.63    1.15
  19   1  -4   22.74    0.98
 -19   1   4   21.26    1.14
 -19   1   4   22.88    1.15
  19   1  -4   20.53    1.09
  17  -1  -4   32.30    1.51
 -17  -1   4   32.79    1.38
  17  -1  -4   30.58    1.33
 -17  -1   4   32.99    1.34
  17  -1  -4   29.25    1.33
 -17  -1   4   31.14    1.48
  17   1  -4   30.78    1.28
 -17   1   4   33.21    1.44
  17   1  -4   31.62    1.41
  17   1  -4   30.58    1.31
 -17   1   4   29.34    1.46
 -17   1   4   30.46    1.27
 -17   1   4   32.41    1.37
  17   1  -4   32.07    1.17
 -17   1   4   31.61    1.33
 -15  -1   4    6.96    0.63
 -15  -1   4    6.76    0.55
 -15  -1   4    7.42    0.56
 -15  -1   4    7.33    0.60
  15  -1  -4    6.52    0.56
 -15  -1   4    5.31    0.58
  15  -1  -4    6.48    0.72
  15  -1  -4    7.04    0.60
 -15   1   4    6.72    0.58
 -15   1   4    5.42    0.62
 -15   1   4    5.68    0.56
 -15   1   4    6.99    0.57
  15   1  -4    6.69    0.55
  15   1  -4    5.83    0.46
 -15   1   4    7.14    0.61
  15   1  -4    7.12    0.61
  15   1  -4    6.84    0.55
  15   1  -4    7.18    0.57
  15   1  -4    7.25    0.62
 -15   1   4    6.83    0.49
 -13  -1   4   18.10    0.86
 -13  -1   4   18.01    1.00
 -13  -1   4   19.57    0.87
  13  -1  -4   19.48    0.92
  13  -1  -4   18.65    0.93
  13  -1  -4   18.94    1.03
  13  -1  -4   19.68    0.89
 -13  -1   4   18.94    0.93
 -13  -1   4   17.79    0.88
 -13   1   4   19.15    1.02
 -13   1   4   18.34    0.90
  13   1  -4   19.51    0.92
  13   1  -4   19.21    0.81
 -13   1   4   20.39    0.98
 -13   1   4   20.81    0.90
 -13   1   4   19.79    0.78
  13   1  -4   18.53    0.87
  13   1  -4   20.29    0.94
 -13   1   4   20.57    0.96
  13   1  -4   19.70    0.93
  13   1  -4   20.70    1.01
 -11  -1   4   20.83    0.90
  11  -1  -4   21.13    1.03
  11  -1  -4   21.66    0.93
 -11  -1   4   22.11    0.88
 -11  -1   4   19.61    1.01
 -11  -1   4   21.64    0.94
 -11  -1   4   21.20    0.87
  11  -1  -4   21.23    0.95
  11   1  -4   19.43    0.96
 -11   1   4   19.81    0.90
 -11   1   4   21.24    0.87
  11   1  -4   20.51    0.81
 -11   1   4   20.43    0.95
  11   1  -4   21.67    0.90
  11   1  -4   19.49    0.90
 -11   1   4   20.78    0.91
  11   1  -4   21.33    0.94
 -11   1   4   19.98    0.76
  11   1  -4   20.17    0.87
 -11   1   4   21.39    0.94
   9  -1  -4   32.74    1.32
  -9  -1   4   29.72    1.16
  -9  -1   4   32.86    1.16
  -9  -1   4   33.03    1.32
   9  -1  -4   35.50    1.25
   9  -1  -4   33.30    1.19
  -9  -1   4   33.05    1.11
   9  -1  -4   32.02    1.17
  -9  -1   4   31.62    1.11
  -9   1   4   33.94    1.19
  -9   1   4   35.82    1.01
   9   1  -4   33.81    1.17
  -9   1   4   33.57    1.20
   9   1  -4   34.01    1.08
   9   1  -4   34.21    1.29
   9   1  -4   34.13    1.16
  -9   1   4   34.61    1.19
  -9   1   4   34.30    1.11
   9   1  -4   32.21    1.17
  -9   1   4   32.68    1.16
   9   1  -4   32.35    1.18
   7  -1  -4   11.26    0.60
  -7  -1   4   12.17    0.60
  -7  -1   4   11.73    0.61
  -7  -1   4   12.46    0.64
   7  -1  -4   12.19    0.64
   7  -1  -4   11.92    0.62
  -7  -1   4   12.62    0.59
   7  -1  -4   10.72    0.66
  -7  -1   4   11.28    0.68
  -7  -1   4   12.44    0.64
  -7   1   4   12.33    0.68
   7   1  -4   12.52    0.58
   7   1  -4   12.43    0.62
   7   1  -4   14.03    0.64
  -7   1   4   13.03    0.62
   7   1  -4   12.77    0.64
  -7   1   4   13.28    0.65
  -7   1   4   12.21    0.57
  -7   1   4   13.20    0.64
   7   1  -4   12.20    0.67
  -7   1   4   13.28    0.64
   7   1  -4   14.30    0.67
  -5  -1   4  148.92    3.60
   5  -1  -4  142.65    3.99
   5  -1  -4  152.51    3.62
  -5  -1   4  146.51    3.63
  -5  -1   4  151.59    4.06
  -5  -1   4  146.50    3.52
  -5  -1   4  149.42    3.63
  -5  -1   4  152.42    3.46
   5  -1  -4  146.28    3.58
   5  -1  -4  151.45    3.62
   5   1  -4  148.86    3.59
  -5   1   4  149.47    3.38
   5   1  -4  157.26    3.67
   5   1  -4  150.80    4.01
   5   1  -4  148.68    3.43
  -5   1   4  152.66    3.56
  -5   1   4  149.79    3.61
   5   1  -4  153.26    3.63
  -5   1   4  147.74    3.97
  -5   1   4  150.42    3.57
  -5   1   4  151.30    3.60
  -3  -1   4   30.70    1.02
  -3  -1   4   32.43    1.18
  -3  -1   4   32.76    1.08
  -3  -1   4   31.06    1.05
   3  -1  -4   29.72    0.99
   3  -1  -4   32.07    1.03
   3  -1  -4   33.48    1.15
   3  -1  -4   32.77    1.04
  -3  -1   4   30.69    0.99
  -3  -1   4   31.36    0.98
   3   1  -4   31.08    1.01
   3   1  -4   30.30    1.14
   3   1  -4   31.42    1.03
   3   1  -4   32.31    1.07
  -3   1   4   30.74    1.09
  -3   1   4   29.89    0.97
   3   1  -4   30.85    0.95
  -3   1   4   31.57    1.02
  -3   1   4   31.18    1.01
  -3   1   4   30.66    1.00
  -3   1   4   31.03    0.89
   3   1  -4   32.71    1.06
   1  -1  -4   36.32    1.08
  -1  -1   4   36.22    1.16
  -1  -1   4   37.94    1.19
  -1  -1   4   35.79    1.10
   1  -1  -4   36.52    1.11
   1  -1  -4   36.24    1.22
  -1  -1   4   36.04    1.13
  -1  -1   4   36.13    1.07
  -1  -1   4   35.52    1.27
   1  -1  -4   37.58    1.11
   1   1  -4   35.96    1.06
  -1   1   4   37.04    1.07
   1   1  -4   37.07    1.19
   1   1  -4   35.71    1.12
  -1   1   4   37.50    1.07
  -1   1   4   35.44    1.17
  -1   1   4   35.90    1.09
  -1   1   4   37.67    1.03
   1   1  -4   35.78    1.27
   1   1  -4   35.31    1.11
   1   1  -4   36.73    1.16
  -1   1   4   36.52    0.95
  -1   1   4   37.16    1.09
  -1  -1  -4   53.80    1.45
   1  -1   4   53.80    1.48
  -1  -1  -4   54.25    1.60
  -1  -1  -4   52.83    1.44
   1  -1   4   52.96    1.70
  -1  -1  -4   52.74    1.41
   1  -1   4   51.49    1.50
   1  -1   4   55.53    1.56
   1  -1   4   54.81    1.42
   1  -1   4   53.44    1.44
   1  -1   4   52.04    1.52
   1   1   4   52.41    1.40
  -1   1  -4   51.03    1.48
   1   1   4   50.93    1.39
   1   1   4   53.88    1.54
   1   1   4   52.68    1.33
  -1   1  -4   52.06    1.69
  -1   1  -4   53.03    1.53
  -1   1  -4   53.02    1.41
   1   1   4   52.39    1.53
  -1   1  -4   53.08    1.48
  -1   1  -4   52.31    1.54
   1   1   4   51.82    1.42
   1   1   4   53.04    1.43
   3  -1   4    8.52    0.51
   3  -1   4    9.30    0.47
  -3  -1  -4    9.08    0.46
   3  -1   4   10.13    0.55
   3  -1   4    8.94    0.46
  -3  -1  -4    9.34    0.44
   3  -1   4    9.39    0.50
  -3  -1  -4    8.66    0.49
   3  -1   4    9.38    0.58
  -3  -1  -4    8.55    0.45
   3  -1   4    9.16    0.42
  -3  -1  -4    9.67    0.32
  -3  -1  -4    9.06    0.41
   3   1   4    9.07    0.44
   3   1   4    8.99    0.43
  -3   1  -4    9.69    0.55
  -3   1  -4    8.79    0.51
  -3   1  -4    9.44    0.47
  -3   1  -4    9.70    0.51
  -3   1  -4    9.22    0.58
   3   1   4    9.74    0.45
  -3   1  -4    9.04    0.53
  -3   1  -4    9.64    0.47
   3   1   4    9.50    0.54
   3   1   4    9.90    0.46
  -3   1  -4   10.29    0.53
   5  -1   4   29.91    1.07
   5  -1   4   25.46    1.10
  -5  -1  -4   28.29    0.90
   5  -1   4   27.66    1.01
  -5  -1  -4   28.68    0.77
   5  -1   4   28.36    0.87
  -5  -1  -4   27.84    0.83
  -5  -1  -4   27.74    0.93
  -5  -1  -4   29.77    1.04
   5   1   4   28.46    0.90
   5   1   4   26.98    0.89
   5   1   4   27.50    0.88
  -5   1  -4   26.66    0.87
  -5   1  -4   29.24    0.94
   5   1   4   29.40    0.95
  -5   1  -4   28.87    1.15
  -5   1  -4   29.10    1.06
  -5   1  -4   27.77    1.00
  -5   1  -4   27.68    0.94
   5   1   4   28.63    1.07
   5   1   4   27.30    0.89
  -5   1  -4   29.48    1.01
   5   1   4   29.63    0.95
   7  -1   4   73.83    2.05
   7  -1   4   74.37    2.13
  -7  -1  -4   70.30    1.91
  -7  -1  -4   74.92    1.81
   7  -1   4   75.28    2.11
  -7  -1  -4   77.06    2.20
  -7  -1  -4   72.46    1.97
   7  -1   4   73.24    2.04
   7  -1   4   71.97    2.27
  -7   1  -4   75.18    2.11
   7   1   4   74.56    1.94
  -7   1  -4   75.13    1.96
   7   1   4   73.24    1.90
  -7   1  -4   73.11    2.11
  -7   1  -4   75.92    2.36
   7   1   4   70.92    1.88
   7   1   4   71.74    1.90
  -7   1  -4   75.32    1.96
   7   1   4   74.10    2.17
  -7   1  -4   73.08    2.03
   7   1   4   71.18    2.04
   7   1   4   74.52    2.05
  -7   1  -4   75.81    2.05
  -7   1  -4   74.57    1.92
   9  -1   4    0.83    0.25
  -9  -1  -4    0.81    0.23
  -9  -1  -4    0.74    0.17
   9  -1   4    0.61    0.22
  -9  -1  -4    1.06    0.22
  -9  -1  -4    0.99    0.17
  -9  -1  -4    0.74    0.21
   9  -1   4    0.51    0.22
   9  -1   4    1.19    0.28
   9  -1   4    1.22    0.29
  -9   1  -4    0.71    0.23
  -9   1  -4    0.62    0.23
  -9   1  -4    0.78    0.26
  -9   1  -4    0.91    0.26
  -9   1  -4    0.80    0.18
   9   1   4    0.67    0.20
  -9   1  -4    0.60    0.24
   9   1   4    0.99    0.20
  -9   1  -4    0.92    0.22
   9   1   4    0.58    0.21
   9   1   4    1.20    0.24
   9   1   4    0.89    0.19
   9   1   4    0.83    0.25
   9   1   4    0.59    0.18
   9   1   4    0.96    0.22
  11  -1   4   16.37    0.74
  11  -1   4   16.90    0.83
 -11  -1  -4   17.07    0.87
 -11  -1  -4   17.60    0.61
 -11  -1  -4   16.56    0.73
 -11  -1  -4   16.92    0.77
  11  -1   4   17.54    0.88
  11  -1   4   17.78    0.86
  11  -1   4   16.18    0.87
  11  -1   4   16.51    0.84
 -11  -1  -4   17.14    0.83
 -11  -1  -4   15.55    0.63
  11   1   4   16.12    0.80
 -11   1  -4   15.41    0.71
 -11   1  -4   15.77    0.78
  11   1   4   15.37    0.73
  11   1   4   15.52    0.69
 -11   1  -4   15.86    0.76
  11   1   4   16.58    0.73
 -11   1  -4   14.41    0.77
  11   1   4   16.95    0.73
  11   1   4   15.28    0.85
 -11   1  -4   16.72    0.81
  11   1   4   16.53    0.73
 -11   1  -4   18.19    0.89
 -13  -1  -4   24.92    0.82
  13  -1   4   24.15    1.17
 -13  -1  -4   25.91    1.17
 -13  -1  -4   24.40    0.98
 -13  -1  -4   24.70    1.11
  13  -1   4   25.23    1.08
  13  -1   4   24.51    0.98
  13  -1   4   25.92    1.13
 -13  -1  -4   26.19    1.06
 -13   1  -4   25.19    1.14
 -13   1  -4   25.89    1.05
  13   1   4   26.28    1.09
  13   1   4   25.11    0.96
 -13   1  -4   24.66    1.04
 -13   1  -4   24.85    1.06
  13   1   4   25.60    1.01
 -13   1  -4   26.45    1.01
  13   1   4   26.04    1.03
 -13   1  -4   25.67    1.09
  13   1   4   24.41    1.15
  13   1   4   26.65    0.97
  15  -1   4    5.56    0.60
  15  -1   4    5.67    0.66
  15  -1   4    6.37    0.69
 -15  -1  -4    5.68    0.49
 -15  -1  -4    5.76    0.35
 -15  -1  -4    5.60    0.58
  15  -1   4    5.75    0.61
  15  -1   4    5.68    0.47
 -15  -1  -4    4.99    0.57
  15  -1   4    5.87    0.58
  15   1   4    4.43    0.57
 -15   1  -4    4.44    0.50
 -15   1  -4    4.22    0.54
  15   1   4    4.21    0.51
  15   1   4    4.79    0.48
  15   1   4    5.04    0.46
  15   1   4    4.77    0.40
 -15   1  -4    4.64    0.54
  15   1   4    5.33    0.50
  15   1   4    5.04    0.53
 -15   1  -4    4.81    0.51
 -15   1  -4    5.19    0.58
 -17  -1  -4   43.20    1.52
  17  -1   4   42.43    1.76
  17  -1   4   43.31    1.62
  17  -1   4   39.87    1.58
 -17  -1  -4   44.08    1.27
 -17  -1  -4   38.79    1.66
  17  -1   4   42.22    1.45
 -17  -1  -4   43.24    1.58
  17  -1   4   40.74    1.58
  17  -1   4   42.54    1.65
  17   1   4   42.48    1.62
  17   1   4   44.31    1.57
  17   1   4   43.05    1.35
 -17   1  -4   42.80    1.62
 -17   1  -4   42.13    1.68
  17   1   4   44.18    1.49
 -17   1  -4   43.90    1.57
  17   1   4   43.76    1.47
  17   1   4   39.94    1.69
  19  -1   4   19.66    1.05
 -19  -1  -4   18.39    1.10
  19  -1   4   20.14    1.06
  19  -1   4   16.54    1.00
 -19  -1  -4   21.57    1.09
 -19  -1  -4   18.13    0.96
  19  -1   4   18.55    1.03
  19   1   4   19.16    0.95
 -19   1  -4   18.21    0.96
 -19   1  -4   19.33    1.12
  19   1   4   18.66    0.98
  19   1   4   19.68    1.15
  19   1   4   17.61    1.03
 -19   1  -4   20.11    1.07
 -21  -1  -4    4.59    0.63
 -21  -1  -4    4.61    0.59
  21  -1   4    5.67    0.68
  21  -1   4    4.60    0.62
 -21  -1  -4    4.40    0.63
  21  -1   4    4.37    0.60
  21  -1   4    4.82    0.64
  21   1   4    4.93    0.57
 -21   1  -4    4.26    0.65
  21   1   4    4.94    0.64
  21   1   4    4.80    0.68
 -21   1  -4    4.77    0.57
 -21   1  -4    4.58    0.63
 -23  -1  -4   22.18    1.32
 -23  -1  -4   22.12    1.18
  23  -1   4   20.31    1.17
  23  -1   4   20.16    1.20
  23  -1   4   21.98    1.22
  23  -1   4   21.86    1.21
  23   1   4   19.24    1.25
 -23   1  -4   19.05    1.18
  23   1   4   21.16    1.23
 -23   1  -4   21.52    1.11
  23   1   4   21.21    1.10
 -23   1  -4   20.63    1.27
  25  -1   4    2.05    0.51
  25  -1   4    2.31    0.54
 -25  -1  -4    2.44    0.52
  25  -1   4    2.11    0.53
 -25   1  -4    1.77    0.48
  25   1   4    1.60    0.50
  25   1   4    2.49    0.46
 -25   1  -4    1.95    0.52
  27  -1   4    8.29    0.94
 -27  -1  -4    9.03    0.93
  27   1   4    8.23    1.00
 -27   1  -4    8.00    0.93
 -27   1  -4    8.45    1.01
 -29  -1  -4   37.24    1.79
  29  -1   4   38.19    1.89
 -29   1  -4   37.14    1.89
 -28  -2   4    4.81    0.76
  28  -2  -4    7.56    0.96
 -28   2   4    7.30    0.95
  28   2  -4    6.40    0.38
  28   2  -4    5.77    0.36
  26  -2  -4    2.84    0.63
 -26  -2   4    2.22    0.51
  26   2  -4    2.88    0.32
 -26   2   4    3.47    0.66
  26   2  -4    2.15    0.29
  24  -2  -4   26.32    1.42
 -24  -2   4   22.97    1.29
  24  -2  -4   26.60    1.46
  24   2  -4   24.81    0.93
  24   2  -4   27.02    1.34
 -24   2   4   26.88    1.51
 -24   2   4   27.16    1.46
  22  -2  -4   12.93    0.97
 -22  -2   4   12.24    0.94
  22  -2  -4   13.51    0.97
 -22  -2   4   13.59    0.92
 -22   2   4   14.35    1.02
  22   2  -4   12.85    0.64
 -22   2   4   13.74    1.02
 -22   2   4   12.87    0.90
  22   2  -4   13.96    0.91
  20  -2  -4    0.03    0.26
 -20  -2   4    0.00    0.27
  20  -2  -4    0.68    0.33
 -20  -2   4    0.13    0.25
 -20  -2   4    0.33    0.29
 -20   2   4    0.33    0.27
 -20   2   4    0.63    0.33
 -20   2   4    0.16    0.28
  20   2  -4    0.39    0.18
  20   2  -4    0.53    0.27
 -20   2   4   -0.10    0.24
 -18  -2   4   10.02    0.82
 -18  -2   4    9.92    0.73
  18  -2  -4   10.68    0.80
 -18  -2   4   10.67    0.79
  18  -2  -4    7.77    0.78
 -18   2   4   11.30    0.75
 -18   2   4    7.90    0.80
 -18   2   4   10.88    0.81
  18   2  -4   10.78    0.72
  18   2  -4   10.52    0.70
  18   2  -4    9.96    0.55
 -18   2   4   10.81    0.83
 -16  -2   4    0.55    0.30
 -16  -2   4    0.32    0.24
 -16  -2   4    0.46    0.26
  16  -2  -4    0.55    0.30
  16  -2  -4    0.21    0.22
 -16   2   4    0.49    0.26
 -16   2   4    0.27    0.21
 -16   2   4    0.99    0.34
  16   2  -4    0.53    0.25
  16   2  -4    0.54    0.25
  16   2  -4    0.49    0.18
 -16   2   4    0.69    0.29
 -16   2   4    0.90    0.21
  16   2  -4    0.20    0.17
  14  -2  -4   14.74    0.93
  14  -2  -4   13.78    0.82
 -14  -2   4   12.30    0.84
 -14  -2   4   13.59    0.70
  14  -2  -4   13.26    0.82
 -14  -2   4   14.23    0.79
 -14  -2   4   13.56    0.79
 -14   2   4   14.17    0.88
 -14   2   4   13.26    0.84
  14   2  -4   13.79    0.78
 -14   2   4   13.54    0.80
 -14   2   4   13.57    0.61
  14   2  -4   14.36    0.80
  14   2  -4   14.36    0.60
  14   2  -4   13.53    0.61
 -14   2   4   14.17    0.74
  14   2  -4   14.07    0.79
 -14   2   4   14.06    0.59
 -14   2   4   14.27    0.84
  14   2  -4   14.25    0.75
 -12  -2   4  126.16    3.29
 -12  -2   4  115.52    3.59
  12  -2  -4  119.99    3.67
 -12  -2   4  126.50    3.07
  12  -2  -4  123.70    3.30
  12  -2  -4  119.58    3.30
 -12  -2   4  122.29    3.22
 -12   2   4  121.67    3.25
  12   2  -4  128.75    3.25
  12   2  -4  124.62    3.48
 -12   2   4  123.38    2.85
 -12   2   4  124.84    3.07
 -12   2   4  129.72    3.29
 -12   2   4  119.97    3.25
 -12   2   4  126.74    3.03
 -12   2   4  122.07    3.61
  12   2  -4  119.63    2.89
  12   2  -4  125.51    2.88
  12   2  -4  121.75    3.19
 -12   2   4  122.55    3.32
  12   2  -4  119.00    3.21
  12   2  -4  120.10    3.15
  10  -2  -4   41.23    1.59
  10  -2  -4   41.29    1.43
 -10  -2   4   40.25    1.55
  10  -2  -4   42.83    1.42
 -10  -2   4   40.47    1.37
 -10  -2   4   40.64    1.28
 -10  -2   4   40.38    1.40
  10   2  -4   41.98    1.17
  10   2  -4   42.04    1.37
 -10   2   4   39.85    1.43
 -10   2   4   41.95    1.42
 -10   2   4   39.70    1.26
  10   2  -4   42.13    1.47
 -10   2   4   40.83    1.52
  10   2  -4   42.44    1.39
  10   2  -4   42.45    1.20
  10   2  -4   37.20    1.29
 -10   2   4   41.27    1.41
 -10   2   4   40.93    1.39
 -10   2   4   41.45    1.07
  10   2  -4   39.44    1.36
   8  -2  -4   60.12    2.00
  -8  -2   4   62.50    1.68
   8  -2  -4   59.31    1.80
  -8  -2   4   61.80    1.81
  -8  -2   4   59.42    2.00
   8  -2  -4   61.78    1.80
  -8  -2   4   60.57    1.77
   8   2  -4   63.02    1.57
   8   2  -4   59.46    1.58
   8   2  -4   56.07    1.69
  -8   2   4   60.84    1.78
  -8   2   4   57.98    1.91
   8   2  -4   63.02    1.80
   8   2  -4   60.21    1.77
  -8   2   4   60.84    1.78
  -8   2   4   59.89    1.60
  -8   2   4   60.09    1.41
  -8   2   4   62.19    1.81
  -8   2   4   59.10    1.76
   8   2  -4   60.62    1.91
   8   2  -4   58.58    1.73
  -6  -2   4   41.46    1.31
  -6  -2   4   39.62    1.34
  -6  -2   4   39.18    1.48
   6  -2  -4   40.56    1.47
  -6  -2   4   42.58    1.26
  -6  -2   4   40.59    1.25
   6  -2  -4   41.60    1.34
  -6   2   4   42.62    1.00
   6   2  -4   42.09    1.19
   6   2  -4   44.05    1.17
  -6   2   4   42.61    1.32
  -6   2   4   42.85    1.41
   6   2  -4   42.90    1.33
  -6   2   4   43.61    1.32
  -6   2   4   39.90    1.27
   6   2  -4   42.67    1.44
   6   2  -4   42.75    1.32
  -6   2   4   40.23    1.31
   6   2  -4   41.30    1.34
  -6   2   4   41.70    1.40
  -6   2   4   42.28    1.14
   6   2  -4   40.52    1.27
  -4  -2   4  149.87    3.52
  -4  -2   4  151.28    3.48
   4  -2  -4  147.94    3.60
   4  -2  -4  147.17    3.60
  -4  -2   4  147.47    3.63
  -4  -2   4  143.27    3.67
  -4  -2   4  148.34    3.67
   4  -2  -4  153.30    4.02
   4  -2  -4  146.32    3.58
  -4  -2   4  150.19    4.09
   4   2  -4  153.01    4.03
   4   2  -4  146.79    3.67
  -4   2   4  152.66    3.80
   4   2  -4  152.64    3.59
  -4   2   4  155.67    3.56
  -4   2   4  149.97    3.58
  -4   2   4  149.60    3.58
  -4   2   4  156.26    3.92
   4   2  -4  145.99    3.58
  -4   2   4  151.38    3.56
  -4   2   4  147.11    3.54
   4   2  -4  154.80    3.66
  -4   2   4  150.67    3.25
   4   2  -4  152.50    3.42
   4   2  -4  157.73    3.41
   2  -2  -4   17.48    0.76
   2  -2  -4   17.25    0.67
  -2  -2   4   18.31    0.70
  -2  -2   4   16.96    0.84
  -2  -2   4   17.86    0.71
   2  -2  -4   17.43    0.69
  -2  -2   4   18.13    0.78
  -2  -2   4   16.48    0.75
   2  -2  -4   19.14    0.71
  -2  -2   4   16.81    0.72
  -2   2   4   18.44    0.68
   2   2  -4   18.13    0.78
  -2   2   4   18.05    0.74
   2   2  -4   17.12    0.72
   2   2  -4   17.68    0.66
  -2   2   4   18.35    0.68
  -2   2   4   18.07    0.65
   2   2  -4   16.50    0.80
  -2   2   4   19.00    0.68
   2   2  -4   17.79    0.74
   2   2  -4   19.02    0.78
   2   2  -4   18.72    0.66
  -2   2   4   17.40    0.67
  -2   2   4   17.60    0.67
   0  -2  -4   66.02    1.70
   0  -2   4   65.61    1.85
   0  -2   4   63.74    1.92
   0  -2  -4   67.17    1.82
   0  -2  -4   65.43    1.73
   0  -2  -4   67.34    1.73
   0  -2   4   65.87    1.78
   0  -2   4   67.20    1.75
   0  -2   4   65.68    2.09
   0  -2   4   68.76    1.92
   0  -2   4   68.49    1.89
   0  -2  -4   66.50    1.70
   0  -2  -4   70.19    1.92
   0   2  -4   68.29    1.84
   0   2   4   67.38    1.84
   0   2  -4   66.34    1.83
   0   2  -4   66.56    1.71
   0   2   4   65.89    1.84
   0   2  -4   65.76    1.86
   0   2  -4   65.57    2.05
   0   2   4   65.59    1.67
   0   2  -4   66.55    1.72
   0   2  -4   68.18    1.90
   0   2   4   66.83    1.69
   0   2   4   66.79    1.74
   0   2   4   67.41    1.69
  -2  -2  -4   23.36    0.76
  -2  -2  -4   23.71    0.73
   2  -2   4   22.16    0.91
  -2  -2  -4   23.45    0.83
   2  -2   4   23.65    0.91
   2  -2   4   23.05    1.02
  -2  -2  -4   23.67    0.76
   2  -2   4   23.71    0.90
  -2  -2  -4   22.43    0.79
   2  -2   4   22.44    0.82
  -2  -2  -4   22.11    0.73
  -2   2  -4   23.05    1.00
   2   2   4   23.48    0.89
   2   2   4   23.68    0.76
  -2   2  -4   22.52    0.87
   2   2   4   21.85    0.71
  -2   2  -4   22.59    0.90
  -2   2  -4   22.70    0.87
  -2   2  -4   23.61    0.83
  -2   2  -4   22.46    0.91
  -2   2  -4   22.36    0.80
  -4  -2  -4   40.74    1.13
  -4  -2  -4   38.92    1.21
   4  -2   4   38.83    1.30
  -4  -2  -4   39.89    1.10
   4  -2   4   37.38    1.28
  -4  -2  -4   40.38    1.20
   4  -2   4   38.61    1.34
  -4  -2  -4   39.40    1.09
  -4  -2  -4   41.33    1.13
   4  -2   4   38.76    1.21
   4  -2   4   39.98    1.49
  -4   2  -4   39.60    1.29
  -4   2  -4   41.03    1.41
  -4   2  -4   39.66    1.31
  -4   2  -4   39.98    1.36
  -4   2  -4   42.13    1.34
   4   2   4   40.46    1.08
  -4   2  -4   39.05    1.21
  -4   2  -4   39.01    1.28
   4   2   4   39.60    1.18
  -4   2  -4   38.94    1.19
  -4   2  -4   39.08    1.29
   4   2   4   40.07    1.34
  -6  -2  -4   63.09    1.76
  -6  -2  -4   64.86    1.64
   6  -2   4   63.04    1.89
  -6  -2  -4   65.91    1.66
  -6  -2  -4   65.49    1.68
   6  -2   4   62.96    1.86
  -6  -2  -4   65.12    1.83
  -6  -2  -4   61.64    1.62
   6  -2   4   61.60    2.12
  -6   2  -4   65.42    1.88
  -6   2  -4   63.73    1.87
  -6   2  -4   61.68    1.78
   6   2   4   63.98    1.55
  -6   2  -4   63.87    1.86
   6   2   4   66.73    1.98
  -6   2  -4   61.60    2.11
  -6   2  -4   64.89    1.94
   6   2   4   62.60    1.61
   6   2   4   63.74    1.76
  -6   2  -4   62.78    1.76
   6   2   4   64.32    1.60
  -6   2  -4   63.36    1.83
  -6   2  -4   63.76    1.98
   8  -2   4   10.51    0.65
  -8  -2  -4   10.57    0.56
   8  -2   4   12.18    0.62
   8  -2   4   10.66    0.71
   8  -2   4   11.19    0.74
  -8  -2  -4   11.38    0.50
  -8  -2  -4   10.85    0.52
  -8  -2  -4   11.86    0.52
   8   2   4   10.36    0.49
  -8   2  -4   11.55    0.61
   8   2   4   11.12    0.67
  -8   2  -4   11.26    0.66
  -8   2  -4   11.49    0.63
   8   2   4   11.09    0.50
   8   2   4   10.53    0.59
  -8   2  -4   11.04    0.74
  -8   2  -4   10.20    0.67
  -8   2  -4   11.93    0.70
   8   2   4   11.21    0.68
  -8   2  -4   10.53    0.48
  -8   2  -4   11.88    0.65
  10  -2   4    4.22    0.54
 -10  -2  -4    3.60    0.36
  10  -2   4    4.03    0.51
 -10  -2  -4    3.43    0.38
  10  -2   4    4.45    0.47
 -10  -2  -4    3.32    0.33
 -10  -2  -4    3.53    0.34
  10  -2   4    4.67    0.48
  10  -2   4    3.36    0.44
 -10  -2  -4    4.97    0.36
  10   2   4    3.85    0.32
 -10   2  -4    4.15    0.50
 -10   2  -4    3.88    0.24
  10   2   4    3.84    0.45
  10   2   4    2.96    0.33
  10   2   4    4.02    0.29
 -10   2  -4    3.12    0.44
  10   2   4    4.44    0.46
 -10   2  -4    3.71    0.46
  10   2   4    4.34    0.52
 -10   2  -4    3.89    0.44
  10   2   4    4.06    0.30
 -10   2  -4    3.10    0.44
  12  -2   4   76.77    2.61
  12  -2   4   76.64    2.29
  12  -2   4   76.08    2.31
 -12  -2  -4   77.75    2.06
  12  -2   4   75.14    2.16
 -12  -2  -4   75.36    2.29
 -12  -2  -4   78.39    2.11
 -12  -2  -4   78.49    2.36
  12  -2   4   77.65    2.56
 -12   2  -4   75.09    2.36
  12   2   4   75.99    1.95
  12   2   4   76.74    1.99
  12   2   4   73.81    2.23
  12   2   4   73.14    2.40
 -12   2  -4   75.89    2.29
 -12   2  -4   74.50    2.37
  12   2   4   69.80    2.27
 -12   2  -4   74.90    2.28
 -12   2  -4   76.61    2.18
  12   2   4   78.64    2.06
  14  -2   4   41.33    1.56
  14  -2   4   42.25    1.74
  14  -2   4   41.02    1.77
 -14  -2  -4   38.66    1.54
 -14  -2  -4   42.52    1.37
  14  -2   4   40.74    1.52
 -14  -2  -4   39.85    1.38
 -14  -2  -4   39.51    1.50
  14   2   4   43.33    1.38
 -14   2  -4   41.07    1.57
  14   2   4   42.19    1.30
  14   2   4   41.26    1.50
  14   2   4   39.21    1.64
 -14   2  -4   42.34    1.64
 -14   2  -4   41.91    1.55
  14   2   4   42.27    1.54
 -14   2  -4   42.86    1.48
  14   2   4   40.69    1.28
 -14   2  -4   45.96    1.61
 -16  -2  -4   23.99    1.16
  16  -2   4   27.66    1.25
  16  -2   4   25.66    1.16
 -16  -2  -4   26.63    1.05
 -16  -2  -4   26.56    1.11
  16  -2   4   27.26    1.37
  16   2   4   25.55    1.31
  16   2   4   26.48    1.13
 -16   2  -4   27.01    1.23
  16   2   4   26.51    0.98
  16   2   4   26.23    1.20
 -16   2  -4   26.85    1.23
 -16   2  -4   25.97    1.16
 -16   2  -4   26.55    1.29
 -16   2  -4   25.94    1.22
  18  -2   4   15.50    0.92
 -18  -2  -4   16.30    0.96
  18  -2   4   15.26    0.96
  18  -2   4   14.63    0.90
 -18  -2  -4   15.24    0.82
 -18   2  -4   14.58    0.99
  18   2   4   13.41    1.00
  18   2   4   15.81    0.75
  18   2   4   16.65    0.87
 -18   2  -4   18.38    1.03
  18   2   4   15.45    0.94
 -18   2  -4   16.82    0.99
 -20  -2  -4    2.21    0.46
  20  -2   4    1.99    0.45
  20  -2   4    2.57    0.48
 -20  -2  -4    2.51    0.43
  20  -2   4    1.26    0.37
  20  -2   4    2.82    0.54
  20   2   4    1.61    0.40
  20   2   4    1.61    0.46
 -20   2  -4    1.95    0.43
  20   2   4    1.98    0.34
 -20   2  -4    2.04    0.50
 -20   2  -4    1.65    0.42
  22  -2   4   32.89    1.58
  22  -2   4   35.54    1.55
  22  -2   4   37.21    1.65
  22  -2   4   34.04    1.53
 -22  -2  -4   32.93    1.43
 -22  -2  -4   33.88    1.64
  22   2   4   34.40    1.62
 -22   2  -4   37.85    1.69
 -22   2  -4   33.60    1.55
  22   2   4   37.08    1.37
  22   2   4   32.83    1.70
 -22   2  -4   37.53    1.77
  24  -2   4   19.65    1.18
 -24  -2  -4   22.46    1.34
  24  -2   4   20.61    1.21
 -24  -2  -4   23.62    1.20
  24  -2   4   19.56    1.25
 -24   2  -4   22.39    1.40
 -24   2  -4   20.99    1.23
 -24   2  -4   21.45    1.30
  24   2   4   21.02    1.04
  24   2   4   23.36    1.46
 -26  -2  -4   13.24    0.96
  26  -2   4   15.41    1.14
  26   2   4   12.75    1.15
 -26   2  -4   12.67    1.03
  26   2   4   14.40    0.88
 -28  -2  -4    0.74    0.42
 -28   2  -4    1.32    0.49
  27  -3  -4    3.69    0.72
 -27  -3   4    3.71    0.66
 -27   3   4    4.14    0.74
  27   3  -4    2.78    0.70
 -25  -3   4    1.15    0.43
  25  -3  -4    2.58    0.63
 -25   3   4    1.78    0.47
 -25   3   4    1.89    0.52
 -23  -3   4   31.44    1.50
  23  -3  -4   34.95    1.72
  23  -3  -4   30.12    1.59
  23   3  -4   32.97    1.44
 -23   3   4   32.70    1.48
 -23   3   4   34.28    1.66
 -21  -3   4   24.80    1.45
  21  -3  -4   25.78    1.42
 -21  -3   4   28.41    1.34
  21  -3  -4   27.69    1.44
  21   3  -4   25.13    1.22
 -21   3   4   28.89    1.50
 -21   3   4   28.79    1.29
 -21   3   4   27.95    1.41
 -19  -3   4   31.28    1.58
  19  -3  -4   33.69    1.54
  19  -3  -4   32.22    1.52
 -19  -3   4   35.00    1.45
 -19   3   4   30.02    1.50
 -19   3   4   33.82    1.36
  19   3  -4   33.31    1.36
 -19   3   4   32.55    1.51
 -19   3   4   32.11    1.49
 -17  -3   4   41.98    1.59
 -17  -3   4   40.21    1.74
  17  -3  -4   41.01    1.66
 -17  -3   4   39.41    1.52
  17  -3  -4   41.00    1.67
 -17   3   4   36.70    1.41
  17   3  -4   40.44    1.48
 -17   3   4   38.41    1.61
 -17   3   4   39.42    1.67
 -17   3   4   39.12    1.61
  15  -3  -4    1.21    0.35
 -15  -3   4    1.10    0.33
 -15  -3   4    0.99    0.32
  15  -3  -4    1.25    0.35
 -15  -3   4    1.34    0.35
 -15   3   4    0.91    0.33
 -15   3   4    1.17    0.28
 -15   3   4    0.67    0.30
  15   3  -4    0.97    0.27
 -15   3   4    1.23    0.34
  13  -3  -4    7.57    0.61
  13  -3  -4    6.60    0.73
 -13  -3   4    8.36    0.61
 -13  -3   4    6.86    0.62
  13  -3  -4    7.47    0.61
 -13  -3   4    8.50    0.58
  13   3  -4    7.19    0.55
 -13   3   4    6.70    0.58
 -13   3   4    7.35    0.62
  13   3  -4    7.75    0.52
  13   3  -4    6.76    0.52
 -13   3   4    7.14    0.50
 -13   3   4    7.15    0.70
 -13   3   4    6.44    0.59
  11  -3  -4   13.25    0.78
 -11  -3   4   13.05    0.82
  11  -3  -4   12.97    0.77
  11  -3  -4   14.72    0.90
 -11  -3   4   13.63    0.74
 -11  -3   4   14.49    0.77
 -11   3   4   14.09    0.80
  11   3  -4   13.21    0.72
 -11   3   4   15.76    0.83
  11   3  -4   14.14    0.72
  11   3  -4   14.00    0.74
 -11   3   4   13.51    0.77
  11   3  -4   13.80    0.68
 -11   3   4   14.24    0.64
 -11   3   4   14.27    0.81
 -11   3   4   14.21    0.77
  -9  -3   4   33.75    1.37
  -9  -3   4   32.80    1.22
   9  -3  -4   32.89    1.38
   9  -3  -4   33.88    1.24
  -9  -3   4   33.34    1.19
   9  -3  -4   32.55    1.24
  -9   3   4   31.77    1.22
  -9   3   4   35.86    1.30
   9   3  -4   34.06    1.19
  -9   3   4   32.89    1.18
   9   3  -4   32.55    1.18
   9   3  -4   33.05    1.12
  -9   3   4   33.30    1.20
  -9   3   4   34.76    1.27
  -9   3   4   33.17    0.99
   9   3  -4   32.74    1.19
   7  -3  -4   52.14    1.79
  -7  -3   4   52.58    1.62
  -7  -3   4   50.96    1.57
   7  -3  -4   50.19    1.58
   7  -3  -4   51.47    1.60
  -7  -3   4   48.62    1.76
   7   3  -4   52.71    1.21
  -7   3   4   52.68    1.54
  -7   3   4   50.79    1.57
   7   3  -4   48.38    1.48
  -7   3   4   49.11    1.22
  -7   3   4   48.76    1.27
   7   3  -4   53.48    1.66
   7   3  -4   52.18    1.57
  -7   3   4   49.53    1.57
   7   3  -4   49.86    1.56
   7   3  -4   49.60    1.54
  -7   3   4   52.82    1.64
   7   3  -4   52.71    1.22
  -7   3   4   50.61    1.52
   5  -3  -4   22.59    0.99
   5  -3  -4   23.05    0.89
  -5  -3   4   24.75    0.94
   5  -3  -4   23.48    0.91
  -5  -3   4   23.34    1.05
  -5  -3   4   24.06    0.95
  -5  -3   4   23.32    0.82
   5   3  -4   24.87    0.70
  -5   3   4   24.06    0.85
  -5   3   4   24.09    0.89
   5   3  -4   22.74    0.86
  -5   3   4   24.61    0.86
  -5   3   4   23.54    0.74
   5   3  -4   25.34    0.98
  -5   3   4   22.89    0.90
  -5   3   4   24.22    0.86
   5   3  -4   23.86    0.70
   5   3  -4   23.53    0.93
   5   3  -4   23.72    0.92
   3  -3  -4   61.18    1.69
   3  -3  -4   61.28    1.87
  -3  -3   4   59.80    1.76
  -3  -3   4   59.26    1.99
  -3  -3   4   63.15    1.82
   3   3  -4   61.68    1.51
   3   3  -4   63.66    1.50
  -3   3   4   61.12    1.60
   3   3  -4   57.90    1.76
   3   3  -4   58.70    1.74
  -3   3   4   60.74    1.63
  -3   3   4   59.21    1.65
   3   3  -4   60.36    1.70
   3   3  -4   62.31    1.91
  -3   3   4   61.20    1.60
  -3   3   4   59.49    1.62
   1  -3  -4   15.36    0.62
  -1  -3   4   15.24    0.72
   1  -3  -4   17.17    0.65
  -1  -3   4   14.45    0.81
   1  -3  -4   15.43    0.61
   1  -3  -4   14.71    0.74
  -1  -3   4   15.69    0.84
   1  -3  -4   15.02    0.67
   1  -3  -4   16.18    0.61
   1   3  -4   15.05    0.57
   1   3  -4   15.07    0.77
   1   3  -4   15.50    0.69
  -1   3   4   15.34    0.60
   1   3  -4   15.94    0.59
  -1   3   4   15.57    0.78
   1   3  -4   15.72    0.74
  -1   3   4   16.06    0.51
   1   3  -4   16.00    0.73
   1   3  -4   14.20    0.79
  -1   3   4   14.80    0.64
  -1   3   4   15.10    0.55
  -1   3   4   14.67    0.52
  -1  -3  -4  138.36    3.45
   1  -3   4  131.86    3.68
  -1  -3  -4  141.84    3.44
  -1  -3  -4  136.42    3.17
  -1  -3  -4  139.18    3.16
  -1  -3  -4  134.22    3.17
   1  -3   4  138.95    3.45
   1  -3   4  130.82    3.85
  -1  -3  -4  133.12    3.15
  -1  -3  -4  132.72    3.53
  -1  -3  -4  136.96    3.52
   1   3   4  140.82    3.11
   1   3   4  136.61    3.56
  -1   3  -4  137.63    3.43
  -1   3  -4  134.24    3.77
  -1   3  -4  135.31    3.74
  -1   3  -4  139.05    3.14
   1   3   4  137.26    3.13
  -1   3  -4  141.36    3.15
  -1   3  -4  134.46    3.46
  -1   3  -4  138.13    3.38
  -1   3  -4  134.67    3.65
  -1   3  -4  134.63    3.37
   1   3   4  138.43    3.02
   1   3   4  136.67    3.45
   3  -3   4   10.31    0.66
  -3  -3  -4   10.47    0.60
  -3  -3  -4   12.22    0.49
   3  -3   4   11.77    0.59
   3  -3   4   11.08    0.73
  -3  -3  -4   10.58    0.52
  -3  -3  -4   10.99    0.44
  -3  -3  -4   10.00    0.42
   3  -3   4   10.55    0.63
  -3  -3  -4   10.23    0.44
  -3  -3  -4    9.95    0.42
   3   3   4   11.09    0.62
  -3   3  -4   11.11    0.69
  -3   3  -4   10.99    0.70
  -3   3  -4   10.51    0.64
  -3   3  -4    9.74    0.61
   3   3   4   10.05    0.49
  -3   3  -4   10.73    0.53
   3   3   4   11.27    0.42
  -3   3  -4   10.22    0.66
  -3   3  -4   11.64    0.54
  -3   3  -4   10.76    0.62
  -3   3  -4   10.57    0.60
  -3   3  -4   11.04    0.62
  -5  -3  -4    6.36    0.48
  -5  -3  -4    6.34    0.33
   5  -3   4    6.89    0.52
  -5  -3  -4    6.88    0.34
  -5  -3  -4    6.88    0.37
  -5  -3  -4    6.44    0.34
   5  -3   4    6.89    0.54
   5  -3   4    6.17    0.56
  -5  -3  -4    6.88    0.32
  -5  -3  -4    7.01    0.33
  -5   3  -4    6.27    0.55
  -5   3  -4    6.46    0.49
   5   3   4    6.30    0.30
  -5   3  -4    6.90    0.53
  -5   3  -4    6.55    0.52
  -5   3  -4    5.69    0.40
  -5   3  -4    6.18    0.48
   5   3   4    6.69    0.62
   5   3   4    5.82    0.30
  -5   3  -4    5.98    0.42
   5   3   4    6.71    0.52
   5   3   4    6.02    0.42
  -5   3  -4    6.37    0.52
  -5   3  -4    5.84    0.49
  -7  -3  -4   11.60    0.45
   7  -3   4   11.26    0.70
  -7  -3  -4   11.54    0.50
   7  -3   4   11.04    0.78
  -7  -3  -4   11.71    0.46
   7  -3   4   10.41    0.68
  -7  -3  -4   11.40    0.47
  -7  -3  -4   12.30    0.67
  -7  -3  -4   11.03    0.45
  -7  -3  -4   12.02    0.48
  -7   3  -4   11.98    0.61
   7   3   4   11.24    0.44
  -7   3  -4   11.46    0.59
  -7   3  -4   11.12    0.63
  -7   3  -4   11.21    0.74
  -7   3  -4   10.92    0.66
  -7   3  -4   11.74    0.67
  -7   3  -4   11.29    0.70
   7   3   4   11.97    0.62
   7   3   4   12.75    0.74
  -7   3  -4   11.43    0.71
   7   3   4   12.13    0.80
   7   3   4   10.92    0.43
   9  -3   4    1.91    0.37
  -9  -3  -4    1.71    0.22
  -9  -3  -4    1.82    0.22
  -9  -3  -4    1.54    0.21
  -9  -3  -4    1.14    0.27
  -9  -3  -4    1.64    0.23
  -9  -3  -4    1.66    0.22
   9  -3   4    1.65    0.36
   9  -3   4    1.67    0.38
   9  -3   4    1.04    0.27
   9   3   4    1.50    0.28
  -9   3  -4    1.49    0.28
  -9   3  -4    1.55    0.29
  -9   3  -4    1.55    0.26
  -9   3  -4    1.05    0.30
   9   3   4    1.72    0.21
   9   3   4    1.78    0.22
  -9   3  -4    1.45    0.34
  -9   3  -4    1.94    0.37
   9   3   4    1.74    0.37
  -9   3  -4    1.78    0.35
   9   3   4    1.83    0.37
 -11  -3  -4   50.98    1.62
 -11  -3  -4   52.06    1.65
  11  -3   4   53.26    1.74
  11  -3   4   53.73    2.03
  11  -3   4   51.43    1.82
 -11  -3  -4   53.96    1.50
  11  -3   4   53.54    2.10
 -11  -3  -4   55.05    1.47
  11   3   4   51.82    1.72
  11   3   4   53.40    1.92
 -11   3  -4   54.38    1.69
 -11   3  -4   54.77    1.65
 -11   3  -4   50.30    1.79
  11   3   4   52.38    1.45
 -11   3  -4   54.04    1.89
 -11   3  -4   49.87    1.53
 -11   3  -4   52.53    1.93
  11   3   4   54.19    1.45
 -11   3  -4   56.86    1.84
  11   3   4   50.58    1.91
  13  -3   4    0.41    0.26
 -13  -3  -4    0.48    0.19
 -13  -3  -4    0.42    0.20
  13  -3   4    0.76    0.25
  13  -3   4    0.55    0.29
 -13  -3  -4    0.42    0.20
  13  -3   4    1.00    0.32
 -13  -3  -4    1.01    0.23
 -13   3  -4    0.20    0.25
  13   3   4    0.66    0.12
  13   3   4    0.74    0.31
 -13   3  -4    0.57    0.28
 -13   3  -4    0.90    0.33
 -13   3  -4    0.19    0.25
  13   3   4    0.60    0.29
  13   3   4    0.62    0.12
  13   3   4    0.78    0.23
 -13   3  -4    0.49    0.24
  13   3   4    0.47    0.23
 -15  -3  -4    9.61    0.55
 -15  -3  -4    8.93    0.61
  15  -3   4    9.62    0.68
  15  -3   4    9.45    0.77
  15   3   4    8.99    0.68
 -15   3  -4    8.38    0.71
 -15   3  -4    9.88    0.78
 -15   3  -4    9.62    0.78
  15   3   4    9.14    0.75
 -15   3  -4   10.38    0.71
  15   3   4   10.09    0.60
  15   3   4    7.55    0.82
 -15   3  -4    9.82    0.73
  15   3   4    9.04    0.40
 -17  -3  -4   37.33    1.48
  17  -3   4   35.46    1.59
  17  -3   4   39.21    1.49
 -17  -3  -4   38.15    1.31
  17   3   4   37.38    1.55
 -17   3  -4   35.97    1.47
 -17   3  -4   39.15    1.62
 -17   3  -4   37.03    1.64
 -17   3  -4   37.81    1.63
  17   3   4   33.78    1.66
  17   3   4   38.02    1.11
 -17   3  -4   36.57    1.66
  17   3   4   37.45    1.57
  19  -3   4   46.76    1.76
  19  -3   4   49.47    1.93
  19  -3   4   48.94    1.94
 -19  -3  -4   45.73    1.79
  19  -3   4   47.66    1.75
 -19  -3  -4   46.30    1.59
  19   3   4   48.31    1.84
 -19   3  -4   48.63    2.01
  19   3   4   47.93    1.37
  19   3   4   44.11    1.82
 -19   3  -4   44.36    1.74
  19   3   4   40.66    1.93
 -19   3  -4   42.52    1.88
 -19   3  -4   44.71    1.85
  21  -3   4   17.23    1.15
  21  -3   4   16.37    0.99
  21  -3   4   15.31    0.99
 -21  -3  -4   18.68    0.95
 -21  -3  -4   16.88    1.04
  21  -3   4   15.93    1.09
 -21   3  -4   15.81    1.15
  21   3   4   16.33    1.08
 -21   3  -4   15.97    1.11
 -21   3  -4   16.85    1.11
  21   3   4   16.93    1.20
  21   3   4   16.56    0.73
  23  -3   4    5.24    0.79
  23  -3   4    4.85    0.67
 -23  -3  -4    5.76    0.66
 -23   3  -4    4.62    0.71
 -23   3  -4    5.09    0.78
  23   3   4    5.14    0.82
 -23   3  -4    5.69    0.76
  25  -3   4    6.27    0.87
  25  -3   4    7.24    0.83
 -25  -3  -4    5.46    0.68
  25   3   4    5.59    0.91
 -25   3  -4    7.04    0.88
 -25   3  -4    5.68    0.81
 -27  -3  -4    5.28    0.69
  27  -3   4    4.49    0.79
 -27   3  -4    5.57    0.82
 -27   3  -4    5.26    0.84
 -26  -4   4    7.63    0.87
  26  -4  -4    7.55    1.01
  26   4  -4    8.74    1.18
 -26   4   4    9.59    0.91
 -24  -4   4   17.09    1.10
  24  -4  -4   17.11    1.22
 -24   4   4   16.23    1.01
  24   4  -4   17.31    1.39
  22  -4  -4    3.22    0.65
  22  -4  -4    2.47    0.56
 -22  -4   4    2.34    0.50
  22   4  -4    2.49    0.43
 -22   4   4    3.25    0.51
  22   4  -4    2.34    0.63
  20  -4  -4   17.38    1.13
 -20  -4   4   17.74    1.17
  20  -4  -4   16.06    1.10
 -20  -4   4   16.99    0.99
 -20   4   4   17.47    1.15
  20   4  -4   16.20    1.27
 -20   4   4   16.67    1.14
  20   4  -4   16.96    0.90
 -20   4   4   17.47    0.93
 -18  -4   4   18.09    0.99
 -18  -4   4   19.31    1.17
  18  -4  -4   19.08    1.15
  18  -4  -4   19.49    1.16
  18   4  -4   16.30    1.25
 -18   4   4   17.78    1.13
 -18   4   4   19.86    0.92
 -18   4   4   18.73    1.13
  18   4  -4   19.46    0.93
 -16  -4   4   17.20    1.07
  16  -4  -4   16.87    1.04
 -16  -4   4   17.88    0.95
  16  -4  -4   16.13    1.01
 -16   4   4   18.61    0.84
 -16   4   4   18.69    1.08
 -16   4   4   17.19    1.07
  16   4  -4   18.04    1.26
  16   4  -4   17.98    0.87
 -16   4   4   18.48    1.04
  14  -4  -4    2.49    0.46
 -14  -4   4    1.83    0.40
 -14  -4   4    2.14    0.38
  14  -4  -4    2.83    0.49
 -14   4   4    1.55    0.38
 -14   4   4    1.57    0.39
 -14   4   4    1.58    0.27
  14   4  -4    1.97    0.34
  14   4  -4    2.40    0.56
 -14   4   4    1.32    0.38
 -12  -4   4   27.36    1.29
 -12  -4   4   27.69    1.12
  12  -4  -4   28.52    1.24
  12  -4  -4   28.14    1.24
 -12  -4   4   28.38    1.16
  12   4  -4   25.48    1.43
  12   4  -4   26.72    1.05
 -12   4   4   28.83    1.18
 -12   4   4   26.40    1.21
 -12   4   4   27.52    1.20
 -12   4   4   26.12    1.17
 -12   4   4   25.82    0.86
  10  -4  -4   12.70    0.84
 -10  -4   4   11.68    0.78
 -10  -4   4   13.33    0.71
 -10  -4   4   11.74    0.70
  10  -4  -4   11.51    0.73
  10  -4  -4   11.84    0.75
  10   4  -4   11.00    0.92
 -10   4   4   10.85    0.72
 -10   4   4   13.11    0.75
 -10   4   4   11.82    0.70
 -10   4   4   13.23    0.71
  10   4  -4   11.37    0.63
   8  -4  -4    3.37    0.45
   8  -4  -4    4.43    0.49
  -8  -4   4    4.66    0.53
   8  -4  -4    4.61    0.55
  -8  -4   4    4.47    0.49
  -8  -4   4    4.25    0.46
   8   4  -4    3.71    0.41
   8   4  -4    4.44    0.48
   8   4  -4    4.56    0.67
  -8   4   4    3.55    0.45
  -8   4   4    4.23    0.46
  -8   4   4    4.59    0.45
   6  -4  -4   53.74    1.83
  -6  -4   4   53.40    1.64
  -6  -4   4   50.84    1.84
   6  -4  -4   50.37    1.60
   6  -4  -4   51.86    1.62
  -6  -4   4   52.50    1.66
   6   4  -4   50.33    1.59
   6   4  -4   53.26    1.63
   6   4  -4   52.69    1.58
   6   4  -4   51.26    1.52
  -6   4   4   49.58    1.59
   6   4  -4   52.13    1.79
   6   4  -4   53.51    2.05
  -6   4   4   51.42    1.51
  -6   4   4   54.77    1.57
   4  -4  -4   13.49    0.72
  -4  -4   4   12.83    0.69
  -4  -4   4   13.91    0.89
   4  -4  -4   14.26    0.67
  -4  -4   4   11.89    0.76
   4  -4  -4   15.36    0.87
  -4  -4   4   14.52    0.74
   4  -4  -4   13.15    0.64
   4   4  -4   12.40    0.76
   4   4  -4   14.25    0.69
   4   4  -4   12.94    0.62
   4   4  -4   14.02    0.71
  -4   4   4   13.24    0.65
  -4   4   4   13.96    0.54
   4   4  -4   13.81    0.94
  -4   4   4   13.81    0.59
   4   4  -4   14.02    0.69
   2  -4  -4   18.85    0.74
  -2  -4   4   18.89    0.87
   2  -4  -4   18.69    0.82
   2  -4  -4   18.63    0.73
  -2  -4   4   18.37    0.97
   2  -4  -4   19.91    0.75
  -2  -4   4   18.22    1.04
   2  -4  -4   18.80    0.97
  -2   4   4   19.67    0.63
   2   4  -4   19.51    0.84
  -2   4   4   19.59    0.75
   2   4  -4   19.77    0.80
   2   4  -4   18.64    0.85
   2   4  -4   20.47    0.87
   2   4  -4   19.75    1.08
   2   4  -4   20.11    1.00
  -2   4   4   19.04    0.75
   0  -4  -4    3.26    0.28
   0  -4   4    3.48    0.42
   0  -4  -4    3.23    0.43
   0  -4   4    3.70    0.48
   0  -4  -4    3.78    0.29
   0  -4  -4    3.40    0.29
   0  -4   4    2.96    0.47
   0  -4  -4    3.08    0.30
   0   4  -4    3.50    0.42
   0   4  -4    3.29    0.38
   0   4   4    3.47    0.28
   0   4  -4    2.54    0.43
   0   4  -4    3.54    0.20
   0   4  -4    2.95    0.47
   0   4  -4    3.92    0.44
   0   4   4    3.51    0.38
  -2  -4  -4   41.68    1.14
  -2  -4  -4   38.37    1.13
  -2  -4  -4   42.83    1.26
  -2  -4  -4   42.99    1.13
   2  -4   4   41.69    1.67
   2  -4   4   42.43    1.46
  -2  -4  -4   42.48    1.13
   2  -4   4   37.89    1.61
  -2  -4  -4   42.79    1.56
  -2   4  -4   42.10    1.44
  -2   4  -4   40.64    1.44
   2   4   4   42.35    1.43
  -2   4  -4   41.45    1.12
  -2   4  -4   42.75    1.13
  -2   4  -4   42.59    1.62
   2   4   4   41.87    1.23
  -2   4  -4   44.04    1.67
  -2   4  -4   41.99    1.38
   2   4   4   41.88    1.11
  -4  -4  -4   64.28    1.56
  -4  -4  -4   66.87    1.57
   4  -4   4   60.30    2.25
  -4  -4  -4   62.75    1.57
  -4  -4  -4   64.13    1.83
  -4  -4  -4   64.82    1.57
   4  -4   4   61.09    2.19
  -4  -4  -4   63.25    2.11
   4  -4   4   60.78    1.98
  -4  -4  -4   64.98    1.74
  -4   4  -4   65.21    2.19
  -4   4  -4   64.58    1.93
   4   4   4   67.18    2.04
   4   4   4   70.81    2.39
  -4   4  -4   61.58    1.99
  -4   4  -4   66.10    2.03
  -4   4  -4   62.75    1.67
   4   4   4   64.42    1.80
   4   4   4   65.91    1.52
  -4   4  -4   70.17    1.72
  -4   4  -4   66.13    2.00
  -4   4  -4   65.48    1.97
  -4   4  -4   65.50    2.21
  -6  -4  -4    1.07    0.15
  -6  -4  -4    1.25    0.15
  -6  -4  -4    1.11    0.30
  -6  -4  -4    1.22    0.15
   6  -4   4    1.37    0.36
   6  -4   4    1.15    0.31
  -6  -4  -4    1.31    0.22
  -6  -4  -4    1.01    0.14
   6  -4   4    1.27    0.36
  -6  -4  -4    1.12    0.15
  -6   4  -4    1.01    0.22
  -6   4  -4    1.75    0.35
   6   4   4    1.03    0.38
  -6   4  -4    1.10    0.30
  -6   4  -4    1.03    0.30
  -6   4  -4    1.69    0.36
   6   4   4    1.19    0.26
  -6   4  -4    0.77    0.28
   6   4   4    0.92    0.13
   6   4   4    0.78    0.25
   6   4   4    0.96    0.13
  -6   4  -4    0.86    0.34
  -6   4  -4    1.62    0.26
  -8  -4  -4   23.50    0.68
  -8  -4  -4   24.17    1.13
   8  -4   4   21.48    1.22
   8  -4   4   25.64    1.22
   8  -4   4   24.35    1.12
  -8  -4  -4   24.94    0.69
  -8  -4  -4   23.17    0.76
   8  -4   4   23.57    1.23
  -8  -4  -4   22.94    0.68
   8   4   4   24.30    1.30
   8   4   4   22.85    0.99
   8   4   4   24.53    0.69
   8   4   4   25.59    1.17
   8   4   4   23.22    0.66
  -8   4  -4   24.87    0.95
  -8   4  -4   23.43    1.12
  -8   4  -4   24.10    1.23
  -8   4  -4   22.79    1.06
  -8   4  -4   23.18    0.91
  -8   4  -4   24.08    1.07
  -8   4  -4   23.41    1.12
  10  -4   4    7.36    0.66
  10  -4   4    6.58    0.75
 -10  -4  -4    7.05    0.39
  10  -4   4    7.26    0.63
 -10  -4  -4    8.94    0.67
 -10  -4  -4    7.67    0.36
 -10  -4  -4    7.40    0.41
 -10   4  -4    6.80    0.56
 -10   4  -4    7.03    0.76
 -10   4  -4    7.83    0.66
 -10   4  -4    8.10    0.55
  10   4   4    7.96    0.38
  10   4   4    8.06    0.69
  10   4   4    6.97    0.80
 -10   4  -4    6.84    0.51
 -10   4  -4    7.52    0.75
  10   4   4    7.79    0.58
 -10   4  -4    7.46    0.60
  10   4   4    7.19    0.36
  12  -4   4   23.61    1.03
 -12  -4  -4   22.02    0.86
 -12  -4  -4   22.25    1.13
 -12  -4  -4   22.52    0.75
  12  -4   4   20.37    1.28
 -12  -4  -4   21.96    0.88
  12  -4   4   24.03    1.19
 -12   4  -4   22.63    1.01
 -12   4  -4   21.73    0.95
  12   4   4   23.78    1.23
  12   4   4   22.46    1.26
 -12   4  -4   22.74    1.18
  12   4   4   23.48    1.09
  12   4   4   22.74    0.78
 -12   4  -4   22.90    1.25
 -12   4  -4   23.31    1.13
 -12   4  -4   23.66    0.99
 -12   4  -4   23.00    1.17
 -14  -4  -4   25.82    0.86
 -14  -4  -4   23.82    0.97
  14  -4   4   25.11    1.08
  14  -4   4   24.61    1.26
  14   4   4   24.22    1.31
 -14   4  -4   23.74    1.09
  14   4   4   24.11    1.31
 -14   4  -4   19.52    1.17
  14   4   4   23.35    1.15
 -14   4  -4   25.74    1.23
 -14   4  -4   23.72    1.24
  14   4   4   24.39    0.89
 -14   4  -4   23.56    1.31
 -16  -4  -4   12.46    0.62
  16  -4   4   12.35    0.93
 -16  -4  -4   11.93    0.70
  16  -4   4   12.58    0.78
 -16   4  -4   12.80    0.82
 -16   4  -4   13.92    0.93
  16   4   4   11.90    0.96
 -16   4  -4   10.84    0.88
  16   4   4   12.65    0.87
 -16   4  -4   11.24    0.90
 -16   4  -4   13.61    1.00
  16   4   4   13.36    0.99
  18  -4   4    0.84    0.41
 -18  -4  -4    1.60    0.31
  18  -4   4    1.73    0.45
 -18   4  -4    0.52    0.37
  18   4   4    0.20    0.28
  18   4   4    0.64    0.36
 -18   4  -4    1.05    0.41
 -18   4  -4    0.34    0.30
  18   4   4    1.11    0.36
 -18   4  -4    1.11    0.34
  20  -4   4    2.73    0.51
  20  -4   4    2.48    0.56
 -20  -4  -4    2.25    0.39
  20  -4   4    2.97    0.62
 -20   4  -4    2.69    0.61
 -20   4  -4    2.56    0.58
  20   4   4    3.39    0.66
 -20   4  -4    3.48    0.56
 -20   4  -4    2.16    0.56
  20   4   4    1.65    0.50
  20   4   4    2.71    0.54
  22  -4   4    6.26    0.86
 -22  -4  -4    6.08    0.61
  22  -4   4    5.56    0.71
 -22   4  -4    4.93    0.80
  22   4   4    5.20    0.83
 -22   4  -4    6.09    0.81
  24  -4   4   19.14    1.32
 -24  -4  -4   19.99    1.04
 -24   4  -4   20.23    1.34
 -26  -4  -4   24.08    1.23
  26  -4   4   25.10    1.58
 -26   4  -4   25.11    1.55
 -23  -5   4   11.03    0.88
  23  -5  -4   12.48    1.06
  23   5  -4   14.69    1.32
 -23   5   4   11.96    0.77
  21  -5  -4    9.51    1.04
 -21  -5   4   10.12    0.81
  21   5  -4   11.25    1.30
 -21   5   4    9.57    1.06
 -21   5   4    9.90    0.65
 -19  -5   4   18.32    1.01
  19  -5  -4   18.14    1.19
 -19   5   4   16.93    1.17
 -19   5   4   16.68    0.79
  19   5  -4   19.03    1.43
 -17  -5   4    6.60    0.67
  17  -5  -4    7.83    0.86
 -17   5   4    6.96    0.43
 -17   5   4    7.83    0.83
 -17   5   4    7.03    0.84
 -17   5   4    6.93    0.41
  17   5  -4    6.76    0.97
  17   5  -4    6.90    0.51
 -15  -5   4   11.33    0.87
  15  -5  -4   10.94    0.85
 -15  -5   4   11.56    0.74
 -15   5   4   10.30    0.85
  15   5  -4   10.85    0.61
 -15   5   4    9.65    0.78
  15   5  -4   11.16    1.19
 -13  -5   4    1.56    0.37
 -13  -5   4    0.88    0.33
  13  -5  -4    1.55    0.40
  13   5  -4    1.79    0.29
 -13   5   4    1.27    0.39
  13   5  -4    1.34    0.34
 -13   5   4    1.38    0.37
  13   5  -4    1.88    0.55
  11  -5  -4    3.39    0.50
 -11  -5   4    3.49    0.52
 -11  -5   4    3.10    0.44
 -11   5   4    3.32    0.52
 -11   5   4    3.58    0.49
  11   5  -4    2.89    0.46
  11   5  -4    3.79    0.39
  11   5  -4    4.38    0.74
  -9  -5   4    5.14    0.61
   9  -5  -4    4.65    0.55
  -9  -5   4    4.73    0.51
   9   5  -4    4.36    0.54
   9   5  -4    6.00    0.81
  -9   5   4    5.07    0.58
   9   5  -4    4.91    0.41
  -9   5   4    5.31    0.52
  -7  -5   4   17.00    0.85
  -7  -5   4   17.52    0.97
  -7  -5   4   15.99    1.09
   7  -5  -4   16.31    0.94
   7  -5  -4   16.60    0.84
   7   5  -4   17.70    1.19
   7   5  -4   16.86    0.94
  -7   5   4   16.72    0.86
   7   5  -4   18.21    0.77
  -7   5   4   17.36    0.78
  -5  -5   4   16.79    0.84
  -5  -5   4   15.48    1.07
   5  -5  -4   17.86    0.92
   5  -5  -4   17.09    0.81
  -5  -5   4   17.22    0.97
   5   5  -4   16.82    0.77
   5   5  -4   17.55    1.15
  -5   5   4   16.73    0.68
   5   5  -4   16.47    0.94
  -5   5   4   17.29    0.83
  -3  -5   4    8.71    0.78
  -3  -5   4    8.23    0.67
   3  -5  -4    8.28    0.71
   3  -5  -4    8.36    0.51
   3  -5  -4    7.90    0.57
  -3  -5   4    8.71    0.60
   3   5  -4    8.68    0.56
  -3   5   4    8.86    0.35
  -3   5   4    8.71    0.54
   3   5  -4    7.92    0.89
   3   5  -4    8.60    0.71
   1  -5  -4    8.44    0.70
   1  -5  -4    8.20    0.52
  -1  -5   4    8.08    0.86
   1  -5  -4    7.69    0.45
  -1  -5   4    7.83    0.59
  -1  -5   4    8.92    0.70
   1   5  -4    7.65    0.67
   1   5  -4    7.59    0.85
  -1   5   4    6.97    0.44
   1   5  -4    7.81    0.54
  -1  -5  -4   11.01    0.79
  -1  -5  -4   10.94    0.49
   1  -5   4   11.19    0.72
  -1  -5  -4   12.23    0.58
   1  -5   4   10.58    0.80
   1  -5   4   11.42    0.89
  -1   5  -4   11.28    0.90
   1   5   4   12.21    0.52
  -1   5  -4   11.46    0.74
   1   5   4   11.79    0.67
  -1   5  -4   11.10    0.68
  -1   5  -4    9.69    0.77
   3  -5   4   12.50    0.77
  -3  -5  -4   11.45    0.83
   3  -5   4   11.54    0.85
  -3  -5  -4   11.05    0.50
  -3  -5  -4   11.88    0.44
   3  -5   4   11.25    0.88
  -3   5  -4   10.36    0.69
  -3   5  -4   13.57    0.95
   3   5   4   11.80    0.73
  -3   5  -4   10.61    0.74
  -3   5  -4   10.77    0.82
   3   5   4   10.94    0.44
   3   5   4   11.63    0.93
   5  -5   4    6.09    0.65
  -5  -5  -4    6.91    0.32
   5  -5   4    6.83    0.77
   5  -5   4    6.50    0.76
  -5  -5  -4    6.27    0.71
  -5   5  -4    6.89    0.28
  -5   5  -4    6.06    0.66
  -5   5  -4    6.86    0.77
   5   5   4    6.95    0.60
  -5   5  -4    5.81    0.71
  -5   5  -4    6.64    0.57
   5   5   4    5.65    0.78
   7  -5   4    0.24    0.26
  -7  -5  -4    0.18    0.23
   7  -5   4    0.75    0.32
   7  -5   4    0.40    0.30
   7   5   4    0.03    0.25
   7   5   4    0.47    0.21
  -7   5  -4    0.62    0.33
  -7   5  -4    0.39    0.15
  -7   5  -4    0.40    0.29
  -7   5  -4    0.37    0.27
   7   5   4    0.10    0.29
  -7   5  -4   -0.22    0.19
  -7   5  -4    0.16    0.14
   9  -5   4   22.20    1.16
  -9  -5  -4   22.14    1.19
   9  -5   4   20.64    1.27
   9  -5   4   19.07    1.18
  -9   5  -4   19.41    1.06
   9   5   4   19.99    0.97
  -9   5  -4   21.07    0.82
  -9   5  -4   19.27    1.07
   9   5   4   22.97    1.38
  -9   5  -4   19.36    0.78
   9   5   4   20.45    1.14
  -9   5  -4   20.03    1.12
 -11  -5  -4   13.27    0.92
 -11  -5  -4   12.45    0.52
 -11  -5  -4   12.91    0.54
  11  -5   4   12.43    0.90
 -11   5  -4   13.53    0.94
 -11   5  -4   13.18    0.70
 -11   5  -4   11.96    0.84
  11   5   4   14.52    1.12
 -11   5  -4   11.05    0.93
 -11   5  -4   12.62    0.88
  11   5   4   11.58    0.78
 -11   5  -4   12.66    0.66
  11   5   4   12.51    0.46
  11   5   4   13.49    0.95
  11   5   4   12.98    0.48
 -13  -5  -4    3.47    0.56
  13  -5   4    3.12    0.56
  13   5   4    3.42    0.67
  13   5   4    2.57    0.29
 -13   5  -4    3.65    0.60
  13   5   4    3.23    0.50
 -13   5  -4    3.07    0.42
 -13   5  -4    3.53    0.60
  13   5   4    3.09    0.59
 -13   5  -4    2.54    0.56
 -13   5  -4    2.93    0.40
 -15  -5  -4    9.61    0.84
  15  -5   4   10.60    0.87
 -15  -5  -4   10.30    0.48
 -15   5  -4    9.53    1.01
 -15   5  -4   10.52    0.71
  15   5   4   11.27    0.93
 -15   5  -4    8.13    0.89
  15   5   4   11.46    1.01
  15   5   4   11.02    0.57
  15   5   4   10.48    0.81
 -15   5  -4    9.42    0.96
 -17  -5  -4    4.61    0.38
  17  -5   4    5.90    0.82
 -17  -5  -4    6.12    0.78
  17   5   4    5.41    0.70
  17   5   4    5.64    0.83
  17   5   4    4.58    0.76
 -17   5  -4    3.80    0.68
 -17   5  -4    4.01    0.69
 -17   5  -4    5.21    0.60
  19  -5   4    2.83    0.62
 -19  -5  -4    2.43    0.35
  19  -5   4    2.61    0.59
 -19   5  -4    2.26    0.58
 -19   5  -4    2.21    0.44
  19   5   4    2.93    0.66
  19   5   4    2.31    0.57
 -21  -5  -4    3.83    0.46
  21  -5   4    3.83    0.70
  21   5   4    4.00    0.76
 -21   5  -4    4.02    0.59
  23  -5   4    2.24    0.63
 -23   5  -4    1.48    0.43
  20  -6  -4    2.33    0.60
 -20  -6   4    2.83    0.52
  20   6  -4    2.26    0.72
 -20   6   4    1.89    0.61
  18  -6  -4    3.07    0.62
 -18  -6   4    1.74    0.43
 -18   6   4    0.99    0.47
  18   6  -4    0.58    0.48
 -16  -6   4    8.69    0.68
  16  -6  -4    9.38    0.96
 -16   6   4    8.64    0.93
  16   6  -4    6.62    1.02
 -14  -6   4   11.10    0.75
  14  -6  -4    9.98    0.83
 -14   6   4   10.38    0.79
  14   6  -4   10.85    1.27
 -14   6   4    9.35    0.93
  12  -6  -4    2.81    0.51
 -12  -6   4    2.93    0.47
 -12  -6   4    2.16    0.57
  12   6  -4    2.58    0.67
 -12   6   4    3.60    0.59
 -12   6   4    3.93    0.52
 -10  -6   4    3.65    0.49
 -10  -6   4    3.57    0.70
  10  -6  -4    3.93    0.56
  10   6  -4    3.05    0.69
 -10   6   4    3.96    0.49
  10   6  -4    4.27    0.59
 -10   6   4    3.17    0.53
  -8  -6   4   19.35    0.95
  -8  -6   4   20.13    1.34
   8  -6  -4   17.82    0.95
  -8   6   4   19.71    1.01
   8   6  -4   19.59    1.09
   8   6  -4   18.24    1.33
  -8   6   4   19.19    0.83
   6  -6  -4    1.07    0.31
  -6  -6   4    1.42    0.34
  -6  -6   4    1.05    0.34
  -6  -6   4    1.08    0.41
  -6   6   4    1.26    0.33
   6   6  -4    0.46    0.29
   6   6  -4    0.75    0.41
   6   6  -4    0.99    0.24
  -4  -6   4   18.85    0.95
   4  -6  -4   18.91    1.00
   4  -6  -4   18.22    0.85
  -4  -6   4   19.48    1.30
   4  -6  -4   17.44    1.16
  -4  -6   4   17.38    1.05
  -4   6   4   19.11    0.89
   4   6  -4   18.71    1.11
   4   6  -4   17.48    1.28
   4   6  -4   19.79    0.82
  -2  -6   4    2.66    0.57
  -2  -6   4    2.72    0.49
   2  -6  -4    2.09    0.47
   2  -6  -4    3.42    0.45
   2  -6  -4    3.10    0.38
  -2  -6   4    3.20    0.47
   2   6  -4    3.54    0.55
   2   6  -4    2.92    0.63
  -2   6   4    2.54    0.37
   2   6  -4    3.31    0.41
   0  -6   4    0.87    0.35
   0  -6   4    1.00    0.40
   0  -6  -4    1.55    0.25
   0  -6  -4    1.57    0.30
   0  -6   4    1.79    0.39
   0  -6  -4    1.59    0.44
   0   6  -4    1.10    0.44
   0   6  -4    1.12    0.35
   0   6  -4    1.80    0.44
   0   6  -4    1.61    0.33
   0   6   4    1.73    0.28
  -2  -6  -4    5.89    0.42
   2  -6   4    4.94    0.60
   2  -6   4    5.08    0.67
   2  -6   4    3.88    0.65
  -2  -6  -4    4.96    0.68
  -2  -6  -4    5.93    0.34
  -2   6  -4    3.90    0.55
   2   6   4    5.28    0.36
  -2   6  -4    4.99    0.54
  -2   6  -4    4.31    0.65
  -2   6  -4    6.28    0.83
  -4  -6  -4    0.45    0.15
  -4  -6  -4    0.96    0.36
   4  -6   4    1.11    0.39
   4  -6   4    0.81    0.36
   4  -6   4    0.48    0.30
   4   6   4    1.37    0.46
   4   6   4    0.60    0.15
  -4   6  -4    0.83    0.37
  -4   6  -4    0.62    0.31
  -4   6  -4    0.56    0.36
  -4   6  -4    0.94    0.30
   6  -6   4    5.69    0.77
   6  -6   4    7.30    0.76
  -6  -6  -4    6.24    0.79
   6  -6   4    6.29    0.81
  -6   6  -4    5.79    0.64
  -6   6  -4    3.91    0.66
  -6   6  -4    5.97    0.71
   6   6   4    7.48    0.96
  -6   6  -4    6.18    0.80
   8  -6   4    8.03    0.91
   8  -6   4    7.90    0.93
  -8  -6  -4    9.29    0.99
   8  -6   4    9.40    0.79
  -8   6  -4    8.91    0.96
  -8   6  -4    8.77    0.72
  -8   6  -4    9.87    0.91
   8   6   4    8.75    1.06
  -8   6  -4    7.41    0.83
  10  -6   4    7.69    0.92
  10  -6   4    7.86    0.86
 -10  -6  -4   10.21    0.88
 -10   6  -4    8.51    0.90
 -10   6  -4    9.50    1.02
 -10   6  -4    7.64    0.87
  10   6   4    9.06    1.08
 -10   6  -4    8.64    0.85
 -12  -6  -4   13.64    1.05
  12  -6   4   13.92    1.01
 -12   6  -4   11.47    0.91
 -12   6  -4   13.59    1.12
 -12   6  -4   13.08    0.57
 -12   6  -4   12.91    0.98
  12   6   4   12.94    1.17
  14  -6   4   12.87    1.00
 -14  -6  -4   11.74    1.00
 -14   6  -4   11.48    0.63
 -14   6  -4   12.05    0.63
  14   6   4   12.49    0.53
 -14   6  -4   11.84    1.00
  14   6   4   13.33    1.19
  16  -6   4    3.09    0.64
 -16  -6  -4    1.71    0.51
 -16   6  -4    1.76    0.54
  16   6   4    1.08    0.55
 -16   6  -4    2.73    0.38
  16   6   4    2.05    0.46
 -16   6  -4    2.49    0.39
  18  -6   4   -0.19    0.28
 -18   6  -4    0.19    0.23
  18   6   4    0.25    0.45
  20  -6   4   10.94    1.19
  20   6   4   11.78    1.34
 -20   6  -4   10.91    0.77
  15  -7  -4    5.32    0.76
 -15  -7   4    4.75    0.58
 -15   7   4    4.26    0.73
  15   7  -4    5.50    1.02
 -13  -7   4    0.46    0.30
  13  -7  -4    1.19    0.43
  13   7  -4    0.48    0.48
 -13   7   4    1.07    0.46
  11  -7  -4    5.73    0.71
 -11  -7   4    5.34    0.60
  11   7  -4    4.71    0.89
 -11   7   4    4.32    0.65
   9  -7  -4   12.31    0.85
  -9  -7   4   13.77    0.80
   9   7  -4   10.77    1.30
  -9   7   4   12.31    0.89
   7  -7  -4    3.79    0.52
  -7  -7   4    2.41    0.44
   7   7  -4    3.01    0.76
  -7   7   4    2.08    0.44
  -5  -7   4   18.04    0.95
   5  -7  -4   15.77    0.85
  -5   7   4   15.31    0.90
   5   7  -4   18.11    1.14
   5   7  -4   15.60    1.31
  -3  -7   4    1.01    0.47
   3  -7  -4    1.74    0.53
  -3  -7   4    0.96    0.35
   3  -7  -4    1.56    0.33
   3   7  -4    1.42    0.47
   3   7  -4    2.20    0.61
  -3   7   4    1.19    0.31
  -1  -7   4    0.40    0.30
  -1  -7   4    0.16    0.32
   1  -7  -4    0.50    0.25
   1  -7  -4    0.17    0.33
  -1   7   4    0.46    0.25
   1   7  -4    0.30    0.38
   1   7  -4    0.88    0.38
   1   7  -4    0.55    0.31
   1  -7   4    1.54    0.52
  -1  -7  -4    1.10    0.45
   1  -7   4    2.36    0.47
  -1   7  -4    1.71    0.47
  -1   7  -4    1.40    0.51
   1   7   4    1.82    0.31
  -1   7  -4    1.42    0.43
   3  -7   4    4.07    0.73
  -3  -7  -4    4.55    0.75
   3  -7   4    3.96    0.59
  -3   7  -4    3.30    0.57
  -3   7  -4    3.60    0.49
  -3   7  -4    4.05    0.68
   3   7   4    3.74    0.36
  -3   7  -4    3.44    0.72
   5  -7   4    2.50    0.63
   5  -7   4    0.62    0.37
  -5  -7  -4    1.24    0.46
   5   7   4    1.49    0.54
  -5   7  -4    1.24    0.51
  -5   7  -4    0.68    0.36
  -5   7  -4    0.84    0.35
  -5   7  -4    0.25    0.35
   5   7   4    1.08    0.19
  -7  -7  -4   10.39    1.10
   7  -7   4    9.61    0.84
   7   7   4    9.87    1.21
  -7   7  -4    9.38    0.97
  -7   7  -4   10.06    1.11
  -7   7  -4   11.82    0.82
   9  -7   4    0.19    0.35
  -9  -7  -4    0.51    0.35
   9   7   4    0.24    0.41
  -9   7  -4    0.12    0.36
  11  -7   4    0.95    0.45
 -11  -7  -4    1.14    0.48
 -11   7  -4    2.40    0.59
  11   7   4    0.78    0.52
 -13  -7  -4    9.84    1.13
  13  -7   4    8.57    1.00
 -13   7  -4   10.49    1.09
  13   7   4    9.77    1.25
  -4   8   4    1.02    0.36
  -2  -8   4    5.93    0.69
   2   8  -4    7.79    1.13
   2   8  -4    6.06    0.74
  -2   8   4    5.98    0.61
   0  -8   4    3.81    0.58
   0   8  -4    3.65    0.83
   0   8   4    2.37    0.39
   0   8  -4    2.87    0.58
   2  -8   4    8.84    0.88
  -2   8  -4    8.06    0.91
   2   8   4    9.57    0.57
  -2   8  -4   10.51    1.29
 -28   0   5    0.24    0.41
  26   0  -5    0.37    0.33
 -26   0   5    0.39    0.40
 -26   0   5    0.22    0.33
 -24   0   5    9.29    1.00
  24   0  -5    9.52    0.97
  24   0  -5    9.25    0.96
 -24   0   5    7.51    0.85
  22   0  -5   15.84    1.07
 -22   0   5   17.59    1.13
 -22   0   5   17.80    1.15
  22   0  -5   17.34    1.06
 -20   0   5    0.27    0.33
  20   0  -5    0.11    0.23
 -20   0   5   -0.01    0.27
  20   0  -5    0.58    0.31
  18   0  -5   17.96    1.03
  18   0  -5   19.00    1.14
 -18   0   5   19.03    1.06
  18   0  -5   18.28    1.04
 -18   0   5   19.75    1.10
 -16   0   5   17.87    0.92
  16   0  -5   15.83    0.93
  16   0  -5   16.35    1.02
 -16   0   5   17.29    0.98
 -16   0   5   17.77    1.07
 -16   0   5   16.61    0.92
  16   0  -5   18.12    0.97
 -16   0   5   14.73    0.89
  14   0  -5   39.38    1.67
  14   0  -5   42.74    1.54
 -14   0   5   40.26    1.56
 -14   0   5   42.97    1.56
 -14   0   5   42.11    1.73
 -14   0   5   40.53    1.49
 -14   0   5   42.84    1.47
  14   0  -5   43.55    1.59
  12   0  -5   57.15    1.80
  12   0  -5   56.36    2.01
 -12   0   5   56.18    1.77
 -12   0   5   53.82    2.00
 -12   0   5   55.60    1.80
  12   0  -5   52.41    1.81
 -12   0   5   56.22    1.71
 -12   0   5   53.53    1.83
 -10   0   5   33.03    1.21
 -10   0   5   31.18    1.12
  10   0  -5   31.45    1.34
 -10   0   5   33.74    1.12
  10   0  -5   31.18    1.13
 -10   0   5   32.73    1.20
 -10   0   5   30.90    1.34
  10   0  -5   30.25    1.22
 -10   0   5   31.06    1.22
  10   0  -5   31.20    1.19
  -8   0   5    2.52    0.36
   8   0  -5    1.65    0.31
   8   0  -5    2.04    0.37
  -8   0   5    1.23    0.27
  -8   0   5    1.87    0.33
  -8   0   5    2.65    0.34
   8   0  -5    1.64    0.30
   8   0  -5    3.14    0.37
   8   0  -5    1.46    0.30
  -8   0   5    2.22    0.35
  -6   0   5   55.07    1.68
   6   0  -5   54.80    1.85
  -6   0   5   52.50    1.54
   6   0  -5   51.83    1.67
  -6   0   5   54.60    1.66
  -6   0   5   53.29    1.83
   6   0  -5   58.20    1.68
  -6   0   5   54.68    1.63
   6   0  -5   57.08    1.58
   6   0  -5   55.77    1.67
  -6   0   5   55.07    1.64
   4   0  -5   16.60    0.74
   4   0  -5   15.79    0.71
  -4   0   5   15.33    0.70
   4   0  -5   16.01    0.68
  -4   0   5   15.70    0.71
  -4   0   5   16.49    0.74
  -4   0   5   16.42    0.66
  -4   0   5   15.60    0.73
   4   0  -5   15.56    0.79
   4   0  -5   15.22    0.74
   2   0  -5  171.55    4.08
  -2   0   5  171.12    4.08
   2   0  -5  170.78    4.53
   2   0  -5  167.63    4.02
  -2   0   5  173.45    3.85
  -2   0   5  175.59    4.09
  -2   0   5  165.40    4.02
  -2   0   5  162.40    3.96
   2   0  -5  168.54    4.09
   0   0  -5   88.78    2.37
   0   0  -5   87.37    2.30
   0   0   5   90.47    2.17
   0   0   5   87.32    2.29
   0   0  -5   88.14    2.34
   0   0   5   90.02    2.31
   0   0   5   91.78    2.37
   0   0   5   88.62    2.35
   2   0   5   23.14    0.87
  -2   0  -5   23.72    0.99
   2   0   5   23.10    0.95
   2   0   5   24.25    0.92
   2   0   5   23.57    0.87
  -2   0  -5   23.04    0.88
  -2   0  -5   24.19    0.91
  -2   0  -5   22.94    0.91
   4   0   5   17.99    0.82
  -4   0  -5   18.12    0.79
  -4   0  -5   17.58    0.70
  -4   0  -5   17.93    0.86
   4   0   5   18.10    0.77
  -4   0  -5   18.30    0.75
  -4   0  -5   17.68    0.77
   4   0   5   18.28    0.75
  -4   0  -5   16.75    0.71
   4   0   5   17.47    0.75
  -6   0  -5  203.89    4.71
  -6   0  -5  202.67    5.42
   6   0   5  200.26    4.74
   6   0   5  204.74    5.35
   6   0   5  206.78    4.86
  -6   0  -5  197.40    4.58
  -6   0  -5  205.50    4.81
  -6   0  -5  217.91    4.93
   6   0   5  203.10    5.09
   6   0   5  200.68    4.79
   8   0   5    1.22    0.29
  -8   0  -5    0.80    0.23
   8   0   5    1.27    0.27
  -8   0  -5    1.32    0.30
   8   0   5    1.04    0.26
   8   0   5    1.36    0.28
  -8   0  -5    1.57    0.27
   8   0   5    1.37    0.28
  -8   0  -5    1.01    0.22
   8   0   5    1.31    0.27
  -8   0  -5    1.20    0.15
   8   0   5    1.08    0.25
  -8   0  -5    1.21    0.27
  10   0   5    4.93    0.45
 -10   0  -5    4.66    0.46
 -10   0  -5    4.37    0.45
 -10   0  -5    4.87    0.56
  10   0   5    5.53    0.47
  10   0   5    4.39    0.52
  10   0   5    5.77    0.46
 -10   0  -5    4.80    0.46
  10   0   5    4.93    0.47
  10   0   5    4.36    0.48
 -10   0  -5    4.25    0.43
 -10   0  -5    4.84    0.49
  12   0   5   22.49    1.05
 -12   0  -5   22.86    0.94
  12   0   5   22.34    0.99
 -12   0  -5   24.10    0.96
  12   0   5   23.91    0.99
  12   0   5   22.61    1.07
 -12   0  -5   21.95    0.91
  12   0   5   23.01    1.10
 -12   0  -5   20.44    1.00
 -12   0  -5   23.20    1.16
  12   0   5   25.99    1.07
 -12   0  -5   22.67    0.98
  14   0   5   13.94    0.89
 -14   0  -5   13.94    0.85
 -14   0  -5   16.63    1.00
  14   0   5   14.31    0.85
  14   0   5   14.92    0.68
  14   0   5   16.02    0.88
 -14   0  -5   16.07    0.75
  14   0   5   15.20    0.89
  14   0   5   14.54    0.80
  14   0   5   15.74    0.86
 -14   0  -5   15.58    0.84
 -14   0  -5   15.08    0.77
 -16   0  -5  206.82    5.19
  16   0   5  207.99    5.71
  16   0   5  215.21    5.26
 -16   0  -5  211.77    5.11
  16   0   5  207.02    4.73
  16   0   5  204.79    5.51
  16   0   5  203.17    5.14
 -16   0  -5  201.66    5.26
  18   0   5    0.31    0.25
 -18   0  -5    0.11    0.25
  18   0   5    0.45    0.28
  18   0   5    0.20    0.26
  18   0   5    0.12    0.17
 -18   0  -5    0.24    0.20
 -18   0  -5    0.00    0.25
  18   0   5    0.04    0.18
  20   0   5    0.28    0.28
  20   0   5    0.03    0.16
  20   0   5   -0.18    0.17
  20   0   5    0.13    0.24
  20   0   5   -0.08    0.22
 -20   0  -5    0.12    0.21
 -20   0  -5    0.12    0.25
 -20   0  -5    0.26    0.28
  22   0   5    0.13    0.18
 -22   0  -5    0.23    0.26
  22   0   5    0.58    0.30
  22   0   5    0.74    0.33
 -22   0  -5    0.48    0.33
  22   0   5    0.31    0.29
 -24   0  -5   48.35    1.94
  24   0   5   46.13    1.86
  24   0   5   43.73    1.93
  24   0   5   45.66    2.05
  24   0   5   44.80    1.47
  26   0   5    0.65    0.43
 -26   0  -5    0.34    0.35
  28   0   5    6.68    0.93
 -28   0  -5    6.09    0.83
 -29  -1   5   19.38    1.34
  29  -1  -5   19.47    1.31
 -29   1   5   14.38    1.20
  27  -1  -5    6.38    0.85
 -27  -1   5    5.33    0.80
 -27   1   5    5.45    0.79
  25  -1  -5   14.80    1.08
 -25  -1   5   13.68    1.11
 -25  -1   5   13.55    1.05
 -25   1   5   12.60    1.02
 -25   1   5   14.55    1.16
 -23  -1   5    6.28    0.76
  23  -1  -5    6.39    0.80
  23  -1  -5    8.58    0.91
 -23  -1   5    7.70    0.87
 -23   1   5    7.06    0.82
  23   1  -5    6.47    0.77
  23   1  -5    6.23    0.75
 -23   1   5    7.27    0.88
 -21  -1   5   10.85    0.87
 -21  -1   5   10.23    0.83
  21  -1  -5    9.52    0.81
  21  -1  -5   11.81    0.88
  21   1  -5    9.43    0.77
  21   1  -5    9.61    0.80
 -21   1   5    7.99    0.85
 -21   1   5   10.96    0.89
 -19  -1   5    0.06    0.28
 -19  -1   5    0.48    0.33
  19  -1  -5    0.38    0.27
 -19  -1   5   -0.20    0.21
  19  -1  -5    0.04    0.23
  19   1  -5    0.05    0.21
 -19   1   5    0.05    0.27
  19   1  -5   -0.23    0.17
 -19   1   5    0.28    0.29
 -19   1   5    0.21    0.25
 -17  -1   5   66.38    2.21
  17  -1  -5   68.32    2.24
 -17  -1   5   61.44    2.42
 -17  -1   5   69.85    2.28
  17  -1  -5   64.56    2.24
  17   1  -5   69.37    2.01
 -17   1   5   65.28    2.08
 -17   1   5   66.12    2.21
 -17   1   5   67.17    2.24
  17   1  -5   67.48    2.16
  17   1  -5   66.75    2.39
  17   1  -5   64.93    2.21
 -17   1   5   65.94    2.28
  15  -1  -5   17.54    0.98
 -15  -1   5   18.72    0.93
 -15  -1   5   16.96    1.06
 -15  -1   5   18.58    1.00
 -15  -1   5   20.34    1.00
  15  -1  -5   19.87    1.01
  15  -1  -5   18.69    1.10
 -15   1   5   18.10    1.00
 -15   1   5   19.16    1.00
 -15   1   5   20.25    0.95
 -15   1   5   18.10    1.08
 -15   1   5   21.19    0.86
  15   1  -5   19.72    0.96
 -15   1   5   20.08    1.02
  15   1  -5   18.25    0.97
  15   1  -5   19.13    1.06
  15   1  -5   20.14    0.90
 -13  -1   5    6.75    0.63
 -13  -1   5    7.68    0.56
 -13  -1   5    7.91    0.61
 -13  -1   5    7.48    0.56
  13  -1  -5    7.71    0.61
  13  -1  -5    6.96    0.64
 -13  -1   5    8.16    0.64
  13  -1  -5    8.20    0.63
  13   1  -5    9.12    0.65
 -13   1   5    7.68    0.60
 -13   1   5    7.24    0.60
 -13   1   5    8.41    0.58
  13   1  -5    7.90    0.65
  13   1  -5    7.77    0.53
 -13   1   5    8.72    0.64
 -13   1   5    8.11    0.50
  13   1  -5    7.39    0.59
  13   1  -5    7.71    0.57
 -11  -1   5   23.66    1.04
 -11  -1   5   25.70    1.11
  11  -1  -5   25.90    1.09
 -11  -1   5   25.99    1.04
 -11  -1   5   25.54    1.01
  11  -1  -5   26.36    1.22
  11  -1  -5   22.10    1.04
 -11  -1   5   25.33    1.20
  11   1  -5   25.80    1.05
 -11   1   5   25.47    0.99
  11   1  -5   26.97    1.07
 -11   1   5   25.54    1.08
 -11   1   5   25.58    1.11
  11   1  -5   25.30    1.09
 -11   1   5   25.78    0.90
 -11   1   5   25.35    1.07
  11   1  -5   23.89    0.95
  11   1  -5   25.45    1.09
  11   1  -5   27.17    1.20
   9  -1  -5  122.52    3.60
  -9  -1   5  123.67    3.61
  -9  -1   5  120.10    3.11
   9  -1  -5  123.41    3.22
  -9  -1   5  124.58    3.07
   9  -1  -5  120.59    3.25
  -9  -1   5  120.69    3.24
   9   1  -5  117.36    3.23
  -9   1   5  121.72    3.25
  -9   1   5  123.83    3.19
  -9   1   5  126.88    3.22
   9   1  -5  126.12    3.05
   9   1  -5  122.86    3.17
  -9   1   5  130.97    3.26
   9   1  -5  125.16    3.20
   9   1  -5  122.58    3.56
  -9   1   5  126.91    2.95
  -9   1   5  124.09    3.04
   9   1  -5  126.56    3.25
  -7  -1   5    0.22    0.18
   7  -1  -5    0.48    0.21
  -7  -1   5    0.19    0.16
  -7  -1   5   -0.05    0.16
  -7  -1   5    0.63    0.21
   7  -1  -5    0.58    0.20
   7  -1  -5    0.39    0.20
  -7  -1   5    0.27    0.19
  -7   1   5    0.05    0.15
  -7   1   5    0.28    0.19
  -7   1   5    0.27    0.15
   7   1  -5    0.11    0.16
  -7   1   5    0.42    0.20
   7   1  -5    0.41    0.17
   7   1  -5   -0.02    0.14
  -7   1   5    0.17    0.18
  -7   1   5    0.48    0.20
   7   1  -5    0.38    0.19
   7   1  -5    0.46    0.20
   7   1  -5    0.28    0.18
  -5  -1   5   17.94    0.79
   5  -1  -5   17.64    0.81
  -5  -1   5   18.87    0.79
  -5  -1   5   19.04    0.84
   5  -1  -5   18.00    0.87
  -5  -1   5   19.90    0.85
  -5  -1   5   18.41    0.75
   5  -1  -5   19.02    0.80
  -5  -1   5   18.67    0.91
   5  -1  -5   18.67    0.81
   5   1  -5   17.33    0.81
  -5   1   5   16.52    0.67
  -5   1   5   17.96    0.84
  -5   1   5   18.94    0.78
   5   1  -5   18.39    0.89
  -5   1   5   18.66    0.79
   5   1  -5   18.14    0.81
  -5   1   5   16.87    0.77
   5   1  -5   17.33    0.79
  -5   1   5   17.26    0.77
   5   1  -5   18.40    0.78
  -3  -1   5   30.97    1.06
   3  -1  -5   30.17    1.07
  -3  -1   5   30.67    1.02
   3  -1  -5   27.70    1.16
  -3  -1   5   28.43    1.20
  -3  -1   5   30.76    1.12
   3  -1  -5   29.78    1.08
   3  -1  -5   30.24    1.05
  -3  -1   5   30.78    1.11
  -3   1   5   30.96    1.07
  -3   1   5   32.24    1.15
  -3   1   5   32.25    1.06
   3   1  -5   30.16    1.21
   3   1  -5   31.43    1.12
   3   1  -5   30.53    1.06
  -3   1   5   30.71    1.06
   3   1  -5   33.30    1.13
   3   1  -5   31.99    1.08
  -3   1   5   30.08    0.93
   3   1  -5   30.35    1.00
  -3   1   5   31.80    1.04
  -1  -1   5   33.04    1.15
  -1  -1   5   34.88    1.18
   1  -1  -5   36.63    1.18
   1  -1  -5   36.46    1.18
  -1  -1   5   35.17    1.34
   1  -1  -5   37.76    1.15
  -1  -1   5   36.20    1.24
   1  -1  -5   35.38    1.28
  -1  -1   5   35.93    1.12
  -1  -1   5   36.30    1.23
  -1   1   5   35.21    1.11
  -1   1   5   36.01    1.14
   1   1  -5   35.69    1.24
  -1   1   5   37.74    1.25
  -1   1   5   36.47    1.16
   1   1  -5   37.01    1.19
  -1   1   5   35.45    1.14
  -1   1   5   36.67    1.01
  -1   1   5   36.17    1.03
   1   1  -5   35.54    1.22
   1   1  -5   35.26    1.11
   1   1  -5   36.68    1.35
   1   1  -5   34.63    1.11
  -1  -1  -5  116.72    2.86
   1  -1   5  118.56    2.97
  -1  -1  -5  121.17    2.88
  -1  -1  -5  119.26    3.18
   1  -1   5  112.95    2.93
   1  -1   5  117.24    3.28
   1  -1   5  113.96    2.85
   1  -1   5  115.05    2.83
   1  -1   5  113.09    2.75
   1  -1   5  115.74    2.92
  -1  -1  -5  114.31    2.81
   1   1   5  112.62    2.69
   1   1   5  111.33    2.78
   1   1   5  114.04    2.79
  -1   1  -5  115.50    2.76
  -1   1  -5  115.18    3.28
   1   1   5  112.60    3.08
  -1   1  -5  114.84    2.97
   1   1   5  115.10    2.84
   1   1   5  110.66    2.82
  -1   1  -5  111.47    2.88
  -1   1  -5  113.52    2.93
  -1   1  -5  108.99    2.74
  -3  -1  -5   78.78    2.31
   3  -1   5   76.26    2.15
   3  -1   5   79.24    2.42
  -3  -1  -5   79.39    2.09
   3  -1   5   81.36    2.22
  -3  -1  -5   78.93    2.10
   3  -1   5   78.24    2.02
   3  -1   5   79.68    2.01
  -3  -1  -5   79.58    2.05
  -3  -1  -5   79.34    1.97
   3   1   5   78.44    2.06
  -3   1  -5   77.73    2.04
   3   1   5   73.05    2.21
  -3   1  -5   81.22    2.16
   3   1   5   76.21    2.03
  -3   1  -5   80.53    2.45
  -3   1  -5   77.35    2.13
   3   1   5   79.19    2.22
  -3   1  -5   79.83    2.05
  -3   1  -5   76.88    2.21
  -3   1  -5   77.77    2.18
   3   1   5   76.57    2.02
  -5  -1  -5  155.51    3.78
  -5  -1  -5  160.51    3.60
   5  -1   5  153.94    3.78
   5  -1   5  154.40    3.72
  -5  -1  -5  154.94    4.18
  -5  -1  -5  155.74    3.72
   5  -1   5  164.90    3.94
  -5   1  -5  160.10    3.68
   5   1   5  156.49    4.04
  -5   1  -5  155.64    4.33
  -5   1  -5  152.40    3.83
   5   1   5  154.42    3.73
   5   1   5  157.76    3.69
  -5   1  -5  152.75    3.91
  -5   1  -5  155.50    3.88
  -5   1  -5  158.03    3.80
  -5   1  -5  161.43    3.67
   5   1   5  161.40    4.07
   5   1   5  155.68    3.70
   5   1   5  153.06    4.06
  -7  -1  -5   24.72    0.85
   7  -1   5   24.95    1.03
  -7  -1  -5   24.06    0.92
  -7  -1  -5   24.92    1.06
   7  -1   5   26.08    1.07
  -7  -1  -5   25.60    0.97
  -7   1  -5   25.87    0.97
  -7   1  -5   26.88    1.03
   7   1   5   26.73    0.96
  -7   1  -5   25.30    1.07
   7   1   5   26.52    0.94
  -7   1  -5   26.16    1.05
  -7   1  -5   24.67    0.99
   7   1   5   25.40    1.09
  -7   1  -5   27.00    0.86
   7   1   5   26.84    0.92
   7   1   5   26.42    0.95
   7   1   5   27.02    0.95
   7   1   5   25.50    0.95
  -7   1  -5   26.96    1.19
  -9  -1  -5   65.64    1.85
   9  -1   5   67.04    2.18
   9  -1   5   62.73    1.80
  -9  -1  -5   64.51    1.90
  -9  -1  -5   65.13    2.11
   9  -1   5   66.28    2.03
   9  -1   5   62.91    1.96
  -9  -1  -5   58.58    1.69
   9  -1   5   63.71    2.05
  -9   1  -5   63.91    1.94
  -9   1  -5   65.04    2.26
   9   1   5   67.64    1.86
   9   1   5   68.89    1.86
  -9   1  -5   65.61    1.97
  -9   1  -5   68.09    2.01
  -9   1  -5   65.24    1.80
  -9   1  -5   64.60    1.88
   9   1   5   62.91    2.08
   9   1   5   65.01    1.94
  -9   1  -5   64.61    2.04
   9   1   5   63.66    1.80
   9   1   5   68.54    1.87
   9   1   5   67.43    1.95
 -11  -1  -5   74.85    2.04
  11  -1   5   72.08    2.15
 -11  -1  -5   72.32    2.09
 -11  -1  -5   68.56    2.29
  11  -1   5   73.12    2.38
  11  -1   5   68.73    2.23
  11  -1   5   68.92    1.96
 -11  -1  -5   73.33    1.91
 -11   1  -5   69.57    2.09
 -11   1  -5   71.75    1.99
 -11   1  -5   68.64    2.13
 -11   1  -5   69.15    2.04
  11   1   5   72.18    2.12
 -11   1  -5   71.42    2.48
  11   1   5   71.02    2.13
  11   1   5   67.23    2.09
 -11   1  -5   70.02    2.13
  11   1   5   72.20    2.03
 -11   1  -5   70.85    2.23
  11   1   5   69.92    2.29
  11   1   5   70.69    1.98
 -13  -1  -5   35.38    1.46
  13  -1   5   32.47    1.31
  13  -1   5   33.14    1.19
 -13  -1  -5   34.20    1.07
  13  -1   5   32.59    1.39
 -13  -1  -5   35.41    1.31
  13  -1   5   36.04    1.47
 -13  -1  -5   33.56    1.23
  13  -1   5   31.76    1.46
  13   1   5   34.40    1.26
  13   1   5   32.38    1.18
  13   1   5   33.04    1.43
 -13   1  -5   33.77    1.30
 -13   1  -5   33.10    1.30
  13   1   5   32.14    1.30
 -13   1  -5   31.29    1.36
 -13   1  -5   33.84    1.28
 -13   1  -5   32.69    1.33
 -13   1  -5   33.80    1.19
  13   1   5   36.12    1.26
  15  -1   5    0.12    0.24
  15  -1   5    0.68    0.22
  15  -1   5    0.59    0.29
 -15  -1  -5    0.66    0.26
  15  -1   5    0.42    0.26
 -15  -1  -5    0.80    0.25
  15  -1   5    0.59    0.25
 -15  -1  -5    0.41    0.16
 -15  -1  -5    0.77    0.28
  15   1   5    0.91    0.33
 -15   1  -5    0.39    0.23
  15   1   5    0.38    0.23
  15   1   5    0.84    0.27
  15   1   5    0.84    0.28
 -15   1  -5    0.49    0.26
 -15   1  -5    0.21    0.23
  15   1   5    0.10    0.18
 -15   1  -5    0.45    0.27
  15   1   5    0.63    0.21
  17  -1   5   60.17    2.05
  17  -1   5   62.09    2.27
 -17  -1  -5   59.00    1.66
  17  -1   5   60.66    2.14
  17  -1   5   57.11    2.02
 -17  -1  -5   56.13    1.91
 -17  -1  -5   58.49    2.00
  17   1   5   59.59    1.98
 -17   1  -5   61.04    2.07
  17   1   5   56.20    2.17
  17   1   5   56.90    1.86
 -17   1  -5   58.27    2.12
  17   1   5   56.69    2.02
 -17   1  -5   59.74    1.97
  19  -1   5   31.27    1.48
  19  -1   5   32.65    1.45
 -19  -1  -5   33.58    1.38
  19  -1   5   34.80    1.46
 -19  -1  -5   33.47    1.44
 -19  -1  -5   30.87    1.52
  19  -1   5   33.67    1.45
 -19   1  -5   31.88    1.51
  19   1   5   29.92    1.27
  19   1   5   31.84    1.44
 -19   1  -5   31.18    1.35
 -19   1  -5   30.33    1.41
  19   1   5   30.71    1.52
  21  -1   5    5.68    0.72
  21  -1   5    7.66    0.81
 -21  -1  -5    4.81    0.69
 -21  -1  -5    5.92    0.66
  21  -1   5    6.05    0.70
  21  -1   5    4.65    0.64
 -21   1  -5    5.88    0.70
  21   1   5    5.70    0.72
 -21   1  -5    6.50    0.79
  21   1   5    6.49    0.81
  21   1   5    6.51    0.66
 -21   1  -5    6.36    0.67
  23  -1   5   24.55    1.36
  23  -1   5   21.38    1.27
  23  -1   5   23.24    1.28
  23  -1   5   28.37    1.39
 -23  -1  -5   24.19    1.25
 -23   1  -5   23.24    1.40
  23   1   5   22.66    1.40
  23   1   5   24.67    1.36
  23   1   5   24.74    1.21
 -23   1  -5   23.47    1.31
  25  -1   5    0.37    0.35
 -25  -1  -5    0.06    0.32
 -25   1  -5   -0.08    0.31
  25   1   5   -0.02    0.29
 -25   1  -5    0.05    0.28
 -27  -1  -5    4.49    0.69
  27  -1   5    4.79    0.78
  27   1   5    5.21    0.86
 -27   1  -5    3.70    0.67
 -27   1  -5    3.21    0.73
  29  -1   5    0.59    0.46
 -29  -1  -5    0.51    0.41
 -29   1  -5   -0.06    0.37
  28  -2  -5    4.62    0.79
 -28  -2   5    4.80    0.78
  28   2  -5    5.47    0.42
 -28   2   5    6.29    0.93
  28   2  -5    5.95    0.45
 -26  -2   5    1.69    0.51
  26  -2  -5    1.82    0.52
  26   2  -5    1.73    0.31
  26   2  -5    1.80    0.30
 -26   2   5    1.67    0.51
  24  -2  -5   29.74    1.54
 -24  -2   5   26.30    1.43
  24  -2  -5   29.11    1.57
  24   2  -5   31.17    1.12
 -24   2   5   30.75    1.60
  22  -2  -5    8.14    0.89
 -22  -2   5    6.42    0.76
 -22  -2   5    9.00    0.93
 -22   2   5    9.05    0.96
  22   2  -5    9.36    0.77
 -22   2   5    9.28    0.77
 -22   2   5    8.79    0.93
  22   2  -5    8.86    0.57
 -20  -2   5    5.26    0.67
  20  -2  -5    6.20    0.74
 -20  -2   5    5.92    0.69
  20  -2  -5    5.12    0.69
 -20   2   5    4.57    0.66
  20   2  -5    5.95    0.47
 -20   2   5    5.21    0.71
 -20   2   5    5.12    0.62
  20   2  -5    6.64    0.71
 -18  -2   5   19.52    1.09
 -18  -2   5   20.20    1.22
 -18  -2   5   20.64    1.10
  18  -2  -5   19.87    1.13
  18  -2  -5   20.33    1.14
  18   2  -5   19.24    0.84
 -18   2   5   20.23    1.15
  18   2  -5   21.14    1.09
 -18   2   5   20.91    1.14
 -18   2   5   20.51    1.03
 -18   2   5   20.95    1.12
  18   2  -5   19.32    1.01
 -16  -2   5    7.64    0.76
 -16  -2   5    8.73    0.67
  16  -2  -5    6.83    0.72
  16  -2  -5    7.01    0.74
 -16  -2   5    6.21    0.72
 -16   2   5    7.41    0.75
 -16   2   5    7.89    0.68
 -16   2   5    8.78    0.71
 -16   2   5    8.57    0.63
  16   2  -5    8.27    0.53
  16   2  -5    7.08    0.62
  16   2  -5    8.85    0.65
 -14  -2   5    9.37    0.74
  14  -2  -5    8.51    0.67
 -14  -2   5    8.78    0.67
 -14  -2   5   10.12    0.70
  14  -2  -5    8.81    0.75
 -14   2   5    8.96    0.72
 -14   2   5    8.67    0.65
  14   2  -5    8.86    0.53
  14   2  -5    8.56    0.68
  14   2  -5    7.72    0.58
 -14   2   5    9.24    0.61
 -14   2   5    7.51    0.63
 -14   2   5    8.93    0.47
  14   2  -5    8.08    0.61
  14   2  -5    9.37    0.52
 -14   2   5    9.88    0.72
  12  -2  -5   17.44    0.93
 -12  -2   5   17.94    0.90
 -12  -2   5   17.94    1.02
 -12  -2   5   19.57    0.97
  12  -2  -5   18.77    1.06
  12  -2  -5   17.33    0.91
 -12  -2   5   17.27    0.82
  12   2  -5   19.58    0.79
 -12   2   5   19.74    0.96
  12   2  -5   21.01    0.97
 -12   2   5   20.71    1.04
  12   2  -5   18.06    0.90
 -12   2   5   18.53    0.83
  12   2  -5   18.18    0.95
  12   2  -5   17.47    0.74
  12   2  -5   18.76    0.87
 -12   2   5   19.50    0.97
 -12   2   5   19.32    0.67
 -12   2   5   17.91    0.94
  12   2  -5   18.95    0.94
 -10  -2   5    4.56    0.46
 -10  -2   5    4.21    0.52
 -10  -2   5    4.65    0.52
 -10  -2   5    4.16    0.48
  10  -2  -5    4.69    0.57
  10  -2  -5    4.46    0.50
 -10  -2   5    5.12    0.43
  10  -2  -5    3.83    0.47
 -10   2   5    5.37    0.55
 -10   2   5    4.44    0.29
  10   2  -5    6.06    0.59
 -10   2   5    3.94    0.47
  10   2  -5    4.31    0.41
  10   2  -5    5.56    0.55
  10   2  -5    4.97    0.38
  10   2  -5    4.97    0.52
 -10   2   5    4.48    0.48
  10   2  -5    5.10    0.56
  10   2  -5    4.32    0.47
 -10   2   5    4.60    0.53
 -10   2   5    3.72    0.48
 -10   2   5    5.30    0.41
  -8  -2   5   20.56    1.06
  -8  -2   5   23.27    0.92
  -8  -2   5   23.02    0.90
  -8  -2   5   21.14    0.96
   8  -2  -5   21.76    0.96
  -8  -2   5   22.44    0.96
   8  -2  -5   23.14    1.08
   8  -2  -5   23.54    0.97
   8   2  -5   22.24    0.82
  -8   2   5   22.85    1.02
   8   2  -5   21.28    0.95
  -8   2   5   21.91    0.96
  -8   2   5   23.36    0.95
  -8   2   5   23.43    0.69
  -8   2   5   21.77    0.81
   8   2  -5   22.32    0.97
   8   2  -5   22.78    0.85
   8   2  -5   24.14    0.98
  -8   2   5   23.23    0.96
   8   2  -5   24.05    1.05
  -8   2   5   20.37    0.92
   8   2  -5   21.43    0.90
  -6  -2   5   14.72    0.84
   6  -2  -5   15.81    0.74
  -6  -2   5   16.71    0.77
  -6  -2   5   16.03    0.79
   6  -2  -5   14.41    0.72
  -6  -2   5   14.84    0.69
   6  -2  -5   16.81    0.85
  -6  -2   5   15.20    0.71
   6   2  -5   15.10    0.73
   6   2  -5   13.98    0.69
  -6   2   5   14.80    0.72
   6   2  -5   15.44    0.65
  -6   2   5   15.28    0.59
   6   2  -5   13.86    0.78
  -6   2   5   13.78    0.70
  -6   2   5   14.37    0.69
   6   2  -5   15.19    0.75
  -6   2   5   14.55    0.74
   6   2  -5   15.16    0.75
  -6   2   5   15.27    0.73
   6   2  -5   14.13    0.64
  -4  -2   5   30.25    1.04
  -4  -2   5   29.25    1.23
  -4  -2   5   28.66    1.02
   4  -2  -5   28.39    1.15
  -4  -2   5   27.15    1.06
  -4  -2   5   28.35    1.11
   4  -2  -5   29.38    1.04
   4  -2  -5   31.69    1.09
   4   2  -5   30.19    1.19
   4   2  -5   30.60    0.98
  -4   2   5   28.83    0.99
   4   2  -5   30.31    1.07
   4   2  -5   28.86    1.07
  -4   2   5   29.90    1.05
  -4   2   5   29.49    0.83
  -4   2   5   29.87    1.08
  -4   2   5   28.35    1.03
   4   2  -5   28.89    0.98
  -4   2   5   30.75    1.04
   4   2  -5   29.14    1.09
   4   2  -5   29.20    1.12
  -4   2   5   29.97    1.07
   2  -2  -5   77.03    2.04
   2  -2  -5   77.76    2.07
   2  -2  -5   76.49    2.30
  -2  -2   5   73.54    2.41
  -2  -2   5   76.11    2.03
   2  -2  -5   75.28    2.07
  -2  -2   5   74.00    2.13
  -2  -2   5   76.28    2.08
  -2  -2   5   77.51    2.19
   2   2  -5   79.45    2.14
  -2   2   5   75.96    2.00
   2   2  -5   77.14    2.12
   2   2  -5   74.28    2.14
  -2   2   5   78.61    2.11
   2   2  -5   79.43    2.21
  -2   2   5   79.10    2.03
  -2   2   5   77.21    2.11
   2   2  -5   77.70    2.40
   2   2  -5   80.25    2.00
  -2   2   5   79.63    2.17
  -2   2   5   78.23    2.04
   2   2  -5   75.95    1.98
  -2   2   5   77.58    2.04
   0  -2   5    4.60    0.47
   0  -2  -5    3.54    0.36
   0  -2  -5    3.49    0.38
   0  -2  -5    4.10    0.34
   0  -2   5    3.86    0.49
   0  -2   5    4.18    0.45
   0  -2   5    3.86    0.41
   0  -2   5    4.34    0.41
   0  -2   5    3.30    0.38
   0   2  -5    3.75    0.43
   0   2  -5    3.68    0.36
   0   2   5    4.06    0.41
   0   2   5    4.44    0.34
   0   2   5    4.04    0.31
   0   2   5    3.94    0.32
   0   2  -5    4.44    0.47
   0   2   5    4.64    0.31
   0   2   5    4.85    0.35
   0   2  -5    3.94    0.41
   0   2  -5    3.78    0.47
   0   2  -5    4.28    0.46
   0   2  -5    3.73    0.37
   0   2   5    3.99    0.32
   2  -2   5   29.03    1.23
  -2  -2  -5   27.76    0.95
  -2  -2  -5   30.65    0.94
   2  -2   5   29.05    1.10
  -2  -2  -5   28.85    1.05
  -2  -2  -5   28.21    0.91
   2  -2   5   26.63    1.03
   2  -2   5   27.71    1.04
  -2  -2  -5   30.33    0.96
   2  -2   5   27.13    0.98
  -2  -2  -5   28.27    0.92
  -2   2  -5   27.83    0.98
   2   2   5   29.11    0.90
   2   2   5   28.67    0.87
   2   2   5   28.10    0.92
  -2   2  -5   28.20    1.06
   2   2   5   30.09    1.10
   2   2   5   27.32    0.88
  -2   2  -5   28.24    1.09
  -2   2  -5   27.06    1.11
  -2   2  -5   28.81    1.07
  -2   2  -5   29.28    1.22
  -2   2  -5   27.44    0.98
   4  -2   5   17.66    0.76
   4  -2   5   16.45    0.73
   4  -2   5   17.71    0.83
  -4  -2  -5   19.10    0.71
  -4  -2  -5   17.11    0.65
  -4  -2  -5   17.16    0.74
  -4  -2  -5   16.61    0.62
  -4  -2  -5   16.78    0.66
   4  -2   5   15.22    0.88
  -4   2  -5   17.93    0.80
   4   2   5   16.89    0.65
   4   2   5   16.93    0.53
  -4   2  -5   16.60    0.79
   4   2   5   15.90    0.62
  -4   2  -5   16.67    0.90
   4   2   5   16.15    0.69
  -4   2  -5   15.76    0.79
   4   2   5   16.83    0.52
  -4   2  -5   16.18    0.83
  -4   2  -5   15.86    0.80
  -4   2  -5   15.81    0.73
   4   2   5   16.66    0.82
  -4   2  -5   16.53    0.85
  -6  -2  -5   57.16    1.60
  -6  -2  -5   60.48    1.66
   6  -2   5   60.28    1.76
  -6  -2  -5   59.20    1.82
   6  -2   5   58.80    1.84
   6  -2   5   60.85    2.11
  -6  -2  -5   59.45    1.61
  -6  -2  -5   63.02    1.63
   6   2   5   60.07    1.91
  -6   2  -5   57.80    1.72
  -6   2  -5   56.48    1.80
  -6   2  -5   57.29    1.89
  -6   2  -5   56.55    2.06
  -6   2  -5   61.45    1.78
  -6   2  -5   56.95    1.91
   6   2   5   57.62    1.59
  -6   2  -5   59.87    1.82
  -6   2  -5   60.03    1.86
   6   2   5   59.73    1.72
   6   2   5   60.02    1.57
   8  -2   5   12.36    0.73
   8  -2   5   11.55    0.64
  -8  -2  -5   12.81    0.57
  -8  -2  -5   12.28    0.60
   8  -2   5   11.39    0.79
  -8  -2  -5   12.00    0.54
  -8  -2  -5   11.90    0.64
   8   2   5   11.29    0.55
  -8   2  -5   10.61    0.61
  -8   2  -5   11.94    0.75
   8   2   5   11.31    0.72
  -8   2  -5   11.42    0.64
  -8   2  -5   11.01    0.68
   8   2   5   11.72    0.57
   8   2   5   11.66    0.52
  -8   2  -5   11.68    0.74
  -8   2  -5   11.31    0.54
  -8   2  -5   10.86    0.78
   8   2   5   11.04    0.64
  -8   2  -5   11.82    0.70
  10  -2   5   73.92    2.51
 -10  -2  -5   73.47    2.30
 -10  -2  -5   74.65    2.07
  10  -2   5   78.36    2.31
  10  -2   5   76.05    2.32
 -10  -2  -5   72.79    2.01
  10  -2   5   73.56    2.12
  10  -2   5   70.94    2.54
 -10   2  -5   79.98    2.39
  10   2   5   73.57    2.01
  10   2   5   75.04    1.96
 -10   2  -5   73.63    1.93
 -10   2  -5   72.50    2.24
 -10   2  -5   75.65    2.37
  10   2   5   74.24    2.39
  10   2   5   75.85    2.19
  10   2   5   74.22    2.00
 -10   2  -5   76.02    2.15
 -10   2  -5   73.48    2.58
 -10   2  -5   79.13    2.29
 -10   2  -5   73.25    2.10
  12  -2   5   20.77    1.05
 -12  -2  -5   22.53    0.94
  12  -2   5   22.80    1.07
 -12  -2  -5   22.91    0.67
 -12  -2  -5   22.54    0.89
  12  -2   5   24.20    1.22
  12  -2   5   22.75    1.22
 -12  -2  -5   23.21    1.05
  12   2   5   22.79    1.15
 -12   2  -5   20.59    1.04
  12   2   5   22.01    0.82
 -12   2  -5   22.56    1.02
 -12   2  -5   22.36    1.10
 -12   2  -5   21.96    1.06
  12   2   5   22.86    0.86
  12   2   5   23.22    1.05
 -12   2  -5   20.20    1.08
  12   2   5   23.54    0.93
  14  -2   5   14.70    1.01
  14  -2   5   15.60    0.91
  14  -2   5   16.02    0.91
 -14  -2  -5   15.42    0.79
 -14  -2  -5   16.15    0.91
 -14  -2  -5   15.73    0.76
  14  -2   5   15.93    1.00
 -14   2  -5   15.04    0.95
 -14   2  -5   15.35    0.92
 -14   2  -5   13.86    0.82
  14   2   5   15.20    0.79
  14   2   5   15.84    0.70
 -14   2  -5   13.26    0.86
  14   2   5   14.70    0.94
 -14   2  -5   14.72    0.88
  14   2   5   16.41    0.89
  16  -2   5   22.11    1.17
 -16  -2  -5   24.05    1.15
 -16  -2  -5   22.69    1.04
 -16  -2  -5   20.72    0.97
  16  -2   5   21.49    1.12
 -16  -2  -5   21.31    1.14
 -16   2  -5   23.62    1.16
 -16   2  -5   24.45    1.27
  16   2   5   22.27    1.24
  16   2   5   23.08    0.91
  16   2   5   21.61    1.11
 -16   2  -5   20.81    1.12
 -18  -2  -5   32.68    1.47
 -18  -2  -5   35.57    1.34
  18  -2   5   35.02    1.53
  18  -2   5   32.30    1.47
  18   2   5   30.89    1.43
  18   2   5   32.49    1.60
 -18   2  -5   32.34    1.55
 -18   2  -5   33.03    1.47
  18   2   5   32.64    1.21
 -18   2  -5   34.07    1.51
 -20  -2  -5   12.58    0.92
  20  -2   5   12.61    0.90
 -20  -2  -5   12.32    0.81
  20  -2   5   11.98    0.90
  20  -2   5   13.97    0.96
  20  -2   5   14.08    0.99
 -20   2  -5   13.15    0.99
  20   2   5   14.33    0.96
  20   2   5   15.59    1.12
 -20   2  -5   15.46    0.99
 -20   2  -5   13.69    0.95
  20   2   5   14.07    0.77
 -22  -2  -5   10.77    0.91
  22  -2   5   11.22    0.88
  22  -2   5   13.98    0.99
  22  -2   5   11.21    0.91
  22  -2   5   11.37    0.90
 -22  -2  -5   10.52    0.81
  22   2   5   12.29    1.03
  22   2   5   11.26    0.90
 -22   2  -5   11.47    0.87
 -22   2  -5   12.36    0.95
 -22   2  -5   13.93    1.09
  22   2   5   10.13    0.69
 -24  -2  -5    6.06    0.80
 -24  -2  -5    6.68    0.74
  24  -2   5    7.18    0.84
  24  -2   5    6.88    0.88
  24  -2   5    7.39    0.84
  24   2   5    5.96    0.63
  24   2   5    6.83    0.93
 -24   2  -5    6.60    0.78
 -24   2  -5    5.92    0.88
 -24   2  -5    5.95    0.80
 -26  -2  -5    4.64    0.69
  26  -2   5    5.26    0.80
 -26   2  -5    3.91    0.74
  26   2   5    4.55    0.80
 -28  -2  -5   14.24    1.05
 -28   2  -5   13.85    1.13
 -27  -3   5    0.19    0.35
  27  -3  -5    1.61    0.56
 -27   3   5    1.50    0.56
 -25  -3   5    7.06    0.84
  25  -3  -5    7.67    0.96
 -25   3   5    8.09    0.95
 -25   3   5    7.24    0.82
  23  -3  -5   10.29    1.06
  23  -3  -5   10.90    1.11
 -23  -3   5   11.80    0.92
 -23   3   5   12.66    1.03
 -23   3   5   12.01    0.87
  21  -3  -5    7.15    0.84
  21  -3  -5    7.23    0.85
 -21  -3   5    5.41    0.69
 -21   3   5    7.76    0.87
 -21   3   5    7.77    0.85
 -21   3   5    9.80    0.75
  21   3  -5    7.64    0.76
 -19  -3   5    5.45    0.73
  19  -3  -5    5.10    0.70
  19  -3  -5    5.53    0.72
 -19  -3   5    6.16    0.70
 -19   3   5    5.83    0.63
 -19   3   5    6.36    0.78
  19   3  -5    5.77    0.64
 -19   3   5    4.44    0.65
 -19   3   5    5.24    0.69
 -17  -3   5    6.85    0.70
 -17  -3   5    5.61    0.73
  17  -3  -5    6.18    0.73
  17  -3  -5    7.20    0.79
 -17  -3   5    5.94    0.68
 -17   3   5    5.59    0.68
 -17   3   5    6.14    0.61
 -17   3   5    6.06    0.74
  17   3  -5    6.97    0.69
  17   3  -5    5.61    0.28
 -17   3   5    5.72    0.69
 -15  -3   5   17.50    0.94
 -15  -3   5   14.43    1.00
 -15  -3   5   16.34    0.94
  15  -3  -5   17.26    0.98
  15  -3  -5   16.78    0.99
  15   3  -5   17.31    0.58
  15   3  -5   16.29    0.89
 -15   3   5   15.55    0.81
  15   3  -5   15.71    0.55
 -15   3   5   15.71    0.97
 -15   3   5   16.29    0.95
 -15   3   5   15.75    0.97
  13  -3  -5   16.30    0.91
 -13  -3   5   14.60    0.96
 -13  -3   5   16.01    0.88
 -13  -3   5   16.12    0.90
  13  -3  -5   15.78    0.91
 -13   3   5   15.93    0.94
  13   3  -5   17.15    0.58
 -13   3   5   14.10    0.72
  13   3  -5   16.08    0.85
  13   3  -5   16.11    0.58
 -13   3   5   17.13    0.94
 -13   3   5   15.97    0.88
  13   3  -5   16.52    0.81
 -11  -3   5   18.81    1.07
  11  -3  -5   20.51    1.00
 -11  -3   5   19.99    0.95
  11  -3  -5   20.15    0.99
 -11  -3   5   19.26    0.97
  11  -3  -5   18.76    1.08
 -11   3   5   20.60    1.01
  11   3  -5   19.67    0.88
 -11   3   5   20.97    0.97
 -11   3   5   21.40    0.98
 -11   3   5   20.34    0.79
  11   3  -5   20.62    0.94
  11   3  -5   18.47    0.67
 -11   3   5   19.53    0.97
 -11   3   5   21.58    1.03
  11   3  -5   20.44    0.95
  11   3  -5   18.97    0.66
   9  -3  -5    0.39    0.21
  -9  -3   5    0.54    0.25
   9  -3  -5    0.28    0.19
  -9  -3   5    0.16    0.17
   9  -3  -5    0.61    0.25
  -9  -3   5    0.31    0.23
  -9  -3   5    0.54    0.23
   9   3  -5    0.55    0.15
  -9   3   5    1.00    0.26
   9   3  -5    0.32    0.22
  -9   3   5    0.33    0.15
   9   3  -5    0.33    0.18
  -9   3   5    0.12    0.20
   9   3  -5    0.38    0.14
  -9   3   5    0.27    0.20
   9   3  -5    0.47    0.21
  -9   3   5    0.28    0.18
  -9   3   5    0.54    0.14
  -9   3   5    0.25    0.21
   7  -3  -5   56.12    1.70
   7  -3  -5   49.42    1.86
   7  -3  -5   54.22    1.70
  -7  -3   5   54.54    1.75
  -7  -3   5   56.45    1.74
  -7  -3   5   54.22    1.57
  -7  -3   5   51.66    1.91
   7   3  -5   52.60    1.69
   7   3  -5   55.42    1.43
   7   3  -5   54.66    1.65
  -7   3   5   53.11    1.68
  -7   3   5   54.49    1.63
  -7   3   5   52.96    1.62
  -7   3   5   52.90    1.67
  -7   3   5   53.17    1.28
  -7   3   5   53.13    1.72
   7   3  -5   54.47    1.43
   7   3  -5   49.58    1.67
  -7   3   5   52.48    1.44
  -5  -3   5   33.69    1.23
  -5  -3   5   33.81    1.27
   5  -3  -5   31.61    1.15
  -5  -3   5   31.12    1.36
  -5  -3   5   32.64    1.10
   5  -3  -5   32.99    1.17
   5  -3  -5   33.55    1.32
   5   3  -5   34.35    1.03
  -5   3   5   34.05    1.15
   5   3  -5   34.98    1.25
  -5   3   5   33.19    1.18
  -5   3   5   32.84    1.04
  -5   3   5   33.20    1.12
   5   3  -5   33.61    1.17
  -5   3   5   34.02    1.11
   5   3  -5   32.62    1.23
  -5   3   5   33.10    1.15
   5   3  -5   36.17    1.33
   5   3  -5   35.73    1.03
  -3  -3   5   14.31    0.75
  -3  -3   5   12.16    0.69
   3  -3  -5   13.14    0.63
   3  -3  -5   11.42    0.59
  -3  -3   5   12.03    0.78
  -3  -3   5   11.68    0.61
   3  -3  -5   13.51    0.71
  -3   3   5   12.32    0.58
  -3   3   5   11.95    0.57
   3   3  -5   11.63    0.63
   3   3  -5   12.65    0.68
  -3   3   5   11.80    0.39
   3   3  -5   12.61    0.56
   3   3  -5   11.86    0.68
  -3   3   5   12.07    0.61
  -3   3   5   12.65    0.56
  -3   3   5   12.24    0.57
  -3   3   5   11.92    0.50
   3   3  -5   13.01    0.56
   3   3  -5   12.12    0.68
   3   3  -5   11.77    0.70
   1  -3  -5   20.68    0.79
   1  -3  -5   22.08    0.91
  -1  -3   5   20.23    1.05
   1  -3  -5   24.96    0.83
   1  -3  -5   20.52    0.80
  -1  -3   5   19.67    0.85
  -1  -3   5   22.17    0.95
  -1  -3   5   22.59    1.03
   1   3  -5   20.19    0.92
  -1   3   5   21.97    0.76
  -1   3   5   23.18    0.96
   1   3  -5   23.17    0.81
   1   3  -5   19.61    0.98
  -1   3   5   20.36    0.83
   1   3  -5   22.44    0.93
  -1   3   5   20.65    0.73
  -1   3   5   22.21    0.81
   1   3  -5   20.26    0.94
   1   3  -5   21.15    0.78
   1   3  -5   19.41    0.87
  -1   3   5   21.94    0.68
   1  -3   5   23.96    1.07
  -1  -3  -5   23.90    0.83
  -1  -3  -5   25.22    0.86
   1  -3   5   23.37    1.14
  -1  -3  -5   24.06    0.95
  -1  -3  -5   23.49    0.81
   1  -3   5   24.03    0.93
   1  -3   5   24.42    1.03
  -1  -3  -5   24.24    0.92
   1   3   5   24.23    0.79
   1   3   5   24.34    0.97
   1   3   5   23.47    0.72
  -1   3  -5   24.42    0.87
  -1   3  -5   25.15    1.03
  -1   3  -5   25.64    1.02
  -1   3  -5   23.35    1.09
  -1   3  -5   23.32    0.97
  -1   3  -5   22.27    0.85
   1   3   5   22.22    0.81
  -1   3  -5   22.88    1.09
  -1   3  -5   22.48    1.01
   1   3   5   23.46    0.96
   3  -3   5   25.84    1.12
  -3  -3  -5   26.45    0.84
  -3  -3  -5   26.97    1.01
   3  -3   5   26.43    1.00
  -3  -3  -5   27.77    0.97
  -3  -3  -5   26.43    0.94
   3  -3   5   26.05    1.09
   3  -3   5   26.61    1.25
  -3  -3  -5   26.31    0.87
  -3  -3  -5   26.67    0.85
   3   3   5   27.46    0.91
   3   3   5   26.08    0.84
  -3   3  -5   24.63    0.93
  -3   3  -5   26.13    1.18
  -3   3  -5   25.50    1.17
  -3   3  -5   24.36    1.09
  -3   3  -5   24.23    1.02
   3   3   5   25.54    1.05
  -3   3  -5   26.07    1.10
  -3   3  -5   27.49    1.10
  -3   3  -5   26.73    1.08
  -3   3  -5   26.55    0.95
   3   3   5   24.84    0.72
   5  -3   5    2.61    0.41
  -5  -3  -5    3.11    0.29
   5  -3   5    2.72    0.46
  -5  -3  -5    2.87    0.35
  -5  -3  -5    3.23    0.28
  -5  -3  -5    3.13    0.31
  -5  -3  -5    2.60    0.27
   5  -3   5    3.15    0.43
  -5  -3  -5    3.16    0.27
  -5   3  -5    2.31    0.39
   5   3   5    3.07    0.17
  -5   3  -5    2.85    0.42
  -5   3  -5    3.35    0.50
  -5   3  -5    2.62    0.42
  -5   3  -5    2.85    0.39
  -5   3  -5    2.95    0.36
  -5   3  -5    3.07    0.41
   5   3   5    2.99    0.29
  -5   3  -5    2.68    0.41
   5   3   5    2.71    0.33
   5   3   5    2.36    0.38
  -5   3  -5    2.78    0.42
  -5   3  -5    3.26    0.39
  -7  -3  -5   39.39    1.14
  -7  -3  -5   39.14    1.33
   7  -3   5   36.29    1.63
  -7  -3  -5   38.52    1.13
  -7  -3  -5   38.69    1.13
   7  -3   5   38.38    1.44
   7  -3   5   39.98    1.47
  -7  -3  -5   39.26    1.28
  -7  -3  -5   38.08    1.16
   7   3   5   39.76    1.15
  -7   3  -5   41.17    1.54
  -7   3  -5   39.32    1.43
  -7   3  -5   36.94    1.53
  -7   3  -5   39.09    1.31
   7   3   5   38.85    1.31
  -7   3  -5   38.39    1.35
   7   3   5   37.86    1.12
  -7   3  -5   40.86    1.48
   7   3   5   39.57    1.50
  -7   3  -5   39.09    1.32
  -9  -3  -5   31.84    1.01
  -9  -3  -5   32.73    1.05
   9  -3   5   30.30    1.49
  -9  -3  -5   31.20    1.20
  -9  -3  -5   32.53    0.91
   9  -3   5   31.63    1.30
   9  -3   5   29.74    1.44
   9  -3   5   32.90    1.37
  -9  -3  -5   31.73    1.16
   9   3   5   33.37    1.38
  -9   3  -5   32.60    1.15
  -9   3  -5   34.61    1.21
  -9   3  -5   33.47    1.32
   9   3   5   32.49    1.02
  -9   3  -5   31.62    1.40
  -9   3  -5   33.17    1.22
  -9   3  -5   34.10    1.41
  -9   3  -5   32.67    1.34
   9   3   5   33.40    1.04
   9   3   5   32.67    1.22
 -11  -3  -5   46.62    1.58
 -11  -3  -5   47.56    1.42
 -11  -3  -5   47.76    1.38
  11  -3   5   45.42    1.72
  11  -3   5   48.64    1.93
  11  -3   5   48.87    1.69
  11  -3   5   44.62    1.94
  11   3   5   46.90    1.14
 -11   3  -5   46.48    1.69
 -11   3  -5   45.76    1.78
 -11   3  -5   45.08    1.38
  11   3   5   46.99    1.80
  11   3   5   47.05    1.39
  11   3   5   43.13    1.57
  11   3   5   46.83    1.13
 -11   3  -5   46.59    1.73
 -11   3  -5   44.62    1.79
 -11   3  -5   47.38    1.58
  11   3   5   47.54    1.38
  11   3   5   45.47    1.76
  13  -3   5   10.74    0.73
 -13  -3  -5   10.19    0.56
 -13  -3  -5    9.22    0.64
  13  -3   5   10.78    0.81
 -13   3  -5   10.24    0.70
  13   3   5    8.63    0.75
 -13   3  -5    8.88    0.72
  13   3   5   10.85    0.61
 -13   3  -5   11.43    0.85
 -13   3  -5    8.71    0.75
 -13   3  -5   12.36    0.82
  13   3   5   10.22    0.41
  13   3   5    9.82    0.70
  13   3   5    9.91    0.78
  15  -3   5   12.94    0.85
 -15  -3  -5   14.38    0.71
  15  -3   5   15.91    1.00
 -15  -3  -5   14.80    0.82
 -15  -3  -5   15.15    0.87
  15   3   5   13.23    0.86
  15   3   5   14.05    0.55
 -15   3  -5   15.84    0.98
  15   3   5   12.81    0.94
 -15   3  -5   14.33    0.86
  15   3   5   13.93    0.92
 -15   3  -5   13.45    0.91
 -15   3  -5   14.74    0.97
 -15   3  -5   14.79    0.99
 -17  -3  -5    0.34    0.22
 -17  -3  -5    0.25    0.22
  17  -3   5    0.08    0.23
  17  -3   5    0.40    0.33
  17   3   5   -0.19    0.21
 -17   3  -5    0.02    0.24
  17   3   5   -0.08    0.23
  17   3   5    0.06    0.22
 -17   3  -5   -0.05    0.25
 -17   3  -5   -0.41    0.16
  17   3   5    0.27    0.15
 -17   3  -5    0.28    0.28
 -19  -3  -5    5.83    0.65
  19  -3   5    6.23    0.79
 -19  -3  -5    5.18    0.56
  19  -3   5    7.11    0.76
  19   3   5    5.88    0.82
 -19   3  -5    6.61    0.82
  19   3   5    5.56    0.68
  19   3   5    5.80    0.41
 -19   3  -5    5.24    0.70
 -19   3  -5    6.46    0.79
  19   3   5    5.70    0.73
  21  -3   5   28.56    1.40
  21  -3   5   31.15    1.58
  21  -3   5   30.82    1.47
 -21  -3  -5   30.28    1.29
  21  -3   5   29.97    1.54
 -21   3  -5   31.65    1.58
  21   3   5   27.06    1.44
 -21   3  -5   29.58    1.62
  21   3   5   30.59    1.67
 -21   3  -5   33.55    1.62
  23  -3   5   16.58    1.08
 -23  -3  -5   14.70    0.91
  23  -3   5   14.01    1.08
  23   3   5   14.69    1.19
 -23   3  -5   13.52    1.08
 -23   3  -5   14.22    1.09
  25  -3   5   13.13    1.08
 -25  -3  -5   14.41    0.95
 -25   3  -5   13.67    1.07
 -25   3  -5   13.20    1.08
 -27  -3  -5    0.21    0.36
  27  -3   5    0.08    0.38
 -27   3  -5    0.03    0.37
 -24  -4   5    4.56    0.69
  24  -4  -5    6.82    0.92
  24   4  -5    5.62    0.96
 -24   4   5    5.21    0.64
  22  -4  -5    0.80    0.40
 -22  -4   5    0.76    0.39
  22  -4  -5    1.60    0.50
  22   4  -5    1.26    0.54
 -22   4   5    1.10    0.35
  22   4  -5    0.74    0.31
 -20  -4   5   10.66    0.97
  20  -4  -5   11.67    0.95
  20  -4  -5   10.66    0.93
 -20  -4   5    9.85    0.80
 -20   4   5   11.93    0.76
  20   4  -5   11.57    0.77
 -20   4   5   10.32    1.04
  18  -4  -5    8.50    0.89
 -18  -4   5    8.29    0.71
 -18  -4   5    8.00    0.90
  18  -4  -5    7.59    0.84
 -18   4   5    7.76    0.86
  18   4  -5    7.39    0.61
 -18   4   5    7.38    0.81
 -18   4   5    7.95    0.59
 -16  -4   5    4.21    0.56
 -16  -4   5    4.81    0.67
  16  -4  -5    4.75    0.65
  16  -4  -5    5.07    0.68
  16   4  -5    3.98    0.50
 -16   4   5    4.73    0.47
 -16   4   5    5.33    0.70
 -16   4   5    5.37    0.67
  14  -4  -5   20.99    1.13
  14  -4  -5   21.06    1.13
 -14  -4   5   23.91    1.27
 -14  -4   5   21.46    1.05
 -14   4   5   22.39    1.16
 -14   4   5   22.11    0.84
 -14   4   5   19.99    1.09
  14   4  -5   19.98    0.98
 -12  -4   5    4.23    0.53
  12  -4  -5    4.61    0.58
  12  -4  -5    4.16    0.56
 -12  -4   5    4.90    0.62
 -12  -4   5    5.01    0.59
 -12   4   5    3.89    0.55
  12   4  -5    4.79    0.52
 -12   4   5    5.02    0.59
 -12   4   5    4.04    0.30
 -10  -4   5    2.04    0.39
  10  -4  -5    2.34    0.45
  10  -4  -5    1.72    0.37
 -10  -4   5    1.69    0.39
 -10  -4   5    0.93    0.31
  10  -4  -5    2.10    0.40
 -10   4   5    1.76    0.38
 -10   4   5    1.43    0.35
  10   4  -5    2.14    0.36
  -8  -4   5   11.15    0.72
   8  -4  -5   10.63    0.75
   8  -4  -5   11.72    0.70
  -8  -4   5   10.67    0.68
  -8  -4   5   10.00    0.75
   8  -4  -5   10.51    0.67
  -8   4   5   10.76    0.69
   8   4  -5   10.64    0.66
  -8   4   5   11.46    0.67
  -6  -4   5   19.58    0.91
  -6  -4   5   19.40    1.05
   6  -4  -5   19.56    0.89
   6  -4  -5   20.15    1.00
  -6  -4   5   17.92    0.92
  -6   4   5   20.29    0.67
  -6   4   5   18.70    0.82
   6   4  -5   17.78    0.87
   6   4  -5   19.43    0.85
  -6   4   5   20.47    0.90
  -4  -4   5   28.79    1.35
   4  -4  -5   28.31    1.05
  -4  -4   5   26.74    1.12
  -4  -4   5   26.19    1.13
   4  -4  -5   28.04    1.17
  -4  -4   5   27.32    1.28
   4  -4  -5   26.82    1.03
  -4   4   5   27.03    0.92
   4   4  -5   26.75    1.04
   4   4  -5   25.85    1.21
   4   4  -5   27.37    1.10
   4   4  -5   29.25    1.40
  -4   4   5   26.49    1.01
   4   4  -5   27.03    1.11
  -4   4   5   28.33    0.96
  -2  -4   5    5.18    0.60
  -2  -4   5    5.45    0.67
   2  -4  -5    6.31    0.55
   2  -4  -5    6.33    0.48
   2  -4  -5    5.80    0.43
  -2  -4   5    7.29    0.57
   2  -4  -5    5.87    0.42
   2   4  -5    5.41    0.60
  -2   4   5    5.84    0.43
  -2   4   5    6.07    0.43
  -2   4   5    6.08    0.36
   2   4  -5    6.03    0.70
   2   4  -5    5.44    0.31
   2   4  -5    5.92    0.50
   2   4  -5    6.07    0.32
   2   4  -5    5.46    0.52
   2   4  -5    6.26    0.59
   0  -4  -5    4.30    0.51
   0  -4  -5    4.79    0.37
   0  -4  -5    5.26    0.41
   0  -4   5    4.67    0.54
   0  -4  -5    5.03    0.37
   0  -4   5    4.76    0.58
   0  -4   5    5.22    0.64
   0   4  -5    4.83    0.52
   0   4  -5    5.48    0.35
   0   4   5    5.08    0.37
   0   4   5    5.64    0.45
   0   4  -5    6.19    0.49
   0   4  -5    5.52    0.66
   0   4  -5    6.00    0.58
   0   4  -5    5.45    0.35
   0   4  -5    5.02    0.59
   0   4   5    5.08    0.32
  -2  -4  -5   13.18    0.57
   2  -4   5   13.90    0.81
   2  -4   5   13.15    0.89
  -2  -4  -5   13.20    0.78
   2  -4   5   13.41    0.88
  -2  -4  -5   14.07    0.64
  -2  -4  -5   14.42    0.57
  -2   4  -5   13.46    0.86
   2   4   5   13.89    0.60
  -2   4  -5   13.87    0.60
  -2   4  -5   13.32    0.79
   2   4   5   13.89    0.75
  -2   4  -5   13.06    0.73
  -2   4  -5   14.58    0.62
  -2   4  -5   12.93    0.86
   2   4   5   14.25    0.58
  -2   4  -5   13.74    0.79
  -4  -4  -5   31.28    0.91
  -4  -4  -5   31.52    1.05
   4  -4   5   29.72    1.36
   4  -4   5   29.77    1.27
  -4  -4  -5   33.17    1.13
  -4  -4  -5   32.87    1.29
   4  -4   5   28.83    1.43
  -4  -4  -5   31.12    0.93
  -4   4  -5   29.98    1.27
  -4   4  -5   29.92    1.20
  -4   4  -5   32.90    1.29
  -4   4  -5   31.97    1.06
   4   4   5   30.66    1.24
  -4   4  -5   30.59    1.03
  -4   4  -5   28.23    1.25
  -4   4  -5   25.83    1.31
   4   4   5   30.07    1.06
   4   4   5   30.25    0.92
  -4   4  -5   31.54    1.35
  -6  -4  -5   13.89    0.81
   6  -4   5   14.50    0.98
  -6  -4  -5   14.12    0.53
  -6  -4  -5   14.08    0.61
   6  -4   5   14.94    0.88
   6  -4   5   14.70    0.91
  -6   4  -5   15.15    0.87
  -6   4  -5   15.44    0.72
   6   4   5   14.45    0.55
   6   4   5   14.17    0.71
   6   4   5   15.26    0.86
  -6   4  -5   14.18    0.85
  -6   4  -5   14.29    0.87
  -6   4  -5   15.44    0.83
  -6   4  -5   12.22    0.87
  -6   4  -5   14.87    0.71
   8  -4   5   35.90    1.70
  -8  -4  -5   37.72    1.47
   8  -4   5   38.74    1.55
  -8  -4  -5   36.90    1.06
  -8  -4  -5   37.13    1.21
   8  -4   5   39.17    1.59
  -8   4  -5   37.21    1.46
  -8   4  -5   39.17    1.55
   8   4   5   38.81    1.09
  -8   4  -5   39.12    1.57
   8   4   5   38.47    1.69
  -8   4  -5   35.65    1.62
  -8   4  -5   39.82    1.47
   8   4   5   39.39    1.57
   8   4   5   37.78    1.07
  -8   4  -5   35.94    1.29
   8   4   5   37.56    1.35
  -8   4  -5   38.71    1.30
 -10  -4  -5   20.01    0.69
  10  -4   5   19.77    1.08
 -10  -4  -5   19.56    0.81
  10  -4   5   19.64    1.08
 -10  -4  -5   20.97    1.03
  10  -4   5   21.66    1.28
  10   4   5   19.33    1.18
  10   4   5   19.17    0.94
 -10   4  -5   18.05    0.87
 -10   4  -5   18.34    1.05
  10   4   5   19.49    0.70
 -10   4  -5   19.38    1.09
 -10   4  -5   19.19    1.03
  10   4   5   19.28    1.09
 -10   4  -5   19.54    0.93
 -10   4  -5   19.21    0.92
  10   4   5   20.63    0.73
 -10   4  -5   19.95    1.17
 -12  -4  -5   30.74    0.97
 -12  -4  -5   30.70    1.33
 -12  -4  -5   28.63    1.12
  12  -4   5   29.65    1.40
  12  -4   5   29.50    1.28
 -12   4  -5   29.48    1.22
 -12   4  -5   29.34    1.42
  12   4   5   30.28    1.00
  12   4   5   31.21    1.48
 -12   4  -5   29.38    1.34
  12   4   5   30.76    1.51
 -12   4  -5   28.61    1.47
 -12   4  -5   30.03    1.40
  12   4   5   29.28    0.98
  12   4   5   29.50    1.27
 -14  -4  -5   23.32    1.05
  14  -4   5   25.94    1.20
 -14  -4  -5   25.13    1.21
 -14  -4  -5   25.31    1.04
 -14  -4  -5   25.45    0.90
  14  -4   5   23.83    1.28
 -14   4  -5   23.92    1.34
 -14   4  -5   24.05    1.32
  14   4   5   24.63    0.95
 -14   4  -5   23.99    1.25
  14   4   5   23.92    1.33
  14   4   5   23.03    1.17
 -14   4  -5   23.95    1.13
 -14   4  -5   25.17    1.33
  14   4   5   25.43    1.37
  16  -4   5   12.39    0.94
 -16  -4  -5   12.13    0.64
  16  -4   5   12.31    0.83
 -16   4  -5   11.21    0.87
 -16   4  -5   12.29    0.83
 -16   4  -5   14.08    1.02
 -16   4  -5   13.63    1.04
  16   4   5   13.35    1.02
  16   4   5   10.66    0.81
  16   4   5   12.09    0.99
 -16   4  -5   12.22    0.96
 -18  -4  -5   30.61    1.15
  18  -4   5   27.71    1.49
 -18   4  -5   28.85    1.57
  18   4   5   33.04    1.60
  18   4   5   31.87    1.67
 -18   4  -5   27.26    1.33
  18   4   5   27.61    1.40
 -18   4  -5   32.34    1.55
 -18   4  -5   29.72    1.58
 -20  -4  -5    3.86    0.47
  20  -4   5    2.18    0.53
  20  -4   5    2.75    0.59
 -20   4  -5    2.80    0.60
 -20   4  -5    2.40    0.51
  20   4   5    2.84    0.57
  20   4   5    3.70    0.65
 -20   4  -5    2.39    0.57
  20   4   5    4.81    0.76
  22  -4   5    2.51    0.53
 -22  -4  -5    4.02    0.52
  22   4   5    3.45    0.71
 -22   4  -5    3.45    0.65
 -22   4  -5    1.67    0.54
  24  -4   5    0.96    0.49
 -24  -4  -5    1.33    0.38
 -24   4  -5    0.58    0.41
 -23  -5   5    0.59    0.38
  23  -5  -5    0.92    0.47
 -23   5   5    0.42    0.27
  23   5  -5    0.44    0.47
  21  -5  -5    0.26    0.38
 -21  -5   5    0.73    0.37
 -21   5   5   -0.18    0.38
  21   5  -5    0.61    0.46
 -21   5   5    0.05    0.20
 -19  -5   5    4.44    0.62
  19  -5  -5    4.21    0.71
  19   5  -5    4.86    0.88
 -19   5   5    3.49    0.39
  19   5  -5    4.57    0.52
 -19   5   5    4.00    0.70
 -17  -5   5    0.17    0.29
  17  -5  -5    0.87    0.40
 -17   5   5    0.76    0.40
  17   5  -5    0.46    0.42
 -17   5   5    0.31    0.14
 -17   5   5    0.19    0.14
  17   5  -5    0.61    0.26
  15  -5  -5    6.68    0.78
 -15  -5   5    6.33    0.69
 -15  -5   5    6.47    0.78
  15   5  -5    5.92    0.57
 -15   5   5    5.57    0.74
  15   5  -5    6.18    0.93
 -15   5   5    5.72    0.67
  13  -5  -5   14.77    0.96
 -13  -5   5   14.63    1.02
 -13  -5   5   16.34    0.92
  13   5  -5   14.81    0.94
 -13   5   5   15.39    1.00
 -13   5   5   15.11    0.91
  13   5  -5   14.21    0.76
  13   5  -5   16.12    1.25
 -11  -5   5    3.49    0.49
  11  -5  -5    4.06    0.56
 -11  -5   5    4.14    0.61
  11   5  -5    4.11    0.56
 -11   5   5    5.55    0.64
  11   5  -5    4.49    0.48
  11   5  -5    3.93    0.71
 -11   5   5    4.09    0.51
  -9  -5   5   20.03    1.12
   9  -5  -5   20.33    1.01
  -9  -5   5   20.37    0.99
   9   5  -5   19.62    0.90
  -9   5   5   17.86    0.99
  -9   5   5   19.16    0.91
   9   5  -5   18.50    1.28
   9   5  -5   17.64    1.03
   7  -5  -5    5.31    0.56
  -7  -5   5    5.97    0.61
  -7  -5   5    5.47    0.72
   7  -5  -5    5.70    0.67
  -7  -5   5    5.76    0.66
  -7   5   5    6.35    0.62
   7   5  -5    6.19    0.69
   7   5  -5    5.74    0.49
  -7   5   5    6.29    0.48
   7   5  -5    5.32    0.79
   5  -5  -5   49.11    1.81
  -5  -5   5   46.37    1.91
  -5  -5   5   50.15    1.70
  -5  -5   5   48.02    2.05
   5   5  -5   46.61    1.84
   5   5  -5   47.54    1.61
  -5   5   5   47.84    1.60
  -5   5   5   51.76    1.43
   5   5  -5   49.37    2.10
  -3  -5   5   37.54    1.43
   3  -5  -5   33.50    1.54
  -3  -5   5   38.17    1.74
   3  -5  -5   37.74    1.44
  -3  -5   5   34.45    1.59
   3  -5  -5   37.50    1.26
  -3   5   5   38.08    1.00
   3   5  -5   38.73    1.62
  -3   5   5   35.70    1.26
   3   5  -5   38.48    1.77
   3   5  -5   37.47    1.38
   1  -5  -5    8.49    0.50
   1  -5  -5    6.62    0.72
  -1  -5   5    7.16    0.77
  -1  -5   5    9.25    0.68
  -1  -5   5    8.91    0.79
   1  -5  -5    9.31    0.58
  -1   5   5    8.41    0.55
  -1   5   5    7.68    0.49
   1   5  -5    7.55    0.87
   1   5  -5    7.36    0.58
   1   5  -5    7.72    0.80
  -1  -5  -5    5.69    0.66
   1  -5   5    4.29    0.62
   1  -5   5    4.53    0.57
   1  -5   5    3.96    0.58
  -1  -5  -5    5.02    0.36
  -1  -5  -5    4.63    0.40
   1   5   5    4.78    0.37
  -1   5  -5    6.49    0.55
  -1   5  -5    5.39    0.68
  -1   5  -5    4.58    0.67
   1   5   5    5.52    0.49
   3  -5   5    0.44    0.29
  -3  -5  -5    1.21    0.34
  -3  -5  -5    0.60    0.18
  -3  -5  -5    0.77    0.16
   3  -5   5    0.95    0.34
   3  -5   5    0.18    0.26
  -3   5  -5    0.79    0.13
  -3   5  -5    1.12    0.40
   3   5   5    0.71    0.27
  -3   5  -5    1.53    0.42
   3   5   5    0.76    0.18
  -3   5  -5    1.05    0.34
  -3   5  -5    0.34    0.24
  -5  -5  -5    8.51    0.71
  -5  -5  -5    7.63    0.34
   5  -5   5    7.11    0.82
  -5  -5  -5    6.90    0.41
   5  -5   5    7.05    0.74
   5  -5   5    6.71    0.78
   5   5   5    6.29    0.66
  -5   5  -5    6.70    0.79
  -5   5  -5    6.17    0.69
  -5   5  -5    7.16    0.79
  -5   5  -5    6.46    0.40
  -5   5  -5    7.55    0.74
   5   5   5    6.71    0.37
  -5   5  -5    7.71    0.42
   5   5   5    7.25    0.51
   7  -5   5   17.70    1.03
  -7  -5  -5   17.38    0.54
   7  -5   5   18.25    1.19
  -7  -5  -5   16.93    1.02
   7  -5   5   15.69    1.07
  -7  -5  -5   17.60    0.67
   7   5   5   17.15    0.58
   7   5   5   17.84    1.01
  -7   5  -5   15.28    1.01
  -7   5  -5   16.92    1.11
  -7   5  -5   18.83    1.06
  -7   5  -5   16.19    0.98
  -7   5  -5   17.48    0.72
   7   5   5   16.54    0.83
  -7   5  -5   17.23    0.74
  -9  -5  -5   36.86    0.95
   9  -5   5   36.86    1.83
   9  -5   5   36.34    1.60
  -9  -5  -5   37.40    1.61
  -9  -5  -5   36.97    1.17
   9  -5   5   37.39    1.71
  -9   5  -5   34.54    1.25
  -9   5  -5   38.69    1.78
   9   5   5   35.31    1.58
  -9   5  -5   34.83    1.59
  -9   5  -5   39.66    1.58
  -9   5  -5   38.02    1.61
   9   5   5   36.54    1.40
  -9   5  -5   39.03    1.27
   9   5   5   35.98    1.02
   9   5   5   39.20    1.85
  11  -5   5   21.62    1.22
 -11  -5  -5   22.37    0.85
 -11  -5  -5   21.82    1.20
  11   5   5   23.19    1.12
 -11   5  -5   21.79    1.33
 -11   5  -5   21.83    1.25
 -11   5  -5   21.46    0.94
  11   5   5   23.90    1.43
  11   5   5   22.38    0.75
 -11   5  -5   20.56    0.96
 -11   5  -5   22.48    1.23
  11   5   5   23.01    0.77
  11   5   5   20.81    1.22
 -13  -5  -5    5.66    0.70
  13  -5   5    5.05    0.72
 -13  -5  -5    5.34    0.44
 -13   5  -5    6.76    0.79
 -13   5  -5    5.52    0.74
 -13   5  -5    6.95    0.87
  13   5   5    7.36    0.86
 -13   5  -5    4.44    0.53
  13   5   5    5.59    0.65
  13   5   5    6.26    0.86
  13   5   5    5.40    0.40
  15  -5   5    2.34    0.54
 -15  -5  -5    1.69    0.44
  15   5   5    3.17    0.64
  15   5   5    2.41    0.50
 -15   5  -5    1.78    0.40
 -15   5  -5    1.95    0.54
  15   5   5    3.64    0.71
 -15   5  -5    1.63    0.52
 -15   5  -5    2.07    0.49
  17  -5   5    5.56    0.78
 -17   5  -5    5.72    0.64
 -17   5  -5    5.16    0.79
  17   5   5    5.95    0.87
  17   5   5    5.32    0.70
  17   5   5    6.67    0.90
  19  -5   5   44.80    2.05
  19  -5   5   44.10    2.02
 -19   5  -5   42.61    1.71
  19   5   5   42.43    2.12
  19   5   5   44.41    2.10
  21  -5   5   -0.09    0.34
 -21   5  -5   -0.36    0.23
  18  -6  -5   21.63    1.33
 -18  -6   5   20.21    1.13
 -18   6   5   21.36    1.37
  18   6  -5   20.47    1.60
  16  -6  -5    0.46    0.35
 -16  -6   5    0.35    0.31
 -16   6   5    0.68    0.42
  16   6  -5    2.07    0.64
  14  -6  -5    2.10    0.50
 -14  -6   5    1.77    0.40
 -14   6   5    2.00    0.44
  14   6  -5    1.37    0.55
 -14   6   5    1.46    0.47
  12  -6  -5    3.42    0.57
 -12  -6   5    2.82    0.65
 -12  -6   5    3.68    0.54
 -12   6   5    3.34    0.59
 -12   6   5    2.94    0.48
  12   6  -5    2.54    0.69
 -10  -6   5    1.49    0.37
 -10  -6   5    0.72    0.39
  10  -6  -5    1.22    0.37
 -10   6   5    1.33    0.34
  10   6  -5    1.21    0.48
 -10   6   5    1.34    0.38
  10   6  -5    1.00    0.39
   8  -6  -5    4.37    0.56
  -8  -6   5    4.80    0.57
  -8  -6   5    3.33    0.66
   8   6  -5    3.71    0.43
   8   6  -5    3.81    0.61
  -8   6   5    2.66    0.49
   8   6  -5    3.51    0.71
  -8   6   5    3.75    0.42
   6  -6  -5    8.54    0.63
  -6  -6   5    7.78    0.74
  -6  -6   5    9.10    0.70
  -6  -6   5    5.89    0.81
   6   6  -5    7.64    0.82
   6   6  -5    8.66    1.05
  -6   6   5    7.62    0.63
   6   6  -5    7.74    0.55
  -4  -6   5    5.52    0.71
   4  -6  -5    5.86    0.50
  -4  -6   5    6.57    0.69
   4  -6  -5    6.64    0.61
  -4  -6   5    5.33    0.78
  -4   6   5    6.68    0.56
   4   6  -5    5.76    0.86
   4   6  -5    4.73    0.66
   4   6  -5    5.04    0.51
  -2  -6   5   21.14    1.22
   2  -6  -5   20.32    1.00
   2  -6  -5   19.78    0.84
  -2  -6   5   20.78    1.34
   2  -6  -5   20.79    1.24
  -2  -6   5   19.07    1.03
   2   6  -5   18.76    0.93
  -2   6   5   19.67    0.89
   2   6  -5   21.53    1.39
   2   6  -5   20.07    1.21
   0  -6  -5   48.15    1.64
   0  -6   5   48.62    1.79
   0  -6   5   45.39    1.99
   0  -6  -5   47.45    1.39
   0  -6   5   47.99    2.15
   0  -6  -5   46.68    1.98
   0   6  -5   51.09    2.20
   0   6  -5   47.17    1.66
   0   6   5   48.08    1.46
   0   6  -5   44.68    1.95
   0   6  -5   45.46    1.79
  -2  -6  -5    2.52    0.51
  -2  -6  -5    2.37    0.34
   2  -6   5    1.99    0.45
  -2  -6  -5    2.99    0.30
   2  -6   5    3.29    0.62
   2  -6   5    2.59    0.56
  -2   6  -5    3.20    0.63
  -2   6  -5    2.61    0.50
  -2   6  -5    3.12    0.60
  -2   6  -5    3.45    0.49
   2   6   5    2.91    0.33
   4  -6   5    1.14    0.43
   4  -6   5    1.98    0.46
   4  -6   5    1.59    0.49
  -4  -6  -5    1.93    0.27
  -4  -6  -5    1.33    0.40
   4   6   5    1.65    0.24
  -4   6  -5    1.87    0.51
  -4   6  -5    2.63    0.58
  -4   6  -5    2.40    0.49
  -4   6  -5    1.13    0.34
  -6  -6  -5    1.41    0.42
   6  -6   5    1.22    0.46
   6  -6   5    1.05    0.43
   6  -6   5    1.19    0.38
   6   6   5    1.08    0.19
  -6   6  -5    0.93    0.39
  -6   6  -5    1.38    0.44
  -6   6  -5    0.88    0.34
   6   6   5    1.29    0.38
  -6   6  -5    0.86    0.39
   8  -6   5   32.94    1.70
  -8  -6  -5   33.04    1.60
   8  -6   5   28.83    1.46
  -8   6  -5   33.20    1.60
   8   6   5   31.82    1.51
  -8   6  -5   32.74    1.47
  -8   6  -5   29.13    1.62
   8   6   5   30.74    0.86
   8   6   5   32.47    1.80
  -8   6  -5   31.07    1.54
 -10  -6  -5   13.06    1.00
  10  -6   5   11.36    0.92
  10  -6   5   11.19    0.98
 -10   6  -5   12.15    0.91
  10   6   5   12.71    0.96
 -10   6  -5   10.38    1.09
  10   6   5   10.46    1.17
 -10   6  -5   10.76    0.50
 -10   6  -5   10.43    1.03
 -10   6  -5   11.22    0.50
  12  -6   5    6.11    0.82
 -12  -6  -5    6.34    0.81
  12   6   5    5.43    0.90
 -12   6  -5    5.69    0.86
  12   6   5    5.06    0.76
 -12   6  -5    5.34    0.43
  12   6   5    5.72    0.35
 -12   6  -5    5.23    0.42
 -12   6  -5    7.52    0.89
  14  -6   5    4.35    0.71
  14   6   5    4.97    0.86
  14   6   5    5.01    0.78
 -14   6  -5    5.35    0.52
 -14   6  -5    5.17    0.81
 -14   6  -5    6.06    0.54
  16  -6   5    9.16    1.02
 -16   6  -5    8.66    0.64
  16   6   5   10.81    0.87
  16   6   5   13.26    1.22
  16   6   5    9.59    1.09
  18  -6   5    2.62    0.63
  18   6   5    2.04    0.68
 -18   6  -5    2.36    0.42
 -13  -7   5    3.13    0.52
  13  -7  -5    2.52    0.53
  13   7  -5    2.05    0.69
 -13   7   5    1.88    0.52
 -11  -7   5    9.51    0.75
  11  -7  -5    9.12    0.89
 -11   7   5    8.57    0.89
  11   7  -5    8.86    1.22
  -9  -7   5    2.84    0.50
   9  -7  -5    3.39    0.55
   9   7  -5    3.04    0.77
  -9   7   5    2.48    0.52
   7  -7  -5   11.18    0.78
  -7  -7   5   12.16    0.83
  -7   7   5   10.53    0.80
   7   7  -5    9.90    1.23
  -5  -7   5   10.04    0.78
   5  -7  -5   12.06    0.73
   5   7  -5   10.24    1.24
  -5   7   5    9.86    0.75
   5   7  -5    9.56    0.99
   3  -7  -5    6.94    0.54
  -3  -7   5    6.66    0.73
   3  -7  -5    5.96    0.84
   3   7  -5    6.38    0.96
  -3   7   5    6.65    0.64
   3   7  -5    6.08    0.82
   1  -7  -5    3.44    0.69
  -1  -7   5    3.03    0.52
  -1   7   5    3.22    0.43
   1   7  -5    2.31    0.52
   1   7  -5    3.18    0.73
   1   7  -5    3.43    0.65
  -1  -7  -5    2.90    0.62
   1  -7   5    2.34    0.50
   1   7   5    2.48    0.36
  -1   7  -5    2.22    0.42
  -1   7  -5    3.36    0.65
  -1   7  -5    2.63    0.54
  -1   7  -5    2.64    0.68
  -3  -7  -5   13.34    1.09
   3  -7   5   13.10    0.96
  -3   7  -5   15.33    1.25
  -3   7  -5   12.75    0.82
   3   7   5   13.07    0.61
  -3   7  -5   12.01    1.03
  -3   7  -5   13.09    0.98
   5  -7   5    6.35    0.78
  -5  -7  -5    5.64    0.81
  -5   7  -5    5.10    0.73
  -5   7  -5    4.73    0.63
  -5   7  -5    4.06    0.77
   5   7   5    5.03    0.35
   7  -7   5   15.58    1.08
  -7  -7  -5   16.46    1.19
  -7   7  -5   15.95    1.25
   7   7   5   14.22    0.53
  -7   7  -5   16.13    1.13
  -9  -7  -5   11.33    1.02
   9  -7   5    8.73    0.95
  -9   7  -5    8.07    0.96
  11  -7   5   12.95    1.04
  11   7   5   11.85    1.34
 -11   7  -5   13.80    1.11
  13  -7   5    1.20    0.49
  13   7   5    1.84    0.65
 -13   7  -5    1.93    0.60
 -28   0   6    1.06    0.51
 -26   0   6    0.24    0.44
 -26   0   6    0.28    0.40
  26   0  -6    0.56    0.39
 -24   0   6    4.04    0.72
 -24   0   6    3.98    0.67
  24   0  -6    4.46    0.69
  22   0  -6   86.78    2.89
 -22   0   6   92.72    3.09
  22   0  -6   88.57    3.00
 -20   0   6    5.81    0.73
  20   0  -6    5.24    0.70
  20   0  -6    5.60    0.70
 -20   0   6    6.13    0.74
 -18   0   6    4.18    0.61
  18   0  -6    3.56    0.56
 -18   0   6    4.93    0.63
  18   0  -6    4.97    0.63
 -16   0   6   12.35    0.80
 -16   0   6   12.89    0.82
  16   0  -6   13.81    0.97
 -16   0   6   14.51    0.92
  16   0  -6   12.08    0.85
 -16   0   6   12.58    0.85
  16   0  -6   12.40    0.83
 -14   0   6    7.07    0.69
 -14   0   6    6.39    0.66
 -14   0   6    6.15    0.69
  14   0  -6    6.85    0.59
 -14   0   6    5.85    0.58
 -14   0   6    6.02    0.63
  14   0  -6    6.55    0.68
  14   0  -6    6.95    0.65
 -12   0   6    0.72    0.24
  12   0  -6    0.89    0.28
 -12   0   6    0.65    0.27
  12   0  -6    0.59    0.25
 -12   0   6    1.22    0.34
 -12   0   6    0.47    0.23
 -12   0   6    0.75    0.28
  12   0  -6    0.31    0.23
 -10   0   6   32.99    1.27
  10   0  -6   34.03    1.45
  10   0  -6   31.95    1.25
  10   0  -6   31.97    1.30
 -10   0   6   33.25    1.27
 -10   0   6   31.81    1.19
 -10   0   6   32.98    1.42
  10   0  -6   33.15    1.21
 -10   0   6   30.84    1.29
   8   0  -6   23.74    1.08
   8   0  -6   24.21    1.16
  -8   0   6   24.60    1.08
   8   0  -6   25.88    1.02
  -8   0   6   25.64    1.17
  -8   0   6   24.97    0.98
  -8   0   6   25.10    1.05
  -8   0   6   23.90    1.02
   8   0  -6   25.37    1.05
  -6   0   6    5.95    0.49
   6   0  -6    5.74    0.53
   6   0  -6    5.71    0.57
   6   0  -6    5.75    0.46
  -6   0   6    6.30    0.50
   6   0  -6    5.84    0.48
  -6   0   6    5.34    0.42
  -6   0   6    6.63    0.49
  -6   0   6    6.08    0.50
  -4   0   6    0.79    0.24
  -4   0   6    0.72    0.20
  -4   0   6    0.94    0.25
  -4   0   6    0.68    0.22
   4   0  -6    1.13    0.28
   4   0  -6    1.10    0.29
  -4   0   6    1.19    0.28
   4   0  -6    0.81    0.24
  -2   0   6    0.21    0.19
   2   0  -6    0.31    0.18
  -2   0   6    0.32    0.19
  -2   0   6    0.34    0.20
   2   0  -6    0.23    0.18
  -2   0   6    0.23    0.18
   2   0  -6    0.13    0.15
  -2   0   6    0.02    0.13
   0   0  -6   60.95    1.75
   0   0   6   55.10    1.69
   0   0   6   57.02    1.92
   0   0   6   60.55    1.79
   0   0   6   58.91    1.73
   0   0  -6   58.18    1.96
   0   0   6   60.17    1.78
   0   0   6   58.31    1.60
   0   0  -6   56.67    1.78
  -2   0  -6    0.12    0.16
  -2   0  -6    0.16    0.13
  -2   0  -6   -0.10    0.13
   2   0   6    0.13    0.15
  -2   0  -6    0.06    0.16
   2   0   6    0.29    0.19
   2   0   6    0.20    0.19
   2   0   6    0.19    0.18
   4   0   6  156.55    4.32
  -4   0  -6  152.70    3.80
  -4   0  -6  160.07    3.90
   4   0   6  161.47    3.95
  -4   0  -6  156.10    4.39
   4   0   6  159.36    3.90
  -4   0  -6  164.46    3.99
  -4   0  -6  157.82    3.71
   6   0   6   10.34    0.61
   6   0   6    9.78    0.67
   6   0   6   10.34    0.62
   6   0   6   10.89    0.66
   6   0   6   10.62    0.66
  -6   0  -6   10.33    0.65
  -6   0  -6   11.37    0.61
  -6   0  -6   11.11    0.58
  -6   0  -6   11.70    0.74
  -6   0  -6   10.34    0.61
   8   0   6    7.22    0.55
  -8   0  -6    7.59    0.62
   8   0   6    8.79    0.64
  -8   0  -6    7.96    0.53
   8   0   6    7.76    0.55
   8   0   6    8.32    0.60
  -8   0  -6    7.11    0.57
  -8   0  -6    7.66    0.53
   8   0   6    8.16    0.60
  -8   0  -6    8.79    0.57
   8   0   6    7.32    0.52
  10   0   6   11.41    0.72
 -10   0  -6   11.01    0.79
 -10   0  -6   11.59    0.66
 -10   0  -6   11.12    0.71
 -10   0  -6   12.36    0.66
 -10   0  -6   12.16    0.69
  10   0   6   10.79    0.72
 -10   0  -6   12.23    0.46
  10   0   6    9.26    0.70
  10   0   6   10.40    0.67
 -10   0  -6   12.11    0.66
  10   0   6   12.78    0.73
  10   0   6   12.55    0.74
  12   0   6   16.41    0.87
  12   0   6   13.87    0.85
 -12   0  -6   14.96    0.60
 -12   0  -6   14.41    0.95
  12   0   6   13.87    0.89
  12   0   6   16.46    0.89
  12   0   6   16.25    0.84
 -12   0  -6   15.74    0.84
 -12   0  -6   14.52    0.85
 -12   0  -6   15.86    0.79
 -12   0  -6   16.94    0.80
 -14   0  -6   11.78    0.75
  14   0   6   12.91    0.78
 -14   0  -6   12.46    0.81
 -14   0  -6   12.55    0.91
 -14   0  -6   12.56    0.60
  14   0   6   10.45    0.80
  14   0   6   12.54    0.83
  14   0   6   12.93    0.83
 -14   0  -6   11.73    0.68
  16   0   6   20.47    1.18
  16   0   6   21.72    1.03
 -16   0  -6   22.37    1.15
 -16   0  -6   20.20    1.04
 -16   0  -6   18.48    0.91
  16   0   6   19.38    1.06
 -18   0  -6    2.86    0.42
 -18   0  -6    2.10    0.44
  18   0   6    3.23    0.56
  18   0   6    3.20    0.52
  18   0   6    3.43    0.48
 -18   0  -6    2.36    0.49
  18   0   6    2.97    0.51
 -20   0  -6    0.33    0.31
  20   0   6   -0.13    0.22
 -20   0  -6   -0.19    0.22
  20   0   6    0.53    0.34
  20   0   6   -0.30    0.17
 -22   0  -6   20.73    1.25
  22   0   6   20.38    1.29
 -22   0  -6   19.61    1.15
  22   0   6   19.02    1.11
  22   0   6   19.28    1.19
  24   0   6   -0.29    0.27
 -24   0  -6    0.05    0.27
  26   0   6    0.44    0.40
 -26   0  -6   -0.05    0.32
 -28   0  -6   41.54    1.97
 -27  -1   6    8.88    1.00
  27  -1  -6    9.99    1.10
 -27   1   6    9.77    1.06
 -25  -1   6    4.21    0.70
 -25  -1   6    5.49    0.81
  25  -1  -6    4.69    0.74
 -25   1   6    4.64    0.73
  23  -1  -6    6.95    0.85
 -23  -1   6    6.36    0.80
 -23  -1   6    7.13    0.87
  23  -1  -6    7.59    0.87
  23   1  -6    6.47    0.79
  23   1  -6    6.63    0.79
 -23   1   6    7.28    0.86
 -23   1   6    5.90    0.79
 -21  -1   6    3.16    0.56
  21  -1  -6    3.41    0.57
 -21  -1   6    4.49    0.67
  21  -1  -6    3.39    0.60
 -21   1   6    4.34    0.65
  21   1  -6    4.08    0.62
  21   1  -6    3.75    0.58
 -21   1   6    4.61    0.69
 -19  -1   6    3.18    0.56
  19  -1  -6    3.64    0.57
 -19  -1   6    4.15    0.61
  19  -1  -6    3.70    0.59
 -19   1   6    2.41    0.53
  19   1  -6    2.98    0.53
 -19   1   6    3.37    0.57
  19   1  -6    2.89    0.51
 -19   1   6    2.91    0.50
 -17  -1   6   26.77    1.31
 -17  -1   6   24.57    1.23
  17  -1  -6   26.60    1.29
  17  -1  -6   26.60    1.31
 -17   1   6   27.04    1.34
 -17   1   6   26.70    1.29
 -17   1   6   26.78    1.28
  17   1  -6   26.17    1.23
  17   1  -6   24.29    1.24
 -17   1   6   25.64    1.19
 -15  -1   6   60.99    2.13
  15  -1  -6   61.00    2.12
 -15  -1   6   60.84    2.32
  15  -1  -6   62.08    2.09
 -15  -1   6   59.03    2.06
 -15   1   6   59.76    2.05
  15   1  -6   59.15    2.00
  15   1  -6   58.95    2.23
 -15   1   6   61.17    2.07
 -15   1   6   59.37    2.11
  15   1  -6   58.48    2.07
 -15   1   6   61.78    1.94
  13  -1  -6   11.04    0.83
 -13  -1   6   10.81    0.70
 -13  -1   6   11.53    0.79
  13  -1  -6   10.24    0.73
 -13  -1   6   11.43    0.76
  13  -1  -6   10.25    0.72
 -13  -1   6   10.35    0.70
 -13   1   6   10.66    0.73
  13   1  -6   10.15    0.78
 -13   1   6   11.86    0.71
  13   1  -6    9.85    0.72
  13   1  -6   11.07    0.67
 -13   1   6   11.69    0.78
 -13   1   6   10.91    0.74
  13   1  -6   10.53    0.71
 -13   1   6   10.42    0.61
  11  -1  -6   35.99    1.45
 -11  -1   6   39.54    1.39
 -11  -1   6   37.53    1.61
  11  -1  -6   39.69    1.64
 -11  -1   6   36.83    1.46
  11  -1  -6   38.50    1.44
 -11  -1   6   38.10    1.43
 -11  -1   6   38.81    1.38
 -11   1   6   40.21    1.35
  11   1  -6   38.14    1.57
 -11   1   6   37.31    1.43
 -11   1   6   40.52    1.24
  11   1  -6   38.68    1.32
  11   1  -6   37.45    1.41
  11   1  -6   38.12    1.47
 -11   1   6   38.31    1.44
 -11   1   6   37.53    1.47
   9  -1  -6   15.93    0.86
  -9  -1   6   15.39    0.85
  -9  -1   6   15.09    0.83
   9  -1  -6   16.03    0.84
   9  -1  -6   16.20    0.94
  -9  -1   6   17.48    0.83
  -9  -1   6   16.64    0.80
  -9  -1   6   17.68    0.97
  -9   1   6   15.93    0.83
   9   1  -6   16.18    0.86
   9   1  -6   17.03    0.79
  -9   1   6   17.30    0.93
   9   1  -6   17.29    0.85
  -9   1   6   17.07    0.85
   9   1  -6   16.49    0.94
  -9   1   6   14.84    0.83
  -9   1   6   17.02    0.77
   7  -1  -6   75.87    2.21
   7  -1  -6   72.73    2.41
  -7  -1   6   71.63    2.09
  -7  -1   6   67.14    2.39
  -7  -1   6   72.90    2.04
  -7  -1   6   71.17    2.19
  -7  -1   6   73.85    2.15
   7  -1  -6   76.78    2.16
  -7   1   6   77.97    2.16
  -7   1   6   70.39    2.34
  -7   1   6   74.15    1.98
  -7   1   6   71.01    2.16
  -7   1   6   78.88    2.19
   7   1  -6   71.48    2.37
   7   1  -6   72.22    2.20
  -7   1   6   73.56    2.13
   7   1  -6   73.11    2.14
   5  -1  -6    4.35    0.52
   5  -1  -6    4.66    0.49
  -5  -1   6    3.55    0.46
  -5  -1   6    3.78    0.43
  -5  -1   6    4.14    0.44
  -5  -1   6    3.44    0.43
  -5  -1   6    3.52    0.40
   5  -1  -6    3.68    0.45
   5   1  -6    3.88    0.48
  -5   1   6    3.75    0.41
  -5   1   6    3.25    0.40
   5   1  -6    2.84    0.40
  -5   1   6    2.69    0.38
   5   1  -6    3.58    0.42
  -5   1   6    2.99    0.41
   5   1  -6    4.70    0.51
  -5   1   6    3.37    0.42
  -3  -1   6   89.02    2.45
  -3  -1   6   94.36    2.40
  -3  -1   6   88.47    2.81
   3  -1  -6   91.94    2.79
  -3  -1   6   87.46    2.49
  -3  -1   6   92.87    2.57
   3  -1  -6   96.53    2.55
   3  -1  -6   92.15    2.48
   3   1  -6   91.10    2.49
   3   1  -6   91.08    2.37
  -3   1   6   91.16    2.49
   3   1  -6   89.89    2.56
  -3   1   6   93.51    2.46
  -3   1   6   94.69    2.48
  -3   1   6   93.08    2.27
  -3   1   6   96.35    2.48
  -3   1   6   93.04    2.73
   3   1  -6   96.26    2.85
   1  -1  -6  122.62    3.13
  -1  -1   6  123.40    3.20
  -1  -1   6  118.38    3.51
  -1  -1   6  121.35    3.09
   1  -1  -6  120.24    3.45
  -1  -1   6  119.63    2.96
  -1  -1   6  127.97    3.22
  -1  -1   6  124.16    3.16
   1  -1  -6  122.43    3.07
  -1   1   6  123.15    3.05
   1   1  -6  118.83    3.12
  -1   1   6  126.06    3.10
  -1   1   6  117.96    3.03
   1   1  -6  124.04    3.19
  -1   1   6  118.87    3.36
   1   1  -6  128.27    3.01
   1   1  -6  118.87    2.96
   1   1  -6  116.06    3.18
  -1   1   6  121.63    2.95
  -1   1   6  123.89    2.82
  -1   1   6  118.14    3.08
   1   1  -6  118.86    3.51
   1  -1   6   46.47    1.54
  -1  -1  -6   46.78    1.48
   1  -1   6   43.24    1.65
  -1  -1  -6   47.16    1.62
   1  -1   6   46.54    1.33
  -1  -1  -6   48.18    1.44
   1  -1   6   46.68    1.48
   1  -1   6   46.64    1.51
   1  -1   6   46.67    1.40
   1  -1   6   48.19    1.58
   1   1   6   44.54    1.53
   1   1   6   45.50    1.44
  -1   1  -6   44.18    1.54
   1   1   6   46.80    1.18
  -1   1  -6   45.46    1.48
  -1   1  -6   47.60    1.42
  -1   1  -6   47.45    1.54
  -1   1  -6   48.92    1.44
   1   1   6   45.15    1.40
  -1   1  -6   46.29    1.70
   1   1   6   45.10    1.44
   1   1   6   45.13    1.42
  -3  -1  -6   41.98    1.33
   3  -1   6   42.99    1.47
   3  -1   6   40.76    1.58
   3  -1   6   40.63    1.40
   3  -1   6   41.48    1.18
   3  -1   6   42.27    1.30
  -3  -1  -6   39.35    1.48
  -3  -1  -6   42.23    1.25
  -3  -1  -6   41.31    1.37
  -3   1  -6   42.99    1.42
  -3   1  -6   42.34    1.41
   3   1   6   41.46    1.34
   3   1   6   41.41    1.41
  -3   1  -6   40.34    1.59
   3   1   6   42.48    1.48
   3   1   6   41.96    1.31
  -3   1  -6   42.12    1.32
  -3   1  -6   43.28    1.33
  -3   1  -6   39.53    1.44
   3   1   6   42.03    1.33
  -5  -1  -6   17.92    0.89
  -5  -1  -6   18.38    0.79
   5  -1   6   18.87    0.87
   5  -1   6   19.35    0.87
   5  -1   6   19.17    0.64
  -5  -1  -6   19.69    0.85
  -5  -1  -6   20.12    0.76
   5  -1   6   19.39    0.92
  -5   1  -6   18.76    0.88
  -5   1  -6   18.32    0.81
  -5   1  -6   17.51    0.97
  -5   1  -6   19.23    0.87
   5   1   6   19.18    0.79
   5   1   6   17.68    0.79
   5   1   6   17.03    0.89
   5   1   6   19.02    0.80
   5   1   6   18.54    0.82
  -5   1  -6   17.44    0.90
  -7  -1  -6   55.75    1.64
  -7  -1  -6   50.80    1.83
  -7  -1  -6   55.62    1.71
  -7  -1  -6   53.31    1.52
   7  -1   6   51.15    1.70
  -7   1  -6   53.82    1.98
   7   1   6   54.70    1.72
  -7   1  -6   50.59    1.68
   7   1   6   53.52    1.85
  -7   1  -6   53.00    1.80
  -7   1  -6   54.29    1.65
   7   1   6   53.63    1.63
  -7   1  -6   55.13    1.73
   7   1   6   55.17    1.72
   7   1   6   53.71    1.62
   7   1   6   53.11    1.59
   9  -1   6   15.10    0.85
   9  -1   6   13.69    0.77
   9  -1   6   14.36    0.87
  -9  -1  -6   15.04    0.78
   9  -1   6   14.25    0.71
  -9  -1  -6   14.04    0.72
  -9  -1  -6   15.56    0.66
  -9  -1  -6   14.71    0.84
   9   1   6   14.28    0.71
  -9   1  -6   14.55    0.79
   9   1   6   14.79    0.72
   9   1   6   13.65    0.84
  -9   1  -6   13.73    0.74
  -9   1  -6   14.52    0.85
   9   1   6   13.95    0.72
  -9   1  -6   13.95    0.59
  -9   1  -6   14.01    0.91
   9   1   6   13.57    0.72
  -9   1  -6   13.58    0.77
  -9   1  -6   13.50    0.76
  11  -1   6   18.38    1.04
 -11  -1  -6   18.14    1.00
  11  -1   6   18.17    0.95
  11  -1   6   18.03    1.00
  11  -1   6   19.79    0.86
 -11  -1  -6   18.67    0.77
  11  -1   6   18.45    1.02
 -11  -1  -6   19.15    0.87
 -11  -1  -6   18.56    0.91
  11   1   6   19.11    0.86
 -11   1  -6   21.50    0.99
  11   1   6   17.97    0.82
 -11   1  -6   17.80    0.90
  11   1   6   17.37    0.99
 -11   1  -6   19.98    0.77
 -11   1  -6   17.66    0.97
  11   1   6   18.03    0.91
 -11   1  -6   18.44    1.09
 -11   1  -6   17.20    0.91
 -11   1  -6   17.98    0.93
  11   1   6   18.77    0.88
 -13  -1  -6    3.48    0.47
 -13  -1  -6    3.69    0.47
  13  -1   6    3.29    0.52
  13  -1   6    3.52    0.43
 -13  -1  -6    3.50    0.37
  13  -1   6    3.70    0.53
 -13  -1  -6    2.30    0.43
  13  -1   6    2.59    0.45
  13  -1   6    4.66    0.61
 -13   1  -6    3.65    0.49
  13   1   6    3.93    0.58
 -13   1  -6    4.23    0.54
  13   1   6    3.67    0.50
  13   1   6    3.59    0.44
 -13   1  -6    3.51    0.47
 -13   1  -6    4.00    0.55
 -13   1  -6    3.62    0.59
  13   1   6    3.29    0.44
 -13   1  -6    4.10    0.42
  13   1   6    3.51    0.42
 -15  -1  -6   39.16    1.70
  15  -1   6   40.46    1.70
 -15  -1  -6   39.12    1.24
  15  -1   6   39.75    1.64
 -15  -1  -6   35.10    1.46
 -15  -1  -6   37.66    1.43
  15  -1   6   40.08    1.56
 -15   1  -6   37.34    1.60
 -15   1  -6   36.02    1.46
  15   1   6   37.01    1.43
 -15   1  -6   38.16    1.53
  15   1   6   37.04    1.65
  15   1   6   38.10    1.39
  15   1   6   35.75    1.50
 -17  -1  -6   15.56    0.89
 -17  -1  -6   16.12    0.96
  17  -1   6   16.14    1.03
  17  -1   6   17.26    0.98
 -17   1  -6   14.53    1.00
  17   1   6   15.03    1.05
  17   1   6   16.85    0.98
 -17   1  -6   16.17    0.91
 -17   1  -6   14.74    0.94
  17   1   6   15.42    0.84
  19  -1   6    5.98    0.71
  19  -1   6    5.96    0.73
  19  -1   6    7.43    0.83
 -19  -1  -6    6.02    0.66
 -19   1  -6    6.68    0.81
  19   1   6    5.53    0.76
  19   1   6    6.19    0.62
 -19   1  -6    5.84    0.70
 -19   1  -6    5.69    0.64
  19   1   6    6.95    0.76
  21  -1   6    0.49    0.28
  21  -1   6    0.34    0.29
  21  -1   6    0.10    0.34
 -21  -1  -6    0.42    0.30
  21  -1   6    0.43    0.34
  21   1   6    0.77    0.38
  21   1   6    0.50    0.31
 -21   1  -6    0.35    0.29
 -21   1  -6    0.61    0.32
 -21   1  -6   -0.20    0.29
  21   1   6    0.84    0.30
  23  -1   6    0.91    0.40
 -23  -1  -6    0.11    0.30
  23  -1   6    0.55    0.36
 -23   1  -6    0.57    0.40
 -23   1  -6    0.64    0.36
  23   1   6    0.81    0.32
  23   1   6    1.03    0.46
 -25  -1  -6    1.58    0.47
  25  -1   6    2.25    0.57
  25   1   6    0.90    0.49
 -25   1  -6    1.03    0.44
 -25   1  -6    2.28    0.62
  27  -1   6    5.02    0.81
 -27  -1  -6    5.45    0.75
 -27   1  -6    4.93    0.79
 -28  -2   6    3.99    0.70
  28  -2  -6    2.24    0.62
  28   2  -6    3.40    0.42
  28   2  -6    3.19    0.39
 -28   2   6    2.92    0.68
 -26  -2   6    8.90    0.97
  26  -2  -6    9.11    1.05
 -26   2   6   11.91    1.16
  26   2  -6    9.49    0.60
  24  -2  -6    0.83    0.40
 -24  -2   6    0.39    0.40
 -24   2   6    1.06    0.45
 -22  -2   6    8.68    0.95
  22  -2  -6   11.55    0.95
 -22  -2   6    8.17    0.87
  22  -2  -6   10.63    0.90
 -22   2   6    9.94    0.82
  22   2  -6    7.65    0.84
 -22   2   6   11.44    0.92
  22   2  -6    9.31    0.63
 -22   2   6    8.94    0.96
 -20  -2   6    6.24    0.76
  20  -2  -6    5.28    0.69
 -20  -2   6    5.02    0.70
  20  -2  -6    5.82    0.75
  20   2  -6    5.08    0.65
 -20   2   6    5.49    0.75
  20   2  -6    5.29    0.54
 -20   2   6    4.52    0.68
 -20   2   6    4.23    0.59
 -18  -2   6    0.52    0.36
  18  -2  -6    0.76    0.34
 -18  -2   6    0.74    0.33
  18  -2  -6    0.29    0.28
  18   2  -6    0.00    0.21
 -18   2   6    0.87    0.32
 -18   2   6    0.82    0.35
  18   2  -6    0.38    0.26
 -18   2   6    0.45    0.35
  18   2  -6    0.59    0.24
 -18   2   6    1.12    0.43
  16  -2  -6    0.31    0.26
 -16  -2   6    0.32    0.25
 -16  -2   6    0.04    0.24
  16  -2  -6    0.25    0.26
 -16  -2   6   -0.18    0.23
  16   2  -6    0.35    0.22
  16   2  -6    0.15    0.22
 -16   2   6    0.07    0.25
  16   2  -6    0.13    0.18
 -16   2   6    0.14    0.23
 -16   2   6    0.13    0.26
 -16   2   6   -0.20    0.25
 -14  -2   6    3.09    0.53
 -14  -2   6    2.83    0.46
  14  -2  -6    3.28    0.51
 -14  -2   6    2.67    0.47
  14  -2  -6    2.33    0.43
  14   2  -6    2.61    0.37
 -14   2   6    2.87    0.48
 -14   2   6    2.29    0.47
 -14   2   6    2.36    0.39
  14   2  -6    2.42    0.35
  14   2  -6    3.03    0.47
  14   2  -6    2.46    0.43
 -14   2   6    2.11    0.43
  12  -2  -6   73.19    2.50
  12  -2  -6   69.95    2.19
 -12  -2   6   67.30    2.43
 -12  -2   6   71.20    2.23
 -12  -2   6   65.81    2.14
  12  -2  -6   69.93    2.21
 -12   2   6   67.44    1.97
 -12   2   6   69.22    2.15
 -12   2   6   69.74    1.77
  12   2  -6   67.62    1.92
 -12   2   6   66.19    2.17
 -12   2   6   64.25    2.32
  12   2  -6   68.06    2.32
 -12   2   6   63.98    2.16
  12   2  -6   66.01    2.08
  12   2  -6   62.30    2.13
  12   2  -6   66.07    1.88
 -10  -2   6   52.40    1.67
  10  -2  -6   50.10    1.77
 -10  -2   6   48.65    1.75
  10  -2  -6   49.57    1.95
 -10  -2   6   53.31    1.67
  10  -2  -6   51.57    1.75
 -10  -2   6   53.87    1.77
 -10  -2   6   48.93    1.96
  10   2  -6   53.27    1.56
 -10   2   6   51.69    1.89
  10   2  -6   51.50    1.76
  10   2  -6   50.73    1.77
  10   2  -6   51.18    1.57
 -10   2   6   52.80    1.57
 -10   2   6   49.38    1.76
 -10   2   6   54.07    1.76
  10   2  -6   52.83    1.71
 -10   2   6   53.61    1.78
  10   2  -6   53.96    1.92
 -10   2   6   50.56    1.72
 -10   2   6   52.41    1.39
  -8  -2   6  108.55    2.89
   8  -2  -6  114.76    3.03
   8  -2  -6  106.78    3.34
  -8  -2   6  105.79    3.40
  -8  -2   6  110.35    3.08
   8  -2  -6  109.22    3.04
  -8  -2   6  113.03    3.04
  -8  -2   6  108.71    2.88
  -8   2   6  111.46    2.72
   8   2  -6  114.43    3.01
   8   2  -6  110.98    3.32
  -8   2   6  116.03    3.03
   8   2  -6  115.69    3.06
  -8   2   6  115.15    3.00
   8   2  -6  114.04    2.79
  -8   2   6  111.45    3.27
   8   2  -6  112.21    2.81
  -8   2   6  108.81    3.00
   8   2  -6  104.10    3.02
  -8   2   6  113.46    2.97
   8   2  -6  109.19    2.96
  -6  -2   6   16.42    0.79
  -6  -2   6   18.72    0.88
  -6  -2   6   16.81    0.96
  -6  -2   6   17.84    0.82
   6  -2  -6   17.02    0.85
  -6  -2   6   17.36    0.88
   6  -2  -6   17.57    0.94
   6  -2  -6   18.73    0.84
   6   2  -6   17.70    0.93
  -6   2   6   16.97    0.78
  -6   2   6   15.74    0.65
   6   2  -6   17.51    0.84
  -6   2   6   15.70    0.81
   6   2  -6   17.65    0.75
  -6   2   6   17.17    0.84
   6   2  -6   16.81    0.76
  -6   2   6   16.31    0.81
   6   2  -6   17.34    0.88
   6   2  -6   17.47    0.88
   6   2  -6   17.23    0.85
  -6   2   6   17.62    0.83
  -4  -2   6   11.34    0.63
  -4  -2   6   11.81    0.70
   4  -2  -6   11.69    0.72
  -4  -2   6   12.57    0.67
   4  -2  -6   12.46    0.66
  -4  -2   6   11.42    0.76
   4  -2  -6   11.82    0.67
  -4  -2   6   11.57    0.72
   4   2  -6   12.38    0.73
  -4   2   6   12.98    0.50
  -4   2   6   13.15    0.65
   4   2  -6   11.41    0.60
  -4   2   6   11.84    0.65
   4   2  -6   12.18    0.71
  -4   2   6   12.70    0.66
  -4   2   6   12.13    0.65
   4   2  -6   13.08    0.73
  -4   2   6   12.53    0.63
  -4   2   6   11.75    0.66
   4   2  -6   12.39    0.76
   4   2  -6   11.70    0.67
   4   2  -6   12.19    0.62
   2  -2  -6   68.75    1.95
  -2  -2   6   69.27    1.94
  -2  -2   6   68.91    1.98
   2  -2  -6   65.31    2.17
   2  -2  -6   69.42    1.99
  -2  -2   6   67.36    2.08
  -2  -2   6   67.59    2.05
   2   2  -6   70.24    2.29
  -2   2   6   70.00    1.93
   2   2  -6   69.52    1.91
   2   2  -6   69.96    1.90
   2   2  -6   70.58    2.03
  -2   2   6   70.75    2.02
  -2   2   6   70.89    1.95
   2   2  -6   64.38    2.06
  -2   2   6   69.00    1.88
   2   2  -6   70.61    2.09
  -2   2   6   65.74    1.91
  -2   2   6   67.88    2.03
  -2   2   6   68.00    1.93
   2   2  -6   69.86    2.03
   0  -2   6   27.00    1.06
   0  -2   6   27.79    1.12
   0  -2  -6   28.60    1.05
   0  -2  -6   27.71    1.14
   0  -2  -6   28.87    1.02
   0  -2   6   27.50    1.07
   0  -2   6   27.99    1.14
   0  -2   6   28.31    1.04
   0   2   6   30.35    1.00
   0   2  -6   26.50    1.07
   0   2   6   29.38    1.01
   0   2  -6   28.51    1.12
   0   2  -6   26.42    1.23
   0   2  -6   29.16    1.03
   0   2   6   27.63    1.09
   0   2   6   28.02    1.02
   0   2   6   29.63    0.97
   0   2  -6   29.23    1.18
   0   2  -6   29.43    1.16
   0   2   6   27.49    0.96
   0   2  -6   27.91    1.03
   0   2   6   29.60    1.02
   2  -2   6   31.55    1.23
  -2  -2  -6   31.38    1.07
   2  -2   6   32.43    1.14
  -2  -2  -6   33.16    1.23
   2  -2   6   31.93    1.14
   2  -2   6   31.75    1.38
  -2  -2  -6   34.53    1.14
   2  -2   6   31.16    1.17
  -2   2  -6   33.21    1.29
   2   2   6   31.84    1.03
  -2   2  -6   30.98    1.19
   2   2   6   30.55    1.20
   2   2   6   30.79    1.04
  -2   2  -6   33.66    1.14
  -2   2  -6   31.04    1.12
   2   2   6   31.54    1.04
  -2   2  -6   32.29    1.37
   2   2   6   31.57    1.08
  -4  -2  -6   26.07    1.10
   4  -2   6   27.95    1.30
   4  -2   6   27.41    1.05
  -4  -2  -6   28.92    1.04
  -4  -2  -6   28.93    1.00
   4  -2   6   27.98    1.17
   4  -2   6   27.54    1.03
  -4   2  -6   28.95    1.21
   4   2   6   29.71    0.93
   4   2   6   28.82    1.18
  -4   2  -6   30.47    1.33
   4   2   6   28.92    1.00
  -4   2  -6   29.45    1.17
  -4   2  -6   29.65    1.15
   4   2   6   29.02    0.95
   4   2   6   30.09    0.98
  -4   2  -6   27.43    1.06
   6  -2   6   38.35    1.28
   6  -2   6   38.42    1.33
  -6  -2  -6   38.44    1.23
  -6  -2  -6   37.70    1.08
   6  -2   6   37.25    1.59
  -6  -2  -6   38.08    1.27
   6  -2   6   39.22    1.44
  -6  -2  -6   38.22    1.40
   6   2   6   38.86    1.20
   6   2   6   39.05    1.24
   6   2   6   38.58    1.30
  -6   2  -6   38.64    1.41
  -6   2  -6   38.18    1.62
  -6   2  -6   38.03    1.48
  -6   2  -6   38.17    1.41
   6   2   6   40.53    1.49
  -6   2  -6   37.76    1.48
   6   2   6   39.42    1.13
  -6   2  -6   37.58    1.33
   6   2   6   39.07    1.17
  -8  -2  -6    6.92    0.36
   8  -2   6    5.66    0.60
   8  -2   6    7.44    0.54
  -8  -2  -6    6.56    0.52
   8  -2   6    6.63    0.63
  -8  -2  -6    7.16    0.47
  -8  -2  -6    6.63    0.49
   8   2   6    6.34    0.42
  -8   2  -6    7.33    0.53
   8   2   6    5.70    0.41
  -8   2  -6    7.17    0.57
   8   2   6    5.95    0.63
   8   2   6    6.71    0.52
  -8   2  -6    6.52    0.58
  -8   2  -6    5.37    0.63
  -8   2  -6    6.53    0.52
  -8   2  -6    5.44    0.59
   8   2   6    6.23    0.45
  -8   2  -6    7.21    0.61
  -8   2  -6    6.02    0.46
 -10  -2  -6   56.71    1.74
  10  -2   6   54.66    2.14
 -10  -2  -6   56.92    1.94
 -10  -2  -6   56.37    1.68
  10  -2   6   55.11    1.94
 -10  -2  -6   56.58    1.58
  10  -2   6   56.61    1.93
  10  -2   6   57.14    2.12
 -10   2  -6   57.48    1.81
 -10   2  -6   56.30    1.75
  10   2   6   56.84    1.69
 -10   2  -6   55.02    1.56
 -10   2  -6   54.95    1.88
  10   2   6   54.45    1.61
  10   2   6   55.88    2.01
  10   2   6   56.92    1.71
 -10   2  -6   54.39    1.88
  10   2   6   58.83    1.60
  10   2   6   51.65    1.77
 -10   2  -6   54.05    1.96
 -10   2  -6   53.61    1.96
 -10   2  -6   58.94    2.22
 -12  -2  -6   63.95    1.68
  12  -2   6   65.78    2.36
  12  -2   6   64.83    2.14
  12  -2   6   61.42    2.15
 -12  -2  -6   66.28    1.90
 -12  -2  -6   64.81    2.18
  12  -2   6   60.68    2.36
 -12  -2  -6   60.95    1.92
  12   2   6   63.69    2.03
 -12   2  -6   60.31    1.97
  12   2   6   63.98    1.90
 -12   2  -6   61.15    2.14
  12   2   6   60.21    2.21
 -12   2  -6   61.02    2.07
 -12   2  -6   63.46    2.11
 -12   2  -6   65.90    2.23
  12   2   6   61.85    1.89
  14  -2   6   62.90    2.16
 -14  -2  -6   58.91    2.21
 -14  -2  -6   63.39    1.99
  14  -2   6   58.60    2.16
 -14  -2  -6   64.91    1.94
  14   2   6   62.30    2.29
 -14   2  -6   67.59    2.21
  14   2   6   61.15    2.08
 -14   2  -6   64.46    2.08
  14   2   6   62.62    1.83
 -14   2  -6   63.17    2.27
 -14   2  -6   62.90    2.19
 -16  -2  -6    6.92    0.57
  16  -2   6    7.80    0.70
 -16  -2  -6    6.09    0.71
  16  -2   6    5.86    0.71
 -16   2  -6    7.37    0.75
  16   2   6    6.93    0.72
  16   2   6    7.68    0.84
 -16   2  -6    6.49    0.72
  16   2   6    6.47    0.50
 -16   2  -6    8.21    0.83
  18  -2   6    1.17    0.37
 -18  -2  -6    0.92    0.31
  18  -2   6    1.05    0.37
 -18   2  -6    0.62    0.32
  18   2   6    0.91    0.34
  18   2   6    0.81    0.25
 -18   2  -6    0.62    0.32
  18   2   6    0.68    0.35
 -18   2  -6    0.74    0.40
 -20  -2  -6    1.92    0.41
  20  -2   6    2.19    0.50
  20  -2   6    1.76    0.44
  20  -2   6    1.89    0.54
 -20   2  -6    1.88    0.47
 -20   2  -6    2.39    0.58
  20   2   6    1.76    0.49
 -20   2  -6    2.22    0.49
  20   2   6    2.20    0.38
  20   2   6    1.34    0.39
 -22  -2  -6    1.62    0.43
  22  -2   6    1.37    0.45
  22  -2   6    1.78    0.48
  22  -2   6    1.00    0.42
 -22   2  -6    1.54    0.51
  22   2   6    1.32    0.34
 -22   2  -6    1.55    0.46
  22   2   6    1.61    0.50
 -22   2  -6    1.92    0.51
 -24  -2  -6   13.95    0.96
  24  -2   6   13.73    1.07
  24  -2   6   12.06    1.01
  24   2   6   13.25    1.14
 -24   2  -6   13.68    1.15
 -24   2  -6   14.28    1.11
  24   2   6   13.91    0.85
 -26  -2  -6   20.92    1.24
  26  -2   6   20.48    1.34
 -26   2  -6   22.31    1.43
  25  -3  -6    1.12    0.46
 -25  -3   6    0.85    0.45
 -25   3   6    0.57    0.49
 -25   3   6    0.85    0.38
  23  -3  -6    4.92    0.75
  23  -3  -6    2.98    0.66
 -23  -3   6    3.51    0.62
 -23   3   6    3.85    0.58
 -23   3   6    3.67    0.66
  21  -3  -6   12.86    1.01
  21  -3  -6   14.38    1.03
 -21  -3   6   13.43    0.95
  21   3  -6   12.25    0.48
 -21   3   6   13.62    1.00
 -21   3   6   12.29    0.86
  21   3  -6   12.01    0.49
  21   3  -6   11.55    0.86
  19  -3  -6   24.53    1.36
  19  -3  -6   25.36    1.36
 -19  -3   6   27.68    1.35
 -19   3   6   25.73    1.38
  19   3  -6   26.25    1.29
 -19   3   6   26.58    1.20
  19   3  -6   25.02    0.84
  19   3  -6   25.25    0.84
 -19   3   6   27.25    1.37
 -17  -3   6    2.27    0.47
  17  -3  -6    1.83    0.45
  17  -3  -6    1.96    0.45
 -17  -3   6    2.14    0.50
 -17  -3   6    2.75    0.53
 -17   3   6    2.34    0.49
  17   3  -6    2.16    0.27
  17   3  -6    2.61    0.46
 -17   3   6    2.10    0.38
 -17   3   6    2.80    0.54
  17   3  -6    1.86    0.26
 -17   3   6    3.41    0.57
 -15  -3   6    3.68    0.54
 -15  -3   6    4.01    0.62
  15  -3  -6    3.83    0.57
  15  -3  -6    4.47    0.60
 -15  -3   6    4.06    0.59
  15   3  -6    3.32    0.34
  15   3  -6    3.63    0.51
 -15   3   6    3.85    0.59
 -15   3   6    3.80    0.46
  15   3  -6    3.82    0.36
 -15   3   6    3.64    0.56
 -15   3   6    3.47    0.55
 -13  -3   6    9.08    0.73
 -13  -3   6    8.83    0.69
  13  -3  -6    9.64    0.73
 -13  -3   6    9.15    0.80
  13  -3  -6    8.15    0.68
  13   3  -6    8.40    0.65
 -13   3   6    9.82    0.74
 -13   3   6    9.38    0.75
 -13   3   6    8.04    0.68
  13   3  -6    9.54    0.66
 -13   3   6    8.66    0.56
  13   3  -6    9.15    0.50
  13   3  -6    8.90    0.48
  11  -3  -6    5.02    0.60
 -11  -3   6    4.70    0.56
 -11  -3   6    5.15    0.61
 -11  -3   6    3.70    0.55
  11  -3  -6    5.05    0.58
 -11   3   6    6.08    0.60
 -11   3   6    5.26    0.59
 -11   3   6    5.41    0.59
  11   3  -6    4.91    0.56
 -11   3   6    4.36    0.54
  11   3  -6    4.66    0.38
 -11   3   6    4.64    0.56
  11   3  -6    5.12    0.37
 -11   3   6    4.82    0.39
  11   3  -6    4.82    0.52
  -9  -3   6   24.67    1.26
   9  -3  -6   25.40    1.11
   9  -3  -6   22.50    1.19
  -9  -3   6   23.02    1.08
   9  -3  -6   22.75    1.06
  -9  -3   6   22.55    1.10
  -9   3   6   23.58    1.02
  -9   3   6   26.52    1.09
   9   3  -6   25.67    1.13
  -9   3   6   24.27    1.09
   9   3  -6   24.54    0.86
   9   3  -6   24.18    0.88
  -9   3   6   24.59    1.10
   9   3  -6   22.44    1.01
   9   3  -6   22.51    1.07
  -9   3   6   23.55    0.84
  -9   3   6   25.28    1.09
  -9   3   6   23.39    0.81
  -7  -3   6   74.89    2.29
  -7  -3   6   73.58    2.23
   7  -3  -6   73.24    2.45
  -7  -3   6   69.25    2.50
   7  -3  -6   70.41    2.19
   7  -3  -6   74.57    2.19
   7   3  -6   71.70    2.15
  -7   3   6   72.10    2.12
   7   3  -6   74.45    1.96
  -7   3   6   74.09    1.99
  -7   3   6   74.30    1.71
  -7   3   6   71.92    2.15
  -7   3   6   74.87    2.19
  -7   3   6   74.46    2.11
   7   3  -6   73.63    1.93
  -7   3   6   75.32    2.26
   7   3  -6   74.56    2.23
   7   3  -6   71.36    2.23
   5  -3  -6  108.83    2.94
   5  -3  -6  111.32    2.91
  -5  -3   6  109.42    3.05
  -5  -3   6  108.03    3.39
  -5  -3   6  111.12    3.01
   5  -3  -6  109.71    3.27
  -5  -3   6  106.92    2.83
  -5   3   6  106.27    2.85
   5   3  -6  106.59    2.91
   5   3  -6  111.00    2.71
  -5   3   6  106.32    2.42
  -5   3   6  110.51    2.84
   5   3  -6  102.55    2.99
   5   3  -6  110.33    3.28
   5   3  -6  113.13    3.03
  -5   3   6  109.54    2.90
  -5   3   6  107.61    2.79
   5   3  -6  111.62    2.98
   5   3  -6  111.07    2.70
  -5   3   6  111.99    3.02
  -5   3   6  113.60    2.86
   3  -3  -6   18.74    0.92
  -3  -3   6   19.45    0.94
   3  -3  -6   20.25    0.87
  -3  -3   6   19.58    0.85
   3  -3  -6   19.09    0.84
  -3  -3   6   19.09    0.86
  -3  -3   6   19.96    0.96
  -3  -3   6   17.63    1.02
  -3   3   6   18.81    0.73
  -3   3   6   21.31    0.81
  -3   3   6   17.90    0.82
   3   3  -6   18.56    0.87
  -3   3   6   19.07    0.76
   3   3  -6   17.86    0.91
  -3   3   6   18.96    0.81
   3   3  -6   17.81    0.76
  -3   3   6   18.76    0.79
   3   3  -6   17.53    0.97
   3   3  -6   18.18    0.90
  -3   3   6   17.91    0.59
   3   3  -6   17.79    0.92
   3   3  -6   19.02    0.78
  -1  -3   6    0.65    0.26
   1  -3  -6    0.29    0.18
   1  -3  -6    0.36    0.20
  -1  -3   6    0.59    0.24
  -1  -3   6    0.72    0.23
   1  -3  -6    0.61    0.22
  -1  -3   6    0.61    0.25
  -1   3   6    0.73    0.16
   1   3  -6    0.27    0.21
  -1   3   6    0.57    0.20
   1   3  -6    0.66    0.28
   1   3  -6    0.71    0.25
  -1   3   6    0.45    0.20
  -1   3   6    0.80    0.23
  -1   3   6    0.68    0.18
   1   3  -6    0.28    0.19
   1   3  -6    0.59    0.19
   1   3  -6    0.39    0.25
   1   3  -6    0.56    0.19
  -1   3   6    0.64    0.19
   1  -3   6   51.36    1.77
   1  -3   6   51.60    1.73
   1  -3   6   51.20    1.60
  -1  -3  -6   51.01    1.49
  -1  -3  -6   52.72    1.71
   1  -3   6   48.72    1.94
  -1  -3  -6   51.57    1.53
   1   3   6   49.35    1.64
  -1   3  -6   50.48    1.66
   1   3   6   52.85    1.62
   1   3   6   50.54    1.40
  -1   3  -6   50.22    1.72
   1   3   6   51.13    1.41
  -1   3  -6   50.40    1.87
   1   3   6   50.36    1.49
  -1   3  -6   51.03    1.70
  -1   3  -6   49.77    1.53
  -1   3  -6   48.18    1.72
  -3  -3  -6   18.34    0.78
   3  -3   6   17.59    0.84
   3  -3   6   19.00    0.93
  -3  -3  -6   18.60    0.76
   3  -3   6   16.16    1.01
  -3  -3  -6   19.06    0.85
   3  -3   6   17.43    0.92
  -3  -3  -6   17.01    0.71
  -3   3  -6   18.23    0.93
  -3   3  -6   17.50    0.94
  -3   3  -6   17.31    0.98
  -3   3  -6   18.82    0.83
  -3   3  -6   18.64    0.82
   3   3   6   17.81    0.73
   3   3   6   18.96    0.92
  -3   3  -6   18.92    0.91
   3   3   6   18.57    0.75
  -3   3  -6   20.52    0.99
  -3   3  -6   18.58    1.03
   5  -3   6   46.53    1.69
  -5  -3  -6   49.09    1.59
   5  -3   6   46.08    1.90
  -5  -3  -6   50.53    1.41
  -5  -3  -6   47.22    1.43
   5  -3   6   47.77    1.66
  -5  -3  -6   49.54    1.50
  -5   3  -6   48.95    1.56
   5   3   6   48.26    1.71
  -5   3  -6   45.99    1.68
   5   3   6   46.98    1.48
   5   3   6   47.56    1.40
  -5   3  -6   45.62    1.73
  -5   3  -6   48.34    1.66
  -5   3  -6   45.64    1.79
  -5   3  -6   49.25    1.90
  -5   3  -6   51.86    1.55
  -7  -3  -6   29.06    1.16
  -7  -3  -6   33.20    1.06
   7  -3   6   32.91    1.36
  -7  -3  -6   32.30    1.09
   7  -3   6   30.89    1.26
   7  -3   6   33.17    1.54
  -7  -3  -6   31.16    1.12
   7   3   6   30.91    1.04
  -7   3  -6   31.43    1.20
  -7   3  -6   32.20    1.19
   7   3   6   32.23    1.35
   7   3   6   30.91    0.89
  -7   3  -6   28.73    1.33
  -7   3  -6   30.46    1.40
   7   3   6   32.46    1.18
  -7   3  -6   33.67    1.52
  -7   3  -6   31.79    1.31
  -7   3  -6   32.54    1.22
  -7   3  -6   30.47    1.32
   9  -3   6   38.10    1.41
   9  -3   6   35.13    1.45
  -9  -3  -6   35.28    1.15
  -9  -3  -6   34.68    1.19
  -9  -3  -6   32.92    1.29
  -9  -3  -6   34.06    1.22
   9  -3   6   34.76    1.65
   9   3   6   34.39    1.15
  -9   3  -6   35.25    1.51
  -9   3  -6   36.63    1.25
  -9   3  -6   35.63    1.33
   9   3   6   34.57    0.96
   9   3   6   34.64    1.49
  -9   3  -6   36.55    1.44
  -9   3  -6   35.07    1.44
   9   3   6   36.07    1.32
   9   3   6   33.30    0.96
   9   3   6   36.37    1.19
  -9   3  -6   31.69    1.48
 -11  -3  -6   17.48    0.76
  11  -3   6   18.67    1.04
 -11  -3  -6   17.89    0.90
 -11  -3  -6   18.05    0.83
  11  -3   6   17.65    0.98
 -11   3  -6   18.42    1.07
 -11   3  -6   16.52    1.02
  11   3   6   15.19    0.99
 -11   3  -6   18.75    1.04
  11   3   6   16.95    0.76
  11   3   6   16.39    0.90
  11   3   6   17.29    0.59
 -11   3  -6   16.82    0.90
 -11   3  -6   17.09    0.98
  11   3   6   18.08    0.81
 -13  -3  -6   21.55    0.94
  13  -3   6   18.45    1.09
 -13  -3  -6   18.84    0.99
  13  -3   6   21.26    1.10
 -13  -3  -6   19.40    0.84
  13   3   6   20.20    0.69
 -13   3  -6   19.69    1.12
 -13   3  -6   19.38    1.14
 -13   3  -6   19.62    1.08
  13   3   6   20.78    1.03
 -13   3  -6   20.20    1.16
  13   3   6   19.41    1.15
 -13   3  -6   19.77    1.01
  15  -3   6    2.68    0.49
  15  -3   6    0.59    0.38
 -15  -3  -6    2.62    0.38
 -15  -3  -6    2.27    0.42
  15   3   6    2.57    0.28
 -15   3  -6    1.41    0.37
 -15   3  -6    1.87    0.44
  15   3   6    1.93    0.41
  15   3   6    1.66    0.45
 -15   3  -6    1.44    0.42
 -15   3  -6    2.17    0.50
 -17  -3  -6    6.15    0.53
  17  -3   6    6.42    0.75
  17  -3   6    7.17    0.83
 -17   3  -6    7.06    0.80
  17   3   6    7.24    0.43
 -17   3  -6    7.70    0.86
  17   3   6    7.41    0.87
 -17   3  -6    7.04    0.82
  17   3   6    6.04    0.71
 -19  -3  -6    7.68    0.63
  19  -3   6    7.80    0.83
  19  -3   6   11.32    0.93
  19   3   6    9.15    1.01
 -19   3  -6    9.07    0.94
 -19   3  -6    9.70    0.84
  19   3   6    8.63    0.87
  19   3   6    8.87    0.52
 -19   3  -6   10.01    1.02
  21  -3   6    0.89    0.40
 -21  -3  -6    0.79    0.33
  21  -3   6    0.44    0.31
  21  -3   6    1.56    0.49
 -21   3  -6    1.28    0.42
 -21   3  -6    0.23    0.38
 -21   3  -6    0.40    0.36
  21   3   6    0.39    0.33
 -23  -3  -6    0.78    0.35
  23  -3   6    0.80    0.44
 -23   3  -6    0.52    0.36
  23   3   6    0.59    0.43
 -23   3  -6    1.10    0.48
  25  -3   6    5.04    0.83
 -25  -3  -6    5.57    0.70
 -25   3  -6    5.33    0.83
 -25   3  -6    5.31    0.81
  24  -4  -6   12.01    1.04
 -24  -4   6   11.52    0.97
 -24   4   6   12.61    0.88
 -22  -4   6    2.85    0.58
  22  -4  -6    3.45    0.69
 -22   4   6    2.70    0.47
 -20  -4   6    3.76    0.59
  20  -4  -6    5.73    0.80
  20  -4  -6    5.73    0.79
 -20   4   6    3.89    0.51
 -20   4   6    4.79    0.76
  20   4  -6    5.16    0.62
 -18  -4   6    4.94    0.72
  18  -4  -6    5.42    0.74
  18  -4  -6    5.94    0.78
 -18  -4   6    6.61    0.74
 -18   4   6    4.91    0.52
 -18   4   6    6.34    0.80
  18   4  -6    4.61    0.59
 -18   4   6    5.47    0.73
  16  -4  -6    6.32    0.75
  16  -4  -6    6.02    0.75
 -16  -4   6    4.94    0.72
 -16  -4   6    5.69    0.66
 -16   4   6    4.10    0.44
  16   4  -6    4.40    0.57
 -16   4   6    3.86    0.58
 -16   4   6    3.50    0.60
 -14  -4   6   15.42    0.94
  14  -4  -6   15.87    1.01
 -14  -4   6   15.09    1.07
 -14   4   6   16.26    1.01
 -14   4   6   15.25    0.96
  14   4  -6   15.05    0.88
 -14   4   6   15.29    0.67
  12  -4  -6   25.40    1.22
  12  -4  -6   26.53    1.27
 -12  -4   6   26.77    1.23
 -12  -4   6   24.83    1.37
 -12   4   6   27.91    1.30
 -12   4   6   27.43    0.80
  12   4  -6   26.41    1.18
 -12   4   6   24.91    1.20
  10  -4  -6   34.00    1.37
 -10  -4   6   34.26    1.37
 -10  -4   6   30.68    1.34
  10  -4  -6   32.65    1.35
 -10  -4   6   30.00    1.50
 -10   4   6   31.79    1.30
 -10   4   6   29.47    1.32
  10   4  -6   29.24    1.26
   8  -4  -6   10.65    0.70
  -8  -4   6   10.03    0.72
  -8  -4   6    9.19    0.77
   8  -4  -6   10.59    0.69
   8  -4  -6    9.19    0.74
  -8  -4   6   10.35    0.70
   8   4  -6    9.26    0.34
   8   4  -6    8.88    0.65
  -8   4   6    8.91    0.67
  -8   4   6    9.30    0.63
  -6  -4   6   20.06    1.00
   6  -4  -6   19.43    0.93
  -6  -4   6   19.33    1.12
   6  -4  -6   19.41    0.92
  -6  -4   6   19.41    1.00
   6  -4  -6   17.80    1.00
  -6   4   6   20.11    0.75
   6   4  -6   20.74    0.93
   6   4  -6   20.01    0.65
   6   4  -6   19.72    0.97
  -6   4   6   21.18    0.89
  -6   4   6   19.21    0.93
   6   4  -6   20.86    0.66
   4  -4  -6    6.92    0.52
  -4  -4   6    5.86    0.67
   4  -4  -6    7.06    0.53
  -4  -4   6    8.12    0.63
  -4  -4   6    6.43    0.65
  -4  -4   6    5.56    0.66
   4  -4  -6    6.73    0.58
   4   4  -6    7.10    0.58
   4   4  -6    7.19    0.57
   4   4  -6    6.64    0.39
  -4   4   6    6.44    0.44
  -4   4   6    7.48    0.48
  -4   4   6    6.09    0.49
   4   4  -6    6.22    0.38
   2  -4  -6   22.94    0.93
   2  -4  -6   22.46    1.03
  -2  -4   6   23.03    1.09
  -2  -4   6   20.64    1.17
   2  -4  -6   23.97    0.92
  -2  -4   6   23.76    1.21
  -2   4   6   20.60    0.89
  -2   4   6   21.16    0.90
   2   4  -6   19.59    1.10
   2   4  -6   21.15    1.03
  -2   4   6   21.74    0.65
   2   4  -6   21.26    0.97
   2   4  -6   22.93    0.81
   2   4  -6   22.70    0.80
  -2   4   6   21.82    0.79
   0  -4   6    3.48    0.53
   0  -4   6    3.32    0.48
   0  -4   6    3.21    0.51
   0  -4  -6    4.35    0.42
   0  -4  -6    3.31    0.47
   0  -4  -6    3.19    0.36
   0   4  -6    2.55    0.46
   0   4  -6    3.78    0.55
   0   4  -6    3.89    0.51
   0   4   6    3.63    0.44
   0   4  -6    3.15    0.44
   0   4  -6    3.78    0.38
   0   4  -6    3.48    0.56
   0   4   6    3.86    0.29
   0   4   6    2.98    0.36
   0   4  -6    3.78    0.38
   2  -4   6   23.79    1.22
   2  -4   6   23.36    1.28
  -2  -4  -6   25.68    1.03
  -2  -4  -6   24.25    1.08
   2  -4   6   25.00    1.17
  -2  -4  -6   25.32    0.89
  -2   4  -6   26.82    0.97
   2   4   6   25.90    1.09
  -2   4  -6   24.82    1.10
  -2   4  -6   25.97    1.27
  -2   4  -6   25.36    1.16
  -2   4  -6   24.99    0.93
  -2   4  -6   23.41    1.24
   2   4   6   23.96    0.89
   2   4   6   24.76    0.88
  -2   4  -6   25.70    1.18
  -4  -4  -6   42.77    1.45
  -4  -4  -6   44.05    1.55
  -4  -4  -6   43.15    1.26
   4  -4   6   41.23    1.84
   4  -4   6   43.93    1.72
   4  -4   6   44.59    1.67
  -4   4  -6   41.10    1.64
  -4   4  -6   42.09    1.76
  -4   4  -6   44.46    1.41
   4   4   6   44.46    1.38
   4   4   6   43.83    1.29
   4   4   6   41.80    1.57
  -4   4  -6   43.12    1.57
  -4   4  -6   41.30    1.65
  -4   4  -6   44.66    1.40
  -4   4  -6   42.83    1.68
   6  -4   6   15.39    0.92
  -6  -4  -6   14.20    0.70
  -6  -4  -6   14.28    0.61
   6  -4   6   14.17    1.01
   6  -4   6   15.32    0.92
  -6  -4  -6   15.47    0.83
  -6   4  -6   16.01    0.77
   6   4   6   13.62    0.86
   6   4   6   14.51    0.62
   6   4   6   12.92    0.71
  -6   4  -6   15.21    0.76
  -6   4  -6   14.05    0.96
  -6   4  -6   14.71    0.91
  -6   4  -6   14.22    0.88
  -6   4  -6   14.11    0.91
  -6   4  -6   14.25    0.86
  -8  -4  -6    7.80    0.52
   8  -4   6    8.92    0.72
   8  -4   6    8.51    0.71
  -8  -4  -6    9.25    0.65
   8  -4   6    8.10    0.90
  -8  -4  -6    8.34    0.46
  -8   4  -6    9.59    0.81
  -8   4  -6    8.13    0.66
  -8   4  -6    8.29    0.60
  -8   4  -6    7.65    0.78
  -8   4  -6    9.05    0.68
  -8   4  -6    8.88    0.73
   8   4   6    8.32    0.47
   8   4   6    8.33    0.59
   8   4   6    7.95    0.69
  10  -4   6    4.88    0.66
 -10  -4  -6    3.10    0.34
 -10  -4  -6    3.61    0.48
  10  -4   6    4.67    0.61
 -10  -4  -6    4.19    0.40
 -10   4  -6    4.42    0.68
 -10   4  -6    4.03    0.50
 -10   4  -6    4.10    0.56
  10   4   6    3.99    0.59
 -10   4  -6    3.02    0.52
 -10   4  -6    4.62    0.65
  10   4   6    3.68    0.49
  10   4   6    3.04    0.35
  10   4   6    3.63    0.38
 -12  -4  -6   20.74    0.83
  12  -4   6   23.78    1.28
 -12  -4  -6   23.95    1.11
 -12  -4  -6   23.41    1.02
  12  -4   6   24.12    1.18
 -12   4  -6   21.88    1.06
 -12   4  -6   23.39    1.33
  12   4   6   22.21    0.90
 -12   4  -6   21.42    1.18
  12   4   6   22.33    0.88
  12   4   6   20.84    1.06
  12   4   6   20.69    1.21
 -12   4  -6   23.32    1.27
 -12   4  -6   20.81    1.22
  14  -4   6    3.41    0.54
 -14  -4  -6    4.74    0.45
 -14  -4  -6    4.21    0.51
  14  -4   6    4.84    0.70
  14   4   6    3.39    0.54
 -14   4  -6    4.28    0.63
 -14   4  -6    3.62    0.52
 -14   4  -6    5.32    0.74
 -14   4  -6    4.90    0.72
  14   4   6    3.45    0.61
 -14   4  -6    3.73    0.62
 -16  -4  -6   10.04    0.75
 -16  -4  -6   11.45    0.64
  16  -4   6    9.99    0.80
  16  -4   6   11.86    0.96
 -16   4  -6    9.47    0.99
  16   4   6   11.08    0.83
 -16   4  -6    9.51    0.95
  16   4   6   10.20    1.05
 -16   4  -6   10.47    0.79
 -16   4  -6   11.19    0.96
 -18  -4  -6    5.97    0.52
  18  -4   6    8.07    0.92
  18   4   6    5.67    0.72
  18   4   6    6.62    0.88
 -18   4  -6    4.72    0.63
 -18   4  -6    6.63    0.86
 -18   4  -6    6.14    0.79
  20  -4   6    3.41    0.68
 -20  -4  -6    4.69    0.54
  20   4   6    5.07    0.81
 -20   4  -6    4.18    0.71
 -20   4  -6    5.95    0.87
  22  -4   6    1.78    0.57
 -22  -4  -6    1.62    0.40
 -22   4  -6    1.16    0.48
  24  -4   6    6.70    0.96
 -24  -4  -6    5.52    0.66
 -24   4  -6    6.96    0.96
  21  -5  -6   27.10    1.55
 -21  -5   6   25.76    1.36
 -21   5   6   25.27    1.00
  21   5  -6   24.72    1.77
  19  -5  -6    9.62    1.03
 -19  -5   6    9.27    0.80
  19   5  -6    9.23    0.70
  19   5  -6    9.51    1.25
 -19   5   6    9.49    1.02
 -19   5   6    9.35    0.51
  17  -5  -6    9.56    0.97
 -17  -5   6    9.89    0.80
 -17   5   6    8.18    0.92
  17   5  -6    9.11    1.18
  17   5  -6    7.93    0.66
  15  -5  -6    7.47    0.83
 -15  -5   6    7.35    0.77
 -15  -5   6    7.47    0.89
 -15   5   6    6.93    0.77
 -15   5   6    7.02    0.82
  15   5  -6    6.67    0.99
  15   5  -6    6.86    0.66
  13  -5  -6    0.72    0.36
 -13  -5   6    0.87    0.33
 -13  -5   6    0.49    0.34
 -13   5   6    0.75    0.38
  13   5  -6    0.75    0.27
  13   5  -6    0.27    0.37
 -13   5   6    0.68    0.32
 -11  -5   6    7.70    0.86
 -11  -5   6    7.51    0.74
 -11   5   6    9.17    0.75
  11   5  -6    7.40    0.60
 -11   5   6    7.29    0.64
  11   5  -6    7.67    1.01
  -9  -5   6    5.11    0.61
  -9  -5   6    4.29    0.63
   9  -5  -6    4.95    0.59
   9   5  -6    5.29    0.58
  -9   5   6    4.38    0.59
  -9   5   6    5.16    0.55
   9   5  -6    5.19    0.66
   9   5  -6    5.24    0.81
  -7  -5   6   13.09    0.84
  -7  -5   6   11.91    0.97
   7  -5  -6   13.25    0.79
  -7  -5   6   13.07    0.96
   7   5  -6   14.07    0.80
  -7   5   6   14.19    0.72
   7   5  -6   11.66    0.88
  -7   5   6   13.45    0.82
   7   5  -6   13.13    1.08
  -5  -5   6   18.57    1.15
  -5  -5   6   21.30    1.06
   5  -5  -6   19.64    0.93
   5  -5  -6   20.20    1.07
  -5  -5   6   20.14    1.25
  -5   5   6   19.76    0.78
   5   5  -6   21.20    1.33
  -5   5   6   18.85    0.94
   5   5  -6   20.04    1.14
   5   5  -6   17.12    0.94
   3  -5  -6    6.05    0.56
  -3  -5   6    5.79    0.73
  -3  -5   6    6.29    0.77
   3  -5  -6    5.69    0.47
  -3  -5   6    4.52    0.59
  -3   5   6    5.32    0.53
   3   5  -6    5.87    0.61
  -3   5   6    5.38    0.34
   3   5  -6    5.81    0.80
   3   5  -6    6.12    0.74
  -1  -5   6   10.35    0.87
   1  -5  -6   10.36    0.68
  -1  -5   6   10.13    0.76
   1  -5  -6   10.52    0.59
  -1  -5   6    9.82    0.85
   1  -5  -6   10.35    0.78
   1   5  -6   10.20    0.82
   1   5  -6   10.65    0.91
  -1   5   6   10.02    0.60
   1   5  -6    9.97    0.72
   1  -5   6    5.38    0.66
  -1  -5  -6    6.11    0.67
  -1  -5  -6    6.53    0.44
   1  -5   6    5.67    0.72
  -1  -5  -6    5.71    0.49
   1  -5   6    5.69    0.73
  -1   5  -6    6.86    0.70
  -1   5  -6    5.83    0.76
   1   5   6    7.82    0.59
   1   5   6    6.72    0.46
  -1   5  -6    4.76    0.67
  -1   5  -6    6.68    0.34
  -1   5  -6    6.70    0.34
  -3  -5  -6    4.68    0.41
  -3  -5  -6    4.63    0.59
   3  -5   6    5.39    0.73
   3  -5   6    4.92    0.68
  -3  -5  -6    4.54    0.35
   3  -5   6    3.81    0.57
   3   5   6    3.88    0.39
  -3   5  -6    4.93    0.61
  -3   5  -6    5.33    0.71
  -3   5  -6    6.00    0.76
  -3   5  -6    4.07    0.59
  -3   5  -6    5.42    0.37
   3   5   6    4.88    0.58
  -3   5  -6    4.68    0.35
  -5  -5  -6   52.89    1.95
  -5  -5  -6   54.42    1.44
  -5  -5  -6   52.77    1.68
   5  -5   6   53.68    2.12
   5  -5   6   52.49    2.24
   5  -5   6   57.24    2.03
  -5   5  -6   52.90    1.56
  -5   5  -6   50.30    1.93
  -5   5  -6   53.74    2.00
   5   5   6   52.35    1.47
  -5   5  -6   53.35    1.54
   5   5   6   52.82    1.92
  -5   5  -6   53.90    2.17
  -5   5  -6   56.48    2.13
  -7  -5  -6   16.20    0.99
  -7  -5  -6   17.21    0.76
   7  -5   6   16.70    1.10
  -7  -5  -6   17.50    0.63
   7  -5   6   17.84    1.06
   7   5   6   16.65    1.01
  -7   5  -6   16.07    1.01
  -7   5  -6   16.77    0.79
  -7   5  -6   17.19    1.06
   7   5   6   15.97    0.83
   7   5   6   16.49    0.66
  -7   5  -6   17.65    1.17
  -7   5  -6   15.81    1.04
  -7   5  -6   17.19    0.78
   9  -5   6    5.68    0.73
  -9  -5  -6    4.37    0.60
  -9  -5  -6    4.28    0.32
  -9  -5  -6    4.58    0.39
   9  -5   6    4.29    0.63
  -9   5  -6    4.23    0.69
  -9   5  -6    4.79    0.66
  -9   5  -6    4.10    0.47
   9   5   6    4.82    0.36
  -9   5  -6    4.85    0.70
   9   5   6    3.92    0.51
   9   5   6    4.88    0.67
  -9   5  -6    5.03    0.52
 -11  -5  -6    4.77    0.34
  11  -5   6    4.67    0.70
 -11  -5  -6    4.29    0.44
 -11   5  -6    4.07    0.50
  11   5   6    5.51    0.74
 -11   5  -6    5.20    0.73
  11   5   6    4.52    0.40
 -11   5  -6    3.68    0.66
 -11   5  -6    4.04    0.63
  11   5   6    4.23    0.56
 -13  -5  -6    1.02    0.28
  13  -5   6    0.82    0.41
  13   5   6    0.79    0.39
 -13   5  -6    1.26    0.45
 -13   5  -6    1.01    0.32
  13   5   6    1.70    0.40
 -13   5  -6    0.59    0.36
 -13   5  -6    1.20    0.44
  15  -5   6    2.36    0.58
 -15   5  -6    1.94    0.42
  15   5   6    3.17    0.54
 -15   5  -6    4.39    0.77
  15   5   6    3.01    0.62
  17  -5   6    3.94    0.73
 -17   5  -6    3.27    0.53
  17   5   6    4.04    0.62
  17   5   6    4.28    0.73
  19  -5   6    7.33    0.97
 -19   5  -6    7.00    0.79
  21  -5   6   -0.11    0.42
 -21   5  -6    0.09    0.30
  18  -6  -6    1.16    0.49
 -18  -6   6    1.12    0.41
  18   6  -6    0.64    0.52
 -18   6   6    1.59    0.56
  16  -6  -6    6.61    0.83
 -16  -6   6    4.58    0.64
  16   6  -6    6.54    1.02
 -16   6   6    5.91    0.82
  14  -6  -6   12.91    0.95
 -14  -6   6   11.66    0.85
  14   6  -6   12.32    1.37
 -14   6   6   11.17    0.96
 -12  -6   6    5.86    0.68
 -12   6   6    5.35    0.61
 -12   6   6    6.83    0.80
  12   6  -6    5.11    0.90
  10  -6  -6   24.11    1.21
 -10  -6   6   24.37    1.21
 -10  -6   6   24.31    1.56
 -10   6   6   25.12    1.08
  10   6  -6   24.15    1.31
 -10   6   6   25.30    1.28
  10   6  -6   25.72    1.09
  10   6  -6   22.94    1.59
  -8  -6   6    5.09    0.64
  -8  -6   6    2.88    0.61
   8  -6  -6    4.53    0.57
   8   6  -6    4.27    0.51
  -8   6   6    4.74    0.61
   8   6  -6    3.95    0.64
   8   6  -6    4.36    0.81
  -6  -6   6    4.56    0.77
  -6  -6   6    6.23    0.70
  -6  -6   6    4.79    0.70
   6  -6  -6    5.97    0.61
  -6   6   6    5.15    0.61
   6   6  -6    5.37    0.73
   6   6  -6    5.49    0.59
   6   6  -6    7.32    0.99
  -4  -6   6    7.94    0.96
  -4  -6   6   11.65    0.96
  -4  -6   6   11.01    0.82
   4  -6  -6   11.12    0.69
   4   6  -6   13.04    0.79
   4   6  -6   12.32    0.96
   4   6  -6   12.02    1.09
  -4   6   6   11.40    0.73
  -2  -6   6    5.59    0.67
  -2  -6   6    5.09    0.72
   2  -6  -6    5.46    0.47
   2  -6  -6    6.11    0.57
  -2  -6   6    3.94    0.69
  -2   6   6    4.63    0.51
   2   6  -6    5.75    0.85
   2   6  -6    4.47    0.68
   2   6  -6    4.73    0.57
   0  -6   6    3.90    0.66
   0  -6   6    2.84    0.60
   0  -6   6    2.96    0.54
   0  -6  -6    3.79    0.61
   0  -6  -6    3.74    0.40
   0  -6  -6    3.92    0.49
   0   6  -6    3.81    0.53
   0   6  -6    2.68    0.62
   0   6  -6    2.85    0.53
   0   6  -6    2.98    0.60
   0   6   6    3.87    0.43
  -2  -6  -6   17.45    0.69
   2  -6   6   17.83    1.25
   2  -6   6   18.73    1.25
   2  -6   6   17.54    1.07
  -2  -6  -6   16.10    1.07
  -2  -6  -6   18.96    0.89
  -2   6  -6   14.96    0.94
  -2   6  -6   18.19    1.11
  -2   6  -6   18.43    1.28
  -2   6  -6   17.87    1.21
  -4  -6  -6    5.16    0.72
  -4  -6  -6    3.83    0.41
   4  -6   6    4.60    0.73
   4  -6   6    4.70    0.66
  -4   6  -6    4.51    0.74
  -4   6  -6    5.38    0.66
  -4   6  -6    5.86    0.82
  -4   6  -6    3.55    0.62
   4   6   6    4.08    0.38
   6  -6   6   16.19    1.07
   6  -6   6   19.29    1.27
  -6  -6  -6   16.49    1.08
   6   6   6   16.01    0.65
  -6   6  -6   16.59    1.11
  -6   6  -6   15.82    1.02
  -6   6  -6   16.85    1.19
  -6   6  -6   16.32    1.19
   6   6   6   16.25    1.03
   8  -6   6   -0.04    0.29
   8  -6   6    0.28    0.32
   8   6   6    0.35    0.17
  -8   6  -6    0.21    0.14
  -8   6  -6   -0.05    0.12
  -8   6  -6    0.43    0.34
  -8   6  -6    0.51    0.34
   8   6   6    0.48    0.37
  10  -6   6    0.90    0.41
  10  -6   6    1.04    0.43
  10   6   6    1.48    0.46
 -10   6  -6    0.87    0.24
 -10   6  -6    1.04    0.24
  10   6   6    0.88    0.20
 -10   6  -6    0.63    0.37
  12  -6   6   13.66    1.06
 -12   6  -6   13.47    1.09
  12   6   6   13.19    0.59
 -12   6  -6   13.37    0.71
 -12   6  -6   12.72    0.71
  12   6   6   14.43    1.10
  14  -6   6    0.00    0.36
 -14   6  -6    0.48    0.26
  14   6   6    0.32    0.38
  16  -6   6    1.83    0.54
 -16   6  -6    0.74    0.28
  16   6   6    0.87    0.49
  11  -7  -6   -0.19    0.23
 -11  -7   6   -0.12    0.31
  11   7  -6   -0.17    0.41
 -11   7   6   -0.20    0.33
   9  -7  -6   38.86    1.58
  -9  -7   6   35.67    1.56
   9   7  -6   36.67    2.14
  -9   7   6   36.13    1.60
  -7  -7   6    8.92    0.86
   7  -7  -6    7.81    0.75
  -7   7   6    9.14    0.76
   7   7  -6    6.95    0.88
   7   7  -6    6.86    1.05
   5  -7  -6    3.59    0.50
  -5  -7   6    3.09    0.54
  -5   7   6    2.47    0.47
   5   7  -6    3.00    0.63
   5   7  -6    3.15    0.75
  -3  -7   6    9.90    0.81
   3  -7  -6   10.71    0.67
   3   7  -6   12.21    1.34
  -3   7   6   11.37    0.75
   3   7  -6   11.61    0.99
  -1  -7   6    2.94    0.57
   1  -7  -6    2.79    0.61
   1   7  -6    2.25    0.54
   1   7  -6    1.84    0.58
  -1   7   6    1.97    0.38
   1   7  -6    2.59    0.46
   1   7  -6    3.36    0.75
  -1  -7  -6    2.52    0.57
   1  -7   6    2.02    0.49
  -1   7  -6    1.74    0.40
   1   7   6    1.93    0.35
  -1   7  -6    3.76    0.80
  -1   7  -6    2.53    0.54
  -3  -7  -6    3.92    0.73
   3  -7   6    5.06    0.74
  -3   7  -6    4.43    0.71
  -3   7  -6    3.90    0.80
   3   7   6    3.77    0.41
   5  -7   6    1.21    0.46
   5   7   6    1.88    0.28
  -5   7  -6    1.62    0.51
  -5   7  -6    0.97    0.50
   7  -7   6    7.29    0.88
  -7   7  -6    6.68    0.90
   7   7   6    6.63    0.41
   9  -7   6    2.00    0.57
  -9   7  -6    2.19    0.61
   9   7   6    2.04    0.25
  11  -7   6    0.05    0.38
 -11   7  -6    0.21    0.39
 -28   0   7    1.14    0.53
 -26   0   7    6.48    0.89
  26   0  -7    5.51    0.83
 -24   0   7    0.38    0.43
  24   0  -7    0.49    0.35
 -24   0   7    0.09    0.39
  22   0  -7    0.09    0.32
  22   0  -7   -0.25    0.22
 -22   0   7   -0.03    0.40
 -22   0   7    0.05    0.32
  20   0  -7   10.47    0.85
  20   0  -7   10.27    0.86
 -20   0   7   10.06    0.85
 -20   0   7    9.41    0.95
 -18   0   7   30.44    1.50
  18   0  -7   30.73    1.44
  18   0  -7   30.70    1.49
 -18   0   7   32.86    1.50
 -16   0   7   81.18    2.71
  16   0  -7   80.70    2.70
  16   0  -7   84.92    2.65
 -16   0   7   81.49    2.65
 -14   0   7    7.61    0.75
  14   0  -7    8.84    0.69
  14   0  -7    8.42    0.70
 -14   0   7    7.56    0.62
 -14   0   7    8.10    0.69
 -14   0   7    6.69    0.73
 -12   0   7    5.72    0.69
 -12   0   7    4.75    0.57
 -12   0   7    4.70    0.52
  12   0  -7    5.59    0.69
 -12   0   7    5.23    0.59
  12   0  -7    4.82    0.58
 -12   0   7    4.01    0.54
  12   0  -7    5.19    0.62
  10   0  -7    9.56    0.72
 -10   0   7    9.76    0.71
 -10   0   7   10.53    0.65
 -10   0   7   10.78    0.70
 -10   0   7    8.71    0.66
  10   0  -7   10.36    0.78
  10   0  -7   10.54    0.71
   8   0  -7   31.37    1.21
   8   0  -7   29.45    1.29
   8   0  -7   34.03    1.45
  -8   0   7   30.81    1.24
  -8   0   7   32.64    1.28
  -8   0   7   30.74    1.16
   8   0  -7   31.62    1.27
  -8   0   7   32.46    1.32
  -8   0   7   29.80    1.37
   6   0  -7   10.10    0.68
  -6   0   7   10.79    0.62
  -6   0   7   10.38    0.66
  -6   0   7   10.18    0.65
  -6   0   7   10.39    0.69
   6   0  -7   11.07    0.68
   6   0  -7   11.74    0.78
  -4   0   7    7.09    0.54
   4   0  -7    8.26    0.60
  -4   0   7    8.11    0.53
   4   0  -7    8.62    0.58
   4   0  -7    8.13    0.64
  -4   0   7    8.93    0.62
  -4   0   7    8.47    0.58
   2   0  -7   12.33    0.73
  -2   0   7   12.77    0.74
   2   0  -7   13.32    0.71
  -2   0   7   12.43    0.63
  -2   0   7   12.96    0.73
  -2   0   7   12.53    0.70
  -2   0   7   11.87    0.68
   0   0  -7   37.65    1.42
   0   0  -7   40.84    1.39
   0   0  -7   39.39    1.57
   0   0   7   39.84    1.54
   0   0   7   39.22    1.37
   0   0   7   40.44    1.39
   0   0   7   41.58    1.44
   0   0   7   39.34    1.25
   0   0   7   42.14    1.45
  -2   0  -7    6.56    0.47
   2   0   7    5.41    0.55
   2   0   7    5.94    0.52
   2   0   7    6.32    0.50
  -2   0  -7    6.67    0.58
  -2   0  -7    7.12    0.54
   2   0   7    6.54    0.53
  -2   0  -7    6.84    0.51
  -4   0  -7    7.27    0.61
  -4   0  -7    6.19    0.54
   4   0   7    7.07    0.54
   4   0   7    7.06    0.55
   4   0   7    7.51    0.58
  -4   0  -7    5.93    0.51
  -4   0  -7    7.33    0.51
   4   0   7    7.21    0.53
  -4   0  -7    7.20    0.53
  -6   0  -7   34.90    1.22
   6   0   7   32.41    1.36
  -6   0  -7   35.03    1.36
   6   0   7   32.72    1.28
   6   0   7   33.64    1.26
  -6   0  -7   33.04    1.22
   6   0   7   33.89    1.28
   6   0   7   32.63    1.38
  -6   0  -7   35.05    1.29
  -6   0  -7   36.01    1.50
   8   0   7   14.54    0.84
   8   0   7   13.40    0.81
  -8   0  -7   13.91    0.73
  -8   0  -7   15.45    0.94
  -8   0  -7   13.85    0.77
   8   0   7   12.49    0.75
   8   0   7   12.69    0.83
  -8   0  -7   13.56    0.74
   8   0   7   13.76    0.81
  -8   0  -7   13.82    0.81
   8   0   7   12.27    0.73
  10   0   7   33.60    1.32
  10   0   7   35.24    1.40
  10   0   7   35.70    1.44
  10   0   7   34.44    1.49
 -10   0  -7   32.18    1.37
 -10   0  -7   35.06    1.32
 -10   0  -7   34.58    1.34
 -10   0  -7   33.72    1.54
 -10   0  -7   33.59    1.27
  10   0   7   33.04    1.42
  12   0   7   16.39    0.88
 -12   0  -7   16.23    1.05
 -12   0  -7   16.05    0.89
  12   0   7   15.24    0.98
 -12   0  -7   14.65    0.91
  12   0   7   15.41    0.93
 -12   0  -7   16.21    0.84
 -14   0  -7    5.14    0.61
 -14   0  -7    6.29    0.55
  14   0   7    5.32    0.69
 -14   0  -7    6.83    0.72
  14   0   7    6.99    0.69
 -16   0  -7   37.91    1.55
  16   0   7   37.34    1.51
 -16   0  -7   37.13    1.60
  16   0   7   35.47    1.67
 -16   0  -7   38.55    1.42
  16   0   7   35.46    1.55
 -18   0  -7   32.22    1.46
  18   0   7   31.12    1.60
 -18   0  -7   34.50    1.58
  18   0   7   33.00    1.54
 -18   0  -7   35.30    1.34
  20   0   7    1.26    0.39
 -20   0  -7    0.59    0.40
  20   0   7    0.96    0.34
  20   0   7    1.47    0.46
 -20   0  -7    1.38    0.41
  22   0   7    1.68    0.50
 -22   0  -7    2.00    0.49
  24   0   7    4.01    0.75
 -24   0  -7    4.50    0.68
 -26   0  -7   47.16    2.08
  27  -1  -7   12.35    1.23
 -27  -1   7   11.42    1.16
 -27   1   7   12.11    1.20
 -25  -1   7    6.05    0.85
  25  -1  -7    3.97    0.69
 -25  -1   7    4.29    0.73
 -25   1   7    6.18    0.86
 -23  -1   7   11.06    0.94
 -23  -1   7   12.47    1.06
  23  -1  -7   10.41    1.06
  23   1  -7   12.45    0.97
 -23   1   7    9.37    1.00
  21  -1  -7    5.40    0.75
  21  -1  -7    4.30    0.66
 -21  -1   7    4.03    0.70
 -21  -1   7    5.20    0.73
 -21   1   7    5.18    0.75
  21   1  -7    3.80    0.61
 -21   1   7    4.59    0.68
  21   1  -7    4.00    0.64
  19  -1  -7    7.54    0.83
  19  -1  -7    8.15    0.85
 -19  -1   7    7.50    0.83
 -19  -1   7    6.37    0.81
  19   1  -7    6.52    0.78
  19   1  -7    7.26    0.79
 -19   1   7    6.99    0.80
 -19   1   7    7.55    0.84
  17  -1  -7   14.41    0.95
 -17  -1   7   14.03    0.97
 -17  -1   7   13.92    0.95
  17  -1  -7   14.10    0.96
 -17   1   7   12.82    0.84
  17   1  -7   14.17    0.91
 -17   1   7   12.48    0.89
  17   1  -7   12.62    0.91
 -17   1   7   13.53    0.95
  15  -1  -7   20.31    1.17
 -15  -1   7   24.84    1.23
  15  -1  -7   23.59    1.19
 -15  -1   7   22.58    1.21
 -15   1   7   24.46    1.21
 -15   1   7   22.51    1.21
 -15   1   7   22.88    1.18
  15   1  -7   25.29    1.33
 -15   1   7   25.25    1.13
  15   1  -7   23.25    1.17
  15   1  -7   22.70    1.20
  13  -1  -7   23.46    1.19
  13  -1  -7   25.37    1.19
 -13  -1   7   23.24    1.17
 -13  -1   7   24.33    1.22
  13   1  -7   24.46    1.20
  13   1  -7   25.00    1.29
  13   1  -7   25.22    1.18
 -13   1   7   25.00    1.09
 -13   1   7   21.88    1.16
 -13   1   7   24.79    1.19
 -11  -1   7   21.72    0.99
  11  -1  -7   20.54    1.15
  11  -1  -7   22.05    1.05
 -11  -1   7   19.93    0.97
 -11  -1   7   17.55    1.08
 -11  -1   7   21.06    1.08
  11  -1  -7   18.81    1.02
 -11  -1   7   18.11    0.98
 -11   1   7   18.96    0.99
  11   1  -7   18.76    1.10
 -11   1   7   19.75    0.84
 -11   1   7   19.98    0.91
 -11   1   7   19.47    1.02
 -11   1   7   17.51    1.04
  11   1  -7   20.07    1.01
 -11   1   7   18.55    0.97
  11   1  -7   18.90    1.01
   9  -1  -7   18.73    1.07
  -9  -1   7   18.22    0.89
   9  -1  -7   16.43    0.90
  -9  -1   7   17.86    0.97
  -9  -1   7   17.42    1.03
  -9  -1   7   18.89    0.94
  -9  -1   7   17.84    0.90
   9  -1  -7   20.10    1.00
  -9   1   7   17.80    0.94
  -9   1   7   19.90    0.86
  -9   1   7   19.35    0.96
  -9   1   7   18.53    1.01
   9   1  -7   16.74    0.94
   9   1  -7   17.84    1.02
   9   1  -7   20.58    0.98
  -9   1   7   18.90    0.93
  -7  -1   7    5.42    0.51
  -7  -1   7    4.34    0.50
   7  -1  -7    4.93    0.59
   7  -1  -7    4.62    0.53
  -7  -1   7    4.92    0.55
  -7  -1   7    3.98    0.49
  -7  -1   7    4.50    0.56
   7  -1  -7    4.73    0.55
  -7   1   7    5.07    0.53
  -7   1   7    4.48    0.52
   7   1  -7    4.29    0.57
   7   1  -7    4.72    0.53
  -7   1   7    5.25    0.43
   7   1  -7    4.48    0.54
  -7   1   7    4.45    0.53
  -7   1   7    4.58    0.52
  -5  -1   7    1.50    0.33
   5  -1  -7    1.56    0.34
   5  -1  -7    1.77    0.36
  -5  -1   7    1.45    0.32
  -5  -1   7    2.09    0.39
  -5  -1   7    1.00    0.29
  -5  -1   7    1.79    0.32
   5  -1  -7    1.08    0.29
  -5   1   7    1.21    0.30
  -5   1   7    1.29    0.25
  -5   1   7    1.38    0.32
  -5   1   7    1.58    0.31
   5   1  -7    1.22    0.29
  -5   1   7    1.67    0.33
   5   1  -7    1.88    0.40
  -5   1   7    1.25    0.29
   5   1  -7    1.29    0.31
   3  -1  -7    1.36    0.29
   3  -1  -7    2.20    0.39
  -3  -1   7    1.05    0.32
   3  -1  -7    1.56    0.31
  -3  -1   7    1.51    0.29
  -3  -1   7    2.11    0.40
  -3  -1   7    1.90    0.35
  -3  -1   7    1.66    0.33
  -3   1   7    1.37    0.29
   3   1  -7    1.84    0.30
  -3   1   7    1.87    0.33
   3   1  -7    1.38    0.27
   3   1  -7    1.94    0.35
   3   1  -7    1.65    0.36
  -3   1   7    1.46    0.30
  -3   1   7    1.62    0.25
   3   1  -7    1.82    0.33
  -3   1   7    1.83    0.34
  -3   1   7    1.89    0.32
  -1  -1   7    0.89    0.23
   1  -1  -7    1.26    0.29
  -1  -1   7    1.06    0.28
   1  -1  -7    1.45    0.31
   1  -1  -7    0.94    0.23
  -1  -1   7    1.37    0.29
  -1  -1   7    0.99    0.28
  -1  -1   7    1.22    0.31
  -1   1   7    1.06    0.27
  -1   1   7    1.29    0.29
   1   1  -7    1.06    0.30
   1   1  -7    0.95    0.24
  -1   1   7    1.42    0.19
   1   1  -7    1.67    0.32
  -1   1   7    1.55    0.30
  -1   1   7    1.14    0.21
  -1   1   7    1.13    0.26
   1   1  -7    1.18    0.26
  -1   1   7    1.13    0.28
   1   1  -7    0.91    0.27
   1  -1   7    7.24    0.41
   1  -1   7    7.31    0.61
   1  -1   7    7.02    0.56
  -1  -1  -7    6.83    0.57
  -1  -1  -7    8.26    0.53
  -1  -1  -7    7.32    0.55
   1  -1   7    7.02    0.50
   1  -1   7    7.40    0.54
  -1   1  -7    7.30    0.58
   1   1   7    7.83    0.52
  -1   1  -7    7.66    0.53
  -1   1  -7    7.08    0.50
   1   1   7    7.65    0.55
   1   1   7    6.78    0.52
  -1   1  -7    6.86    0.53
   1   1   7    8.27    0.55
  -1   1  -7    7.51    0.64
   1   1   7    7.46    0.29
   1   1   7    6.60    0.50
   3  -1   7    8.38    0.41
  -3  -1  -7    9.53    0.66
  -3  -1  -7    9.49    0.55
  -3  -1  -7    9.96    0.62
   3  -1   7    8.37    0.60
   3  -1   7    9.42    0.56
  -3  -1  -7   10.33    0.60
  -3   1  -7    8.62    0.60
   3   1   7   10.23    0.61
  -3   1  -7    9.22    0.72
   3   1   7    8.49    0.55
   3   1   7    8.82    0.58
  -3   1  -7    8.17    0.62
  -3   1  -7    8.24    0.59
   3   1   7    8.40    0.57
  -3   1  -7    9.76    0.58
   3   1   7    8.30    0.63
  -5  -1  -7   19.64    1.01
   5  -1   7   19.28    0.94
  -5  -1  -7   21.35    0.84
  -5  -1  -7   19.64    0.93
  -5  -1  -7   20.24    0.88
   5  -1   7   20.54    0.94
  -5   1  -7   19.59    1.08
   5   1   7   20.13    0.87
  -5   1  -7   17.86    0.97
  -5   1  -7   21.34    0.99
   5   1   7   20.66    0.90
  -5   1  -7   21.48    0.92
   5   1   7   19.13    0.88
   5   1   7   20.27    0.92
  -5   1  -7   20.21    0.95
   5   1   7   20.10    1.01
  -7  -1  -7   12.76    0.64
   7  -1   7   10.96    0.73
  -7  -1  -7   12.34    0.79
   7  -1   7   11.66    0.72
  -7  -1  -7   12.82    0.74
  -7  -1  -7   11.52    0.68
  -7   1  -7   12.01    0.75
   7   1   7   13.09    0.69
  -7   1  -7   11.44    0.71
   7   1   7   11.65    0.67
   7   1   7   11.93    0.79
   7   1   7   11.79    0.68
  -7   1  -7   11.53    0.77
  -7   1  -7   11.50    0.83
  -7   1  -7   10.93    0.66
   7   1   7   12.13    0.70
  -9  -1  -7   13.95    0.76
  -9  -1  -7   13.84    0.80
   9  -1   7   12.16    0.83
  -9  -1  -7   13.34    0.86
   9  -1   7   11.27    0.84
   9  -1   7   14.71    0.91
   9  -1   7   13.32    0.82
   9   1   7   13.79    0.89
  -9   1  -7   13.66    0.80
  -9   1  -7   13.79    0.81
  -9   1  -7   14.83    0.79
   9   1   7   14.46    0.74
   9   1   7   12.59    0.72
   9   1   7   13.59    0.75
  -9   1  -7   14.85    0.88
  -9   1  -7   14.14    0.80
   9   1   7   14.68    0.78
  -9   1  -7   13.67    0.94
 -11  -1  -7   50.69    1.60
  11  -1   7   47.54    1.93
 -11  -1  -7   46.56    1.90
  11  -1   7   48.32    1.89
  11  -1   7   50.95    1.96
 -11  -1  -7   51.44    1.70
  11  -1   7   48.04    1.78
 -11  -1  -7   49.63    1.75
  11   1   7   49.42    1.71
 -11   1  -7   49.57    1.73
 -11   1  -7   51.10    1.80
  11   1   7   51.67    1.70
 -11   1  -7   50.81    2.08
  11   1   7   51.36    1.65
  11   1   7   52.86    1.70
 -11   1  -7   50.52    1.80
 -11   1  -7   49.90    1.87
  11   1   7   49.01    1.92
 -13  -1  -7   42.65    1.80
  13  -1   7   44.44    1.80
 -13  -1  -7   45.54    1.44
  13  -1   7   46.48    1.86
  13  -1   7   43.85    1.67
 -13  -1  -7   42.80    1.56
 -13  -1  -7   43.80    1.65
  13   1   7   42.70    1.57
  13   1   7   38.18    1.58
  13   1   7   44.49    1.52
 -13   1  -7   41.63    1.61
 -13   1  -7   44.26    1.76
  13   1   7   38.81    1.73
 -13   1  -7   43.42    1.67
  15  -1   7   10.88    0.85
 -15  -1  -7   10.76    0.61
 -15  -1  -7   11.81    0.82
  15  -1   7    9.99    0.77
 -15  -1  -7   10.59    0.74
 -15   1  -7   10.28    0.78
 -15   1  -7   10.66    0.86
  15   1   7   10.65    0.88
 -15   1  -7   11.63    0.79
  15   1   7   11.33    0.80
 -17  -1  -7    1.17    0.36
  17  -1   7    0.47    0.34
 -17  -1  -7    0.63    0.30
  17  -1   7    0.96    0.37
 -17   1  -7    0.98    0.32
  17   1   7    1.01    0.35
 -17   1  -7    1.11    0.39
  17   1   7    0.88    0.36
 -17   1  -7    0.65    0.33
  19  -1   7   39.96    1.69
  19  -1   7   37.81    1.70
  19  -1   7   37.21    1.78
 -19  -1  -7   36.64    1.57
 -19   1  -7   40.85    1.63
  19   1   7   38.47    1.54
  19   1   7   41.29    1.91
 -19   1  -7   40.13    1.73
 -19   1  -7   42.58    1.86
  19   1   7   38.07    1.70
  21  -1   7   20.65    1.29
 -21  -1  -7   19.77    1.13
  21  -1   7   19.33    1.18
  21   1   7   18.89    1.30
 -21   1  -7   20.63    1.30
 -21   1  -7   20.45    1.23
  21   1   7   18.37    1.18
  21   1   7   21.03    1.10
 -23  -1  -7   18.77    1.15
  23  -1   7   22.44    1.40
 -23   1  -7   19.67    1.32
 -23   1  -7   19.27    1.22
  23   1   7   18.60    1.34
  25  -1   7   13.22    1.10
 -25  -1  -7   10.60    0.93
 -25   1  -7   12.75    1.04
 -27  -1  -7   11.14    0.96
 -27   1  -7   13.62    1.13
  26  -2  -7    6.39    0.89
 -26  -2   7    5.91    0.83
 -26   2   7    8.88    1.03
  26   2  -7    6.17    0.58
 -24  -2   7    6.09    0.82
  24  -2  -7    6.36    0.87
 -24   2   7    7.94    0.96
  24   2  -7    6.61    0.55
  22  -2  -7   18.66    1.25
 -22  -2   7   18.33    1.26
  22  -2  -7   17.41    1.17
 -22   2   7   15.81    1.05
 -22   2   7   19.03    1.24
 -20  -2   7    9.80    0.97
  20  -2  -7    9.98    1.01
 -20  -2   7    8.68    0.88
  20  -2  -7    9.34    0.97
  20   2  -7   10.66    0.86
 -20   2   7    9.40    0.97
 -20   2   7   10.06    0.98
 -20   2   7    9.51    0.77
  18  -2  -7   13.14    0.98
 -18  -2   7   12.92    0.91
  18  -2  -7   12.27    0.92
 -18  -2   7   13.26    0.96
 -18   2   7   12.28    0.82
  18   2  -7   12.08    0.84
 -18   2   7   13.33    0.97
 -18   2   7   11.33    0.89
 -18   2   7   13.52    0.97
  18   2  -7   11.85    0.88
 -16  -2   7    5.97    0.71
  16  -2  -7    7.16    0.78
  16  -2  -7    6.05    0.73
 -16  -2   7    6.14    0.71
 -16   2   7    7.37    0.80
  16   2  -7    6.77    0.73
  16   2  -7    6.88    0.72
 -16   2   7    6.87    0.66
  16   2  -7    6.17    0.51
 -16   2   7    6.46    0.72
 -16   2   7    7.02    0.77
  14  -2  -7   12.76    0.88
 -14  -2   7    9.65    0.85
  14  -2  -7   11.86    0.83
 -14  -2   7   11.08    0.85
 -14  -2   7   10.48    0.80
  14   2  -7   12.07    0.82
  14   2  -7   10.92    0.76
 -14   2   7   12.40    0.74
 -14   2   7   12.69    0.87
  14   2  -7   11.27    0.69
  14   2  -7    9.94    0.63
 -14   2   7    9.66    0.78
 -14   2   7   13.30    0.85
 -12  -2   7    5.78    0.64
  12  -2  -7    6.49    0.69
  12  -2  -7    7.13    0.72
 -12  -2   7    6.76    0.77
 -12  -2   7    6.66    0.72
 -12   2   7    6.27    0.52
 -12   2   7    5.67    0.65
  12   2  -7    6.48    0.61
 -12   2   7    5.63    0.62
  12   2  -7    6.17    0.50
  12   2  -7    6.47    0.65
  12   2  -7    5.94    0.65
 -12   2   7    5.87    0.66
  10  -2  -7   11.41    0.77
  10  -2  -7   11.57    0.86
 -10  -2   7   12.72    0.81
 -10  -2   7   12.88    0.83
 -10  -2   7   12.41    0.89
  10  -2  -7   10.82    0.76
  10   2  -7   11.26    0.65
  10   2  -7   13.06    0.89
 -10   2   7   10.10    0.72
 -10   2   7   11.94    0.81
 -10   2   7   11.98    0.75
 -10   2   7   11.41    0.76
  10   2  -7   12.00    0.70
 -10   2   7   11.90    0.56
  10   2  -7   11.44    0.73
 -10   2   7   12.51    0.65
  10   2  -7   11.94    0.80
  -8  -2   7   10.37    0.68
   8  -2  -7   11.58    0.75
  -8  -2   7   11.71    0.77
  -8  -2   7   10.36    0.72
   8  -2  -7   13.09    0.76
  -8  -2   7   10.99    0.83
   8  -2  -7   11.08    0.81
   8   2  -7   10.28    0.62
  -8   2   7    9.63    0.67
   8   2  -7   10.63    0.73
  -8   2   7   12.07    0.76
  -8   2   7   12.03    0.76
   8   2  -7   10.66    0.71
   8   2  -7   12.06    0.84
  -8   2   7   10.81    0.68
  -8   2   7   11.03    0.58
   8   2  -7   11.43    0.66
  -8   2   7   12.63    0.75
  -6  -2   7   31.27    1.31
   6  -2  -7   31.29    1.26
   6  -2  -7   31.73    1.23
   6  -2  -7   32.24    1.41
  -6  -2   7   30.48    1.20
  -6  -2   7   31.95    1.20
  -6  -2   7   30.68    1.44
  -6  -2   7   30.49    1.26
  -6   2   7   31.03    1.24
   6   2  -7   32.94    1.19
   6   2  -7   29.83    1.29
  -6   2   7   32.18    1.22
   6   2  -7   31.36    1.39
  -6   2   7   30.55    1.17
   6   2  -7   30.75    1.13
  -6   2   7   29.78    1.21
  -6   2   7   29.38    1.26
  -6   2   7   30.91    1.01
   6   2  -7   30.90    1.23
  -4  -2   7    2.03    0.34
   4  -2  -7    2.47    0.39
  -4  -2   7    3.82    0.46
   4  -2  -7    3.28    0.46
   4  -2  -7    2.90    0.40
  -4  -2   7    2.64    0.41
  -4  -2   7    3.00    0.47
  -4  -2   7    2.43    0.41
   4   2  -7    2.84    0.37
  -4   2   7    2.48    0.36
  -4   2   7    2.48    0.39
   4   2  -7    2.80    0.41
  -4   2   7    3.08    0.41
   4   2  -7    3.26    0.50
   4   2  -7    3.47    0.43
   4   2  -7    2.32    0.39
  -4   2   7    2.86    0.36
  -4   2   7    3.08    0.29
  -4   2   7    2.51    0.37
  -4   2   7    2.89    0.39
  -2  -2   7    6.99    0.52
   2  -2  -7    7.16    0.52
  -2  -2   7    7.45    0.55
  -2  -2   7    7.05    0.64
  -2  -2   7    6.54    0.56
  -2  -2   7    7.61    0.61
   2  -2  -7    7.84    0.61
   2  -2  -7    7.63    0.56
  -2   2   7    7.27    0.54
  -2   2   7    8.15    0.52
   2   2  -7    8.21    0.62
   2   2  -7    6.37    0.53
  -2   2   7    7.90    0.56
  -2   2   7    7.87    0.53
   2   2  -7    8.74    0.56
  -2   2   7    8.83    0.50
   2   2  -7    7.46    0.65
   2   2  -7    7.77    0.54
  -2   2   7    7.89    0.54
  -2   2   7    7.65    0.54
   0  -2  -7   67.84    2.22
   0  -2  -7   67.11    2.02
   0  -2   7   67.64    2.03
   0  -2   7   69.27    1.99
   0  -2   7   66.69    2.04
   0  -2  -7   68.74    1.97
   0  -2   7   68.70    2.13
   0   2   7   66.48    1.97
   0   2  -7   69.69    1.98
   0   2  -7   68.07    2.08
   0   2  -7   69.27    2.38
   0   2   7   68.29    2.11
   0   2   7   65.13    1.95
   0   2   7   68.32    1.94
   0   2  -7   70.06    1.97
   0   2   7   69.49    1.86
   0   2   7   64.99    1.89
   0   2  -7   62.94    2.13
   0   2   7   67.86    2.04
   2  -2   7   26.08    1.04
   2  -2   7   24.92    1.12
   2  -2   7   24.36    1.26
   2  -2   7   24.41    1.06
   2  -2   7   25.67    1.00
  -2  -2  -7   25.24    0.99
  -2  -2  -7   27.10    1.16
  -2  -2  -7   25.95    1.04
  -2   2  -7   24.81    1.10
   2   2   7   25.61    0.95
  -2   2  -7   27.41    1.30
   2   2   7   26.03    1.01
   2   2   7   26.06    0.97
  -2   2  -7   25.31    1.17
   2   2   7   26.64    0.99
  -2   2  -7   25.19    1.02
   2   2   7   25.07    1.13
  -4  -2  -7   36.47    1.31
  -4  -2  -7   37.00    1.45
   4  -2   7   37.84    1.40
  -4  -2  -7   35.55    1.25
   4  -2   7   37.27    1.26
   4  -2   7   37.15    1.44
   4   2   7   36.77    1.46
   4   2   7   37.36    1.22
   4   2   7   35.77    1.27
  -4   2  -7   39.92    1.36
   4   2   7   40.02    1.24
  -4   2  -7   37.00    1.49
   4   2   7   39.18    1.26
  -4   2  -7   37.67    1.42
  -4   2  -7   35.16    1.40
  -4   2  -7   37.84    1.62
  -6  -2  -7    3.10    0.42
  -6  -2  -7    3.00    0.39
  -6  -2  -7    3.61    0.41
   6  -2   7    2.52    0.45
   6  -2   7    3.50    0.37
   6  -2   7    2.46    0.46
  -6   2  -7    3.21    0.48
  -6   2  -7    2.42    0.41
   6   2   7    2.87    0.46
   6   2   7    2.00    0.30
   6   2   7    2.82    0.30
   6   2   7    2.45    0.36
  -6   2  -7    2.78    0.46
  -6   2  -7    2.70    0.47
  -6   2  -7    3.38    0.49
   6   2   7    3.12    0.36
  -6   2  -7    2.54    0.39
   8  -2   7    1.98    0.43
  -8  -2  -7    1.78    0.17
  -8  -2  -7    2.08    0.33
  -8  -2  -7    2.37    0.37
   8  -2   7    1.84    0.40
  -8  -2  -7    1.90    0.35
  -8   2  -7    2.54    0.43
  -8   2  -7    2.05    0.42
   8   2   7    2.05    0.34
  -8   2  -7    1.97    0.41
  -8   2  -7    2.11    0.37
   8   2   7    2.88    0.41
  -8   2  -7    2.14    0.42
   8   2   7    1.73    0.29
   8   2   7    2.21    0.43
  -8   2  -7    2.17    0.46
  10  -2   7    5.64    0.65
 -10  -2  -7    4.38    0.28
  10  -2   7    4.39    0.58
 -10  -2  -7    3.78    0.45
 -10  -2  -7    4.25    0.53
 -10  -2  -7    4.32    0.50
  10  -2   7    3.60    0.57
 -10   2  -7    4.07    0.43
 -10   2  -7    5.12    0.69
  10   2   7    4.26    0.59
 -10   2  -7    4.68    0.59
  10   2   7    4.11    0.51
 -10   2  -7    5.12    0.56
  10   2   7    3.78    0.45
 -10   2  -7    4.19    0.55
 -10   2  -7    5.42    0.66
 -10   2  -7    4.22    0.56
 -12  -2  -7   57.86    1.66
 -12  -2  -7   58.08    1.90
  12  -2   7   60.51    2.09
 -12  -2  -7   56.39    2.10
 -12  -2  -7   58.63    1.83
  12  -2   7   57.11    2.12
  12   2   7   58.31    1.85
  12   2   7   56.88    1.96
 -12   2  -7   53.80    1.91
  12   2   7   55.88    2.16
 -12   2  -7   61.88    2.15
 -12   2  -7   58.93    2.06
 -12   2  -7   58.81    2.17
 -14  -2  -7   44.60    1.57
  14  -2   7   46.43    1.85
  14  -2   7   47.71    1.83
  14   2   7   43.02    1.89
 -14   2  -7   44.08    1.77
 -14   2  -7   43.32    1.85
 -14   2  -7   44.51    1.80
  14   2   7   45.16    1.72
  16  -2   7    3.54    0.59
 -16  -2  -7    3.55    0.49
  16  -2   7    2.90    0.54
 -16   2  -7    3.15    0.55
  16   2   7    3.94    0.58
  16   2   7    3.92    0.45
 -16   2  -7    3.19    0.60
  16   2   7    3.88    0.63
 -16   2  -7    4.09    0.60
  18  -2   7   12.92    0.98
  18  -2   7   12.36    0.96
 -18  -2  -7   13.08    0.83
 -18   2  -7   12.21    0.90
  18   2   7   11.47    0.88
  18   2   7   14.67    0.78
  18   2   7   13.95    1.06
 -18   2  -7   12.17    0.93
 -18   2  -7   11.90    1.01
  20  -2   7   16.59    1.16
  20  -2   7   16.91    1.15
  20  -2   7   21.04    1.23
 -20  -2  -7   19.58    1.07
  20   2   7   19.52    0.95
  20   2   7   17.82    1.15
 -20   2  -7   19.40    1.17
 -20   2  -7   17.66    1.16
  20   2   7   19.40    1.30
 -20   2  -7   19.50    1.28
 -22  -2  -7   13.82    0.93
  22  -2   7   14.56    1.08
  22  -2   7   17.40    1.19
  22   2   7   13.14    1.13
 -22   2  -7   14.97    1.20
 -22   2  -7   14.84    1.06
  22   2   7   15.42    0.89
 -22   2  -7   14.19    1.07
 -24  -2  -7   32.77    1.53
 -24   2  -7   27.87    1.60
 -26  -2  -7    8.05    0.90
  26  -2   7    7.55    0.98
 -26   2  -7    9.99    1.09
  25  -3  -7   11.79    1.21
 -25  -3   7   11.39    0.99
 -25   3   7    8.44    0.87
  23  -3  -7    2.51    0.61
 -23  -3   7    4.64    0.71
  23   3  -7    4.43    0.33
  23   3  -7    3.93    0.33
  21  -3  -7   12.60    1.00
  21  -3  -7   12.67    1.03
 -21  -3   7   11.40    0.94
 -21   3   7   13.67    1.05
  21   3  -7   11.40    0.57
  21   3  -7   12.21    0.60
 -21   3   7   12.28    0.86
  19  -3  -7    2.75    0.56
  19  -3  -7    2.71    0.55
 -19  -3   7    3.32    0.61
 -19   3   7    2.07    0.41
 -19   3   7    2.81    0.58
 -19   3   7    1.43    0.51
  19   3  -7    2.79    0.34
  19   3  -7    2.02    0.47
  19   3  -7    2.80    0.35
  17  -3  -7    4.77    0.67
 -17  -3   7    3.86    0.58
  17  -3  -7    5.66    0.72
 -17  -3   7    4.13    0.66
  17   3  -7    4.64    0.63
  17   3  -7    4.20    0.42
 -17   3   7    5.11    0.72
 -17   3   7    4.12    0.62
 -17   3   7    4.41    0.64
 -17   3   7    4.71    0.55
  17   3  -7    4.97    0.46
 -15  -3   7    6.40    0.81
  15  -3  -7    5.54    0.68
 -15  -3   7    5.07    0.64
  15  -3  -7    5.46    0.69
 -15  -3   7    5.94    0.72
  15   3  -7    5.52    0.43
 -15   3   7    6.19    0.77
  15   3  -7    5.66    0.45
  15   3  -7    5.63    0.65
 -15   3   7    5.98    0.69
 -15   3   7    5.99    0.70
 -15   3   7    5.33    0.55
 -13  -3   7   26.03    1.26
 -13  -3   7   29.58    1.37
  13  -3  -7   26.78    1.29
 -13  -3   7   25.47    1.44
  13  -3  -7   28.59    1.35
  13   3  -7   27.16    1.21
  13   3  -7   27.03    1.00
 -13   3   7   26.28    1.30
  13   3  -7   27.22    1.02
  13   3  -7   27.12    1.27
 -13   3   7   26.56    1.03
 -13   3   7   26.80    1.29
 -13   3   7   27.47    1.26
 -11  -3   7   16.75    0.95
  11  -3  -7   13.87    0.91
 -11  -3   7   16.59    1.08
 -11  -3   7   15.60    0.95
  11  -3  -7   15.37    0.91
 -11   3   7   15.11    0.94
  11   3  -7   14.86    0.71
 -11   3   7   15.87    0.71
  11   3  -7   14.51    0.89
  11   3  -7   15.67    0.88
  11   3  -7   15.80    0.74
 -11   3   7   14.63    0.87
 -11   3   7   16.68    0.94
   9  -3  -7    6.22    0.66
  -9  -3   7    5.70    0.71
   9  -3  -7    5.53    0.61
  -9  -3   7    5.18    0.62
  -9  -3   7    5.41    0.64
   9   3  -7    6.54    0.57
  -9   3   7    5.82    0.61
  -9   3   7    6.11    0.65
  -9   3   7    5.74    0.55
   9   3  -7    5.45    0.46
   9   3  -7    5.94    0.45
  -9   3   7    6.09    0.60
   9   3  -7    4.98    0.59
  -9   3   7    6.31    0.39
  -9   3   7    5.64    0.43
  -7  -3   7   31.46    1.33
  -7  -3   7   32.18    1.53
   7  -3  -7   30.36    1.42
   7  -3  -7   30.91    1.31
  -7  -3   7   31.07    1.36
   7  -3  -7   31.95    1.28
  -7   3   7   32.56    0.88
   7   3  -7   31.62    1.14
  -7   3   7   32.54    1.28
   7   3  -7   33.59    1.14
   7   3  -7   29.33    1.32
  -7   3   7   29.98    1.27
   7   3  -7   31.62    1.27
  -7   3   7   34.54    1.16
  -7   3   7   31.74    1.20
  -7   3   7   31.82    1.25
  -5  -3   7    5.96    0.70
   5  -3  -7    5.56    0.56
  -5  -3   7    5.42    0.62
  -5  -3   7    5.72    0.63
   5  -3  -7    6.48    0.55
   5  -3  -7    6.48    0.70
  -5   3   7    5.98    0.47
   5   3  -7    5.83    0.62
  -5   3   7    6.37    0.54
   5   3  -7    5.96    0.48
  -5   3   7    7.59    0.54
   5   3  -7    6.81    0.55
  -5   3   7    6.07    0.48
  -5   3   7    7.20    0.50
   5   3  -7    6.49    0.48
  -3  -3   7   25.31    1.32
  -3  -3   7   25.64    1.21
   3  -3  -7   26.38    1.07
   3  -3  -7   26.38    1.10
  -3  -3   7   28.03    1.21
   3  -3  -7   26.27    1.21
  -3   3   7   25.98    1.06
   3   3  -7   25.78    1.27
  -3   3   7   25.57    1.02
  -3   3   7   26.44    1.08
   3   3  -7   27.11    1.21
   3   3  -7   26.08    1.02
  -3   3   7   27.23    1.00
   3   3  -7   26.06    1.02
  -3   3   7   27.33    1.03
   3   3  -7   26.45    1.13
   1  -3  -7   36.23    1.29
   1  -3  -7   35.11    1.24
   1  -3  -7   33.62    1.41
  -1  -3   7   35.12    1.42
  -1  -3   7   36.54    1.44
   1   3  -7   34.86    1.24
   1   3  -7   35.94    1.37
   1   3  -7   32.34    1.41
  -1   3   7   35.11    1.27
   1   3  -7   37.60    1.56
  -1   3   7   35.24    1.26
  -1   3   7   35.71    1.21
   1   3  -7   36.64    1.25
  -1   3   7   35.78    1.08
  -1   3   7   33.35    1.16
  -1   3   7   36.54    1.33
  -1  -3  -7    7.01    0.51
   1  -3   7    6.92    0.76
  -1  -3  -7    7.29    0.50
   1  -3   7    7.68    0.60
  -1  -3  -7    5.67    0.52
   1  -3   7    6.18    0.64
   1   3   7    6.51    0.55
  -1   3  -7    7.52    0.68
   1   3   7    7.01    0.51
  -1   3  -7    6.73    0.51
  -1   3  -7    7.05    0.58
   1   3   7    7.22    0.45
  -1   3  -7    6.40    0.66
   1   3   7    7.04    0.44
   3  -3   7   30.72    1.34
  -3  -3  -7   31.16    1.25
   3  -3   7   31.76    1.53
  -3  -3  -7   32.02    1.15
  -3  -3  -7   30.98    1.09
   3  -3   7   30.75    1.27
  -3   3  -7   32.05    1.20
  -3   3  -7   29.91    1.36
   3   3   7   32.40    1.10
   3   3   7   30.45    1.28
  -3   3  -7   30.00    1.32
   3   3   7   30.82    1.11
  -3   3  -7   30.16    1.27
  -3   3  -7   31.24    1.18
  -3   3  -7   30.28    1.45
  -3   3  -7   30.14    1.40
  -5  -3  -7    6.84    0.50
   5  -3   7    7.46    0.82
   5  -3   7    6.97    0.71
  -5  -3  -7    7.66    0.50
  -5  -3  -7    6.98    0.44
   5  -3   7    7.15    0.56
  -5  -3  -7    6.78    0.54
   5   3   7    7.04    0.51
  -5   3  -7    8.10    0.63
  -5   3  -7    6.24    0.74
  -5   3  -7    6.99    0.72
  -5   3  -7    6.99    0.75
   5   3   7    5.96    0.65
   5   3   7    6.93    0.49
  -5   3  -7    6.37    0.53
  -5   3  -7    7.50    0.75
  -7  -3  -7   69.32    1.94
   7  -3   7   67.90    2.27
   7  -3   7   68.09    2.57
  -7  -3  -7   70.75    1.92
   7  -3   7   69.18    2.16
  -7  -3  -7   69.43    2.22
  -7   3  -7   66.88    2.13
  -7   3  -7   69.65    2.41
  -7   3  -7   66.65    2.33
  -7   3  -7   68.60    2.54
   7   3   7   66.14    1.93
   7   3   7   65.46    2.02
  -7   3  -7   68.85    2.23
   7   3   7   66.17    2.29
  -7   3  -7   68.88    2.10
  -7   3  -7   69.32    2.26
   9  -3   7    1.48    0.39
  -9  -3  -7    2.31    0.35
  -9  -3  -7    2.07    0.37
  -9  -3  -7    2.46    0.32
   9   3   7    2.76    0.50
   9   3   7    2.18    0.38
  -9   3  -7    2.68    0.38
  -9   3  -7    1.95    0.44
  -9   3  -7    3.12    0.47
  -9   3  -7    2.64    0.49
  -9   3  -7    2.74    0.50
   9   3   7    2.18    0.34
  -9   3  -7    2.59    0.47
  -9   3  -7    2.55    0.52
  11  -3   7   10.11    0.80
 -11  -3  -7   11.90    0.77
 -11  -3  -7   12.67    0.67
  11  -3   7   10.24    0.83
 -11   3  -7   13.11    0.91
 -11   3  -7   10.41    0.75
  11   3   7   12.12    0.53
 -11   3  -7   10.48    0.85
  11   3   7   10.43    0.72
 -11   3  -7   13.32    0.94
  11   3   7   12.88    0.70
 -11   3  -7   10.77    0.83
  11   3   7    9.77    0.82
 -13  -3  -7   63.87    1.93
  13  -3   7   60.30    2.26
  13  -3   7   67.56    2.33
 -13  -3  -7   64.96    2.25
  13   3   7   63.07    1.95
 -13   3  -7   65.18    2.29
 -13   3  -7   62.35    2.37
 -13   3  -7   65.73    2.41
 -13   3  -7   65.68    2.14
  13   3   7   60.48    2.12
  13   3   7   65.82    1.71
  13   3   7   61.65    2.39
 -15  -3  -7    5.07    0.53
  15  -3   7    5.27    0.69
  15  -3   7    5.23    0.71
 -15   3  -7    5.80    0.76
  15   3   7    6.38    0.41
  15   3   7    5.46    0.68
  15   3   7    5.60    0.76
 -15   3  -7    4.98    0.67
 -15   3  -7    5.59    0.76
  17  -3   7   30.71    1.56
 -17  -3  -7   32.51    1.30
  17  -3   7   33.54    1.58
  17   3   7   31.97    1.08
  17   3   7   32.35    1.70
 -17   3  -7   30.84    1.63
  17   3   7   32.02    1.50
 -17   3  -7   34.92    1.67
 -17   3  -7   32.07    1.58
 -19  -3  -7    2.04    0.42
  19  -3   7    3.77    0.67
  19  -3   7    3.03    0.59
 -19   3  -7    2.55    0.60
  19   3   7    2.48    0.52
 -19   3  -7    1.87    0.53
  19   3   7    2.20    0.57
 -19   3  -7    2.36    0.58
 -21  -3  -7   15.92    0.96
  21  -3   7   19.18    1.22
  21  -3   7   17.06    1.21
 -21   3  -7   15.86    1.17
 -21   3  -7   18.78    1.26
  21   3   7   16.99    1.29
  23  -3   7    5.58    0.85
 -23  -3  -7    3.74    0.58
 -23   3  -7    4.79    0.78
 -23   3  -7    4.13    0.73
  22  -4  -7    5.98    0.84
 -22  -4   7    5.97    0.79
 -22   4   7    6.72    0.69
  20  -4  -7    1.16    0.43
 -20  -4   7    1.37    0.46
 -20   4   7    1.30    0.34
 -18  -4   7    2.70    0.52
  18  -4  -7    2.47    0.56
 -18   4   7    2.11    0.36
 -18   4   7    2.19    0.55
 -16  -4   7    3.33    0.56
  16  -4  -7    2.70    0.55
 -16   4   7    2.82    0.54
 -16   4   7    2.67    0.56
 -16   4   7    2.30    0.35
  16   4  -7    1.49    0.40
 -14  -4   7    5.34    0.76
  14  -4  -7    5.06    0.67
 -14  -4   7    4.85    0.64
 -14   4   7    5.11    0.38
 -14   4   7    4.91    0.64
  14   4  -7    4.38    0.59
 -14   4   7    5.49    0.70
  12  -4  -7   22.44    1.16
 -12  -4   7   22.13    1.16
 -12  -4   7   21.58    1.32
 -12   4   7   24.45    1.18
 -12   4   7   22.20    0.67
  12   4  -7   22.40    1.14
 -12   4   7   22.70    1.20
  12   4  -7   22.72    0.66
  10  -4  -7   27.35    1.25
 -10  -4   7   29.16    1.30
 -10  -4   7   23.72    1.40
 -10  -4   7   26.44    1.28
  10   4  -7   25.75    0.82
  10   4  -7   26.40    0.84
 -10   4   7   23.23    1.19
  10   4  -7   27.65    1.25
 -10   4   7   27.06    1.22
  -8  -4   7   43.56    1.73
  -8  -4   7   42.84    1.92
   8  -4  -7   45.22    1.64
  -8  -4   7   46.60    1.72
   8   4  -7   43.30    1.26
  -8   4   7   46.09    1.59
   8   4  -7   44.42    1.26
   8   4  -7   42.87    1.66
  -6  -4   7   16.38    0.97
  -6  -4   7   14.03    0.89
   6  -4  -7   14.61    0.82
  -6  -4   7   14.76    1.02
   6   4  -7   13.23    0.62
   6   4  -7   12.78    0.84
  -6   4   7   14.13    0.85
   6   4  -7   13.86    0.63
  -6   4   7   15.08    0.78
   4  -4  -7   17.62    0.98
  -4  -4   7   16.47    1.05
  -4  -4   7   17.21    1.11
  -4  -4   7   17.17    0.98
  -4  -4   7   18.05    1.01
   4  -4  -7   17.15    0.85
   4   4  -7   17.23    0.74
  -4   4   7   19.04    0.82
   4   4  -7   17.02    0.97
   4   4  -7   17.67    0.75
  -4   4   7   18.30    0.81
   4   4  -7   17.93    0.91
  -4   4   7   16.66    0.87
   2  -4  -7    6.37    0.51
  -2  -4   7    6.51    0.76
  -2  -4   7    5.62    0.67
  -2  -4   7    6.56    0.70
   2  -4  -7    6.24    0.57
   2   4  -7    6.75    0.65
   2   4  -7    6.25    0.66
  -2   4   7    6.69    0.53
  -2   4   7    6.86    0.45
  -2   4   7    6.96    0.55
   2   4  -7    6.55    0.48
   2   4  -7    6.19    0.46
   0  -4   7    7.14    0.73
   0  -4  -7    6.38    0.48
   0  -4   7    6.34    0.77
   0  -4   7    6.43    0.70
   0  -4  -7    6.66    0.56
   0   4  -7    6.74    0.50
   0   4  -7    5.76    0.69
   0   4  -7    7.04    0.50
   0   4   7    6.83    0.56
   0   4  -7    7.59    0.64
   0   4  -7    7.72    0.60
   0   4   7    6.40    0.50
   2  -4   7   16.13    1.00
  -2  -4  -7   17.84    0.90
  -2  -4  -7   17.23    0.77
   2  -4   7   18.25    1.02
   2  -4   7   15.25    1.09
   2   4   7   17.44    0.79
  -2   4  -7   18.33    0.84
   2   4   7   18.25    0.75
   2   4   7   19.38    0.97
  -2   4  -7   18.53    0.96
  -2   4  -7   16.29    0.98
  -2   4  -7   18.33    1.10
  -2   4  -7   17.96    0.84
  -2   4  -7   18.52    1.09
   4  -4   7   19.49    1.07
   4  -4   7   19.54    1.08
  -4  -4  -7   20.54    0.94
  -4  -4  -7   17.77    0.89
  -4  -4  -7   17.90    0.78
   4  -4   7   20.54    1.25
   4   4   7   19.25    0.83
   4   4   7   18.76    0.81
  -4   4  -7   18.29    1.12
  -4   4  -7   17.68    1.06
   4   4   7   20.37    1.04
  -4   4  -7   19.94    0.90
  -4   4  -7   20.03    1.10
  -4   4  -7   18.94    1.00
  -4   4  -7   17.98    1.05
  -4   4  -7   19.57    0.90
  -6  -4  -7   44.53    1.53
   6  -4   7   43.68    1.75
   6  -4   7   41.01    1.68
  -6  -4  -7   44.85    1.55
  -6  -4  -7   42.78    1.33
  -6   4  -7   43.42    1.77
  -6   4  -7   44.65    1.69
  -6   4  -7   42.65    1.67
   6   4   7   42.24    1.35
  -6   4  -7   41.67    1.49
  -6   4  -7   42.15    1.84
   6   4   7   40.98    1.43
   6   4   7   44.33    1.72
  -6   4  -7   42.72    1.74
   8  -4   7   55.76    2.02
   8  -4   7   54.51    2.06
  -8  -4  -7   54.95    1.60
  -8  -4  -7   53.53    1.84
   8   4   7   54.35    1.62
  -8   4  -7   52.20    2.15
   8   4   7   52.18    2.02
   8   4   7   52.44    1.77
  -8   4  -7   56.23    2.12
  -8   4  -7   55.01    1.92
  -8   4  -7   56.93    2.01
  -8   4  -7   56.23    1.83
  -8   4  -7   56.01    2.08
 -10  -4  -7   11.83    0.62
  10  -4   7   12.18    0.95
 -10  -4  -7   10.79    0.71
 -10   4  -7   12.20    0.78
 -10   4  -7   10.54    0.85
 -10   4  -7   12.19    0.96
 -10   4  -7   12.52    0.89
 -10   4  -7   10.87    0.88
  10   4   7   12.22    0.90
  10   4   7   10.72    0.73
  10   4   7   10.97    0.63
 -12  -4  -7   20.43    1.02
  12  -4   7   21.19    1.16
  12  -4   7   24.34    1.30
 -12  -4  -7   19.82    0.84
  12   4   7   19.72    1.04
 -12   4  -7   18.99    1.14
  12   4   7   18.85    1.20
 -12   4  -7   19.99    1.23
  12   4   7   17.87    0.86
 -12   4  -7   20.87    1.25
 -12   4  -7   19.27    1.25
 -12   4  -7   19.68    1.04
 -14  -4  -7    1.05    0.33
 -14  -4  -7    1.40    0.30
  14  -4   7    1.14    0.41
  14  -4   7    0.50    0.33
 -14   4  -7    1.06    0.42
  14   4   7    0.92    0.39
  14   4   7    1.08    0.34
 -14   4  -7    0.99    0.39
 -14   4  -7    1.59    0.40
 -14   4  -7    0.93    0.40
  16  -4   7    1.17    0.46
 -16  -4  -7    0.74    0.29
  16  -4   7    0.93    0.40
 -16   4  -7    1.64    0.48
  16   4   7    2.18    0.47
 -16   4  -7    2.17    0.54
 -16   4  -7    1.73    0.44
  16   4   7    1.31    0.44
  18  -4   7    9.75    1.05
 -18  -4  -7    9.70    0.65
  18   4   7    8.52    0.90
 -18   4  -7    8.92    1.02
 -18   4  -7    8.28    0.97
  18   4   7    8.16    1.00
  20  -4   7   18.01    1.29
 -20  -4  -7   18.77    0.97
 -20   4  -7   21.02    1.35
  22  -4   7    5.73    0.88
 -22  -4  -7    5.42    0.63
 -22   4  -7    4.72    0.81
 -19  -5   7    0.92    0.45
  19  -5  -7    1.23    0.46
 -19   5   7    0.61    0.50
  19   5  -7    1.08    0.57
 -19   5   7    0.92    0.19
 -17  -5   7    2.07    0.50
  17  -5  -7    2.63    0.56
  17   5  -7    2.67    0.70
 -17   5   7    2.12    0.57
  15  -5  -7   16.50    1.08
 -15  -5   7   17.26    1.08
 -15   5   7   18.17    1.17
  15   5  -7   16.54    1.38
  15   5  -7   16.45    0.96
 -13  -5   7   22.34    1.21
  13  -5  -7   22.34    1.22
 -13  -5   7   23.44    1.44
 -13   5   7   22.80    1.27
  13   5  -7   22.09    1.55
  13   5  -7   21.82    1.12
 -13   5   7   23.84    1.19
  11  -5  -7   26.71    1.30
 -11  -5   7   26.85    1.31
 -11  -5   7   27.43    1.55
  11   5  -7   25.87    1.23
  11   5  -7   26.84    1.66
 -11   5   7   28.31    1.26
 -11   5   7   26.52    1.33
  -9  -5   7    0.73    0.37
   9  -5  -7    1.83    0.41
  -9  -5   7    1.76    0.43
  -9   5   7    1.34    0.38
   9   5  -7    2.02    0.42
  -9   5   7    2.00    0.38
   9   5  -7    1.31    0.50
  -7  -5   7    3.05    0.52
   7  -5  -7    3.61    0.51
  -7  -5   7    2.01    0.49
  -7  -5   7    3.15    0.59
   7   5  -7    2.82    0.54
   7   5  -7    3.72    0.52
  -7   5   7    3.33    0.42
  -7   5   7    2.34    0.45
   7   5  -7    3.97    0.72
  -5  -5   7    4.64    0.62
  -5  -5   7    4.90    0.72
  -5  -5   7    3.05    0.57
   5  -5  -7    5.08    0.56
  -5   5   7    4.33    0.54
   5   5  -7    3.76    0.59
   5   5  -7    4.48    0.58
  -5   5   7    4.07    0.42
   5   5  -7    4.57    0.76
   3  -5  -7   19.93    1.08
  -3  -5   7   18.59    1.21
  -3  -5   7   19.39    1.10
   3  -5  -7   20.77    0.93
  -3  -5   7   20.20    1.26
  -3   5   7   20.15    0.74
   3   5  -7   20.40    1.08
   3   5  -7   19.28    1.18
  -3   5   7   19.52    0.96
   3   5  -7   21.78    1.35
  -1  -5   7    3.65    0.60
   1  -5  -7    4.18    0.46
  -1  -5   7    4.11    0.60
   1  -5  -7    2.43    0.43
  -1  -5   7    3.12    0.60
  -1   5   7    2.75    0.41
   1   5  -7    3.26    0.62
   1   5  -7    2.83    0.56
   1   5  -7    3.55    0.29
   1   5  -7    3.85    0.55
   1   5  -7    3.51    0.31
   1  -5   7    3.55    0.60
  -1  -5  -7    4.05    0.42
   1  -5   7    2.48    0.51
   1  -5   7    3.50    0.62
  -1  -5  -7    3.07    0.45
  -1   5  -7    3.40    0.35
   1   5   7    3.22    0.40
  -1   5  -7    4.11    0.58
  -1   5  -7    2.40    0.52
  -1   5  -7    3.74    0.37
  -1   5  -7    3.87    0.66
   1   5   7    3.66    0.51
  -3  -5  -7    3.68    0.46
   3  -5   7    4.31    0.64
   3  -5   7    3.32    0.58
  -3  -5  -7    3.63    0.38
  -3  -5  -7    3.60    0.52
   3   5   7    4.61    0.58
   3   5   7    2.73    0.36
  -3   5  -7    3.64    0.40
  -3   5  -7    3.52    0.62
  -3   5  -7    2.13    0.46
  -3   5  -7    3.69    0.63
  -3   5  -7    3.62    0.39
  -3   5  -7    3.05    0.55
  -5  -5  -7   15.39    0.67
   5  -5   7   13.27    0.99
  -5  -5  -7   15.59    0.79
   5  -5   7   15.20    1.02
  -5  -5  -7   16.33    0.93
  -5   5  -7   15.49    1.04
   5   5   7   14.00    0.69
   5   5   7   17.26    1.00
  -5   5  -7   15.83    1.11
  -5   5  -7   13.84    0.74
  -5   5  -7   15.04    1.00
  -5   5  -7   15.75    0.76
  -5   5  -7   15.98    1.07
  -7  -5  -7    7.80    0.46
   7  -5   7    5.93    0.75
   7  -5   7    6.74    0.81
  -7  -5  -7    7.18    0.54
   7   5   7    8.36    0.51
  -7   5  -7    7.96    0.58
   7   5   7    7.38    0.80
  -7   5  -7    8.81    0.60
  -7   5  -7    8.67    0.89
  -7   5  -7    7.98    0.84
  -7   5  -7    8.59    0.96
  -7   5  -7    8.06    0.83
   9  -5   7    2.38    0.50
   9  -5   7    2.01    0.51
  -9  -5  -7    2.38    0.37
  -9  -5  -7    2.03    0.28
  -9   5  -7    1.79    0.46
  -9   5  -7    1.42    0.47
   9   5   7    2.82    0.55
   9   5   7    1.74    0.31
  -9   5  -7    1.82    0.37
  -9   5  -7    2.77    0.56
 -11  -5  -7    1.33    0.25
 -11  -5  -7    0.91    0.26
  11  -5   7    1.45    0.47
 -11   5  -7    1.42    0.49
 -11   5  -7    0.47    0.37
  11   5   7    1.46    0.44
  11   5   7    1.10    0.34
 -11   5  -7    0.75    0.29
  11   5   7    1.04    0.28
  13  -5   7    8.20    0.94
 -13  -5  -7    9.72    0.52
 -13  -5  -7    8.34    0.64
 -13   5  -7    9.16    1.06
  13   5   7    8.61    0.56
  13   5   7    7.73    0.78
 -13   5  -7    7.86    0.75
  13   5   7    8.14    0.94
  15  -5   7    3.18    0.66
 -15   5  -7    4.30    0.59
  15   5   7    4.86    0.77
  15   5   7    4.97    0.66
  17  -5   7   12.37    1.07
 -17   5  -7   12.01    0.89
  17   5   7   12.44    1.10
  19  -5   7    5.01    0.81
 -19   5  -7    4.29    0.65
  16  -6  -7    7.13    0.86
 -16  -6   7    8.66    0.89
 -16   6   7    7.48    0.94
  16   6  -7    8.74    1.25
  14  -6  -7    4.82    0.71
 -14  -6   7    5.37    0.73
 -14   6   7    4.67    0.74
  14   6  -7    5.30    0.98
  12  -6  -7   16.01    1.02
 -12  -6   7   14.53    0.99
  12   6  -7   12.65    0.83
 -12   6   7   14.27    1.04
 -12   6   7   14.05    0.88
  12   6  -7   14.16    1.31
 -10  -6   7   17.05    1.06
  10  -6  -7   13.41    0.94
  10   6  -7   14.81    1.30
  10   6  -7   14.96    0.88
 -10   6   7   15.28    1.02
  10   6  -7   13.95    1.06
   8  -6  -7    1.59    0.41
  -8  -6   7    1.42    0.49
  -8  -6   7    2.23    0.50
   8   6  -7    1.65    0.56
  -8   6   7    1.08    0.37
   8   6  -7    1.56    0.38
   8   6  -7    1.80    0.52
  -6  -6   7    1.46    0.43
   6  -6  -7    1.49    0.37
  -6  -6   7    1.37    0.45
  -6  -6   7    1.00    0.44
   6   6  -7    0.85    0.30
   6   6  -7    1.37    0.54
  -6   6   7    0.79    0.32
   6   6  -7    0.59    0.35
   4  -6  -7    1.08    0.32
  -4  -6   7    0.96    0.42
  -4  -6   7    1.38    0.43
  -4  -6   7    0.82    0.42
  -4   6   7    1.37    0.36
   4   6  -7    0.55    0.44
   4   6  -7    1.36    0.38
   4   6  -7    0.83    0.39
  -2  -6   7    0.42    0.34
  -2  -6   7    0.31    0.33
   2  -6  -7    0.48    0.24
  -2   6   7    0.07    0.23
   2   6  -7    0.29    0.36
   2   6  -7    0.76    0.32
   2   6  -7    1.32    0.45
   0  -6   7    8.38    1.01
   0  -6  -7    8.11    0.54
   0  -6   7    8.55    0.88
   0   6  -7    8.59    0.91
   0   6  -7    7.49    0.77
   0   6  -7    7.38    0.98
   0   6   7    7.54    0.58
   0   6  -7    9.24    0.99
  -2  -6  -7    2.46    0.41
   2  -6   7    1.59    0.49
   2  -6   7    2.49    0.53
  -2  -6  -7    2.28    0.32
  -2   6  -7    3.15    0.66
  -2   6  -7    1.43    0.41
   2   6   7    1.46    0.31
  -2   6  -7    1.86    0.49
  -2   6  -7    2.23    0.56
   4  -6   7    0.18    0.29
   4  -6   7    0.33    0.34
  -4   6  -7    0.20    0.33
  -4   6  -7   -0.15    0.32
  -4   6  -7    0.26    0.35
   4   6   7    0.08    0.20
   6  -6   7    1.35    0.49
   6  -6   7    2.89    0.60
  -6   6  -7    3.64    0.66
  -6   6  -7    2.41    0.62
  -6   6  -7    1.78    0.24
   6   6   7    2.15    0.32
  -6   6  -7    2.11    0.25
   8  -6   7    6.59    0.86
   8  -6   7    4.97    0.76
   8   6   7    5.07    0.72
   8   6   7    5.91    0.43
  -8   6  -7    5.18    0.41
  -8   6  -7    5.05    0.41
  -8   6  -7    6.45    0.85
  10  -6   7    9.55    1.02
  10  -6   7    9.69    1.04
  10   6   7    8.57    0.96
 -10   6  -7    9.90    1.07
 -10   6  -7    9.86    0.61
  10   6   7    8.55    0.52
  12  -6   7    0.49    0.38
 -12   6  -7    0.42    0.24
  12   6   7    0.82    0.25
  12   6   7    0.54    0.37
  14  -6   7    1.85    0.56
  14   6   7    1.72    0.53
 -14   6  -7    1.86    0.38
  -7  -7   7   -0.07    0.34
   7  -7  -7    0.35    0.28
  -7   7   7    0.32    0.32
   7   7  -7    0.24    0.45
   5  -7  -7    1.77    0.39
  -5  -7   7    2.34    0.53
  -5   7   7    2.56    0.49
   5   7  -7    2.73    0.75
  -3  -7   7    2.10    0.53
   3  -7  -7    2.69    0.43
   3   7  -7    3.51    0.77
  -3   7   7    2.73    0.46
  -1  -7   7    0.89    0.42
   1   7  -7    0.71    0.49
  -1   7   7    0.82    0.30
   1   7  -7    0.03    0.34
   1  -7   7    4.98    0.75
  -1   7  -7    5.35    0.77
  -1   7  -7    4.99    0.87
   3  -7   7    2.27    0.56
  -3   7  -7    1.30    0.51
  -3   7  -7    2.07    0.62
   3   7   7    2.20    0.37
   5  -7   7    3.93    0.69
  -5   7  -7    3.21    0.67
   5   7   7    2.53    0.35
   7  -7   7    0.37    0.39
  -7   7  -7   -0.05    0.35
   7   7   7    0.09    0.19
 -26   0   8   -0.10    0.41
  26   0  -8   -0.14    0.32
  24   0  -8   -0.41    0.23
 -24   0   8    0.48    0.39
 -22   0   8    0.48    0.41
  22   0  -8    0.55    0.35
 -22   0   8    0.13    0.36
 -20   0   8    7.74    0.90
 -20   0   8    6.68    0.83
  20   0  -8    7.09    0.83
  20   0  -8    7.53    0.88
  18   0  -8   16.91    1.12
  18   0  -8   16.51    1.07
 -18   0   8   15.70    1.09
 -18   0   8   17.33    1.11
 -16   0   8    3.04    0.56
 -16   0   8    3.90    0.62
  16   0  -8    4.13    0.64
  16   0  -8    3.28    0.57
 -14   0   8   45.45    1.85
  14   0  -8   45.95    1.87
  14   0  -8   43.85    1.76
 -14   0   8   45.74    1.79
 -14   0   8   45.51    1.68
  12   0  -8   14.13    0.89
 -12   0   8   14.98    0.84
 -12   0   8   13.99    0.90
  12   0  -8   11.50    0.85
 -12   0   8   13.57    0.89
 -12   0   8   14.55    0.95
 -10   0   8    0.04    0.24
  10   0  -8    0.23    0.23
 -10   0   8    0.06    0.19
 -10   0   8    0.33    0.25
 -10   0   8   -0.03    0.21
  10   0  -8    0.17    0.24
  10   0  -8   -0.07    0.22
  -8   0   8    1.05    0.32
  -8   0   8    1.79    0.33
  -8   0   8    1.41    0.36
   8   0  -8    1.48    0.37
  -8   0   8    1.16    0.32
   8   0  -8    2.05    0.39
   8   0  -8    1.71    0.37
  -6   0   8    3.31    0.46
   6   0  -8    2.47    0.43
  -6   0   8    2.77    0.39
  -6   0   8    2.78    0.45
   6   0  -8    3.46    0.54
  -6   0   8    3.00    0.47
   6   0  -8    2.57    0.42
   4   0  -8   27.76    1.23
  -4   0   8   27.24    1.06
   4   0  -8   27.73    1.18
  -4   0   8   27.50    1.17
  -4   0   8   26.88    1.20
  -4   0   8   25.95    1.14
   4   0  -8   28.49    1.34
   2   0  -8   24.44    1.23
  -2   0   8   24.08    1.07
  -2   0   8   24.62    1.09
   2   0  -8   24.66    1.13
  -2   0   8   23.91    0.96
  -2   0   8   22.77    1.08
  -2   0   8   24.81    1.19
   2   0  -8   25.03    1.09
   0   0   8    0.24    0.17
   0   0   8    0.07    0.17
   0   0   8    0.06    0.20
   0   0  -8   -0.03    0.15
   0   0  -8   -0.03    0.16
   0   0   8   -0.06    0.19
   0   0  -8    0.04    0.18
   0   0   8   -0.06    0.17
  -2   0  -8   31.45    1.43
   2   0   8   31.95    1.26
  -2   0  -8   31.00    1.24
  -2   0  -8   28.79    1.27
   2   0   8   31.70    1.26
   2   0   8   30.50    1.36
  -2   0  -8   33.63    1.21
  -4   0  -8    3.38    0.47
  -4   0  -8    2.80    0.40
  -4   0  -8    3.56    0.46
   4   0   8    3.65    0.48
   4   0   8    3.46    0.46
  -4   0  -8    3.55    0.45
   4   0   8    2.92    0.46
  -4   0  -8    4.07    0.56
   6   0   8   21.54    1.13
   6   0   8   22.83    1.05
  -6   0  -8   22.62    1.00
   6   0   8   21.43    1.10
  -6   0  -8   22.02    1.09
  -6   0  -8   22.98    1.05
  -6   0  -8   23.67    1.24
   6   0   8   22.15    1.04
  -8   0  -8    6.92    0.68
   8   0   8    8.35    0.72
   8   0   8    8.15    0.64
  -8   0  -8    7.70    0.62
   8   0   8    7.98    0.62
   8   0   8    7.87    0.66
  -8   0  -8    8.37    0.68
  10   0   8   26.15    1.20
  10   0   8   25.82    1.32
  10   0   8   24.66    1.14
 -10   0  -8   24.85    1.16
 -10   0  -8   24.59    1.22
 -12   0  -8   44.82    1.76
  12   0   8   42.14    1.83
 -12   0  -8   42.89    1.65
  12   0   8   43.14    1.64
 -12   0  -8   44.53    1.62
 -14   0  -8   12.61    0.90
 -14   0  -8   13.61    0.82
 -14   0  -8   12.77    0.86
  14   0   8   11.71    0.93
  14   0   8   13.01    0.86
 -16   0  -8    0.45    0.32
 -16   0  -8    0.14    0.24
  16   0   8    0.04    0.27
 -16   0  -8   -0.18    0.24
  16   0   8    1.02    0.35
 -18   0  -8   21.88    1.22
  18   0   8   22.21    1.36
 -18   0  -8   22.56    1.31
  18   0   8   20.75    1.22
 -20   0  -8   10.63    0.86
  20   0   8    7.65    0.94
 -22   0  -8    5.67    0.74
  22   0   8    4.96    0.82
 -24   0  -8    5.33    0.77
  24   0   8    5.35    0.86
 -26   0  -8   -0.26    0.33
  25  -1  -8    2.57    0.60
 -25  -1   8    1.14    0.46
 -25   1   8    2.79    0.65
 -23  -1   8    4.03    0.69
  23  -1  -8    4.88    0.75
 -23  -1   8    4.91    0.79
 -23   1   8    5.96    0.83
  21  -1  -8    6.70    0.83
  21  -1  -8    5.30    0.79
 -21  -1   8    5.58    0.80
 -21  -1   8    5.72    0.78
  21   1  -8    6.05    0.80
 -21   1   8    4.62    0.75
 -21   1   8    6.93    0.84
 -19  -1   8    4.55    0.71
  19  -1  -8    4.91    0.73
  19  -1  -8    3.07    0.57
 -19  -1   8    3.87    0.65
  19   1  -8    4.34    0.66
 -19   1   8    6.18    0.79
 -19   1   8    4.43    0.67
  19   1  -8    4.70    0.67
  17  -1  -8   19.65    1.16
 -17  -1   8   18.97    1.19
  17  -1  -8   20.15    1.21
 -17  -1   8   20.29    1.17
 -17   1   8   21.36    1.10
  17   1  -8   18.29    1.15
  17   1  -8   19.65    1.14
 -17   1   8   20.81    1.25
 -17   1   8   19.84    1.18
 -15  -1   8   13.55    0.93
  15  -1  -8   13.72    0.92
 -15  -1   8   12.48    0.93
  15  -1  -8   11.11    0.88
 -15   1   8   13.50    0.92
 -15   1   8   13.79    0.95
 -15   1   8   13.22    0.84
  15   1  -8   12.33    0.89
 -15   1   8   14.29    0.94
  15   1  -8   10.92    0.87
  13  -1  -8    9.75    0.76
 -13  -1   8   11.07    0.84
 -13  -1   8   10.43    0.79
  13  -1  -8   10.79    0.82
 -13   1   8   10.70    0.72
  13   1  -8   10.00    0.79
 -13   1   8   10.01    0.80
 -13   1   8   10.90    0.83
  13   1  -8   11.60    0.81
 -13   1   8   11.36    0.81
 -11  -1   8    8.40    0.69
  11  -1  -8    9.00    0.71
 -11  -1   8    8.82    0.75
  11  -1  -8    8.27    0.71
  11   1  -8   11.10    0.87
 -11   1   8    8.81    0.72
 -11   1   8    8.34    0.61
  11   1  -8    8.36    0.68
  11   1  -8    8.88    0.73
 -11   1   8    9.91    0.72
 -11   1   8    9.87    0.74
   9  -1  -8    7.21    0.73
  -9  -1   8    7.80    0.63
   9  -1  -8    7.29    0.63
  -9  -1   8    7.47    0.64
  -9  -1   8    8.64    0.71
  -9  -1   8    7.31    0.59
  -9  -1   8    7.92    0.72
  -9   1   8    7.37    0.64
   9   1  -8    8.92    0.76
   9   1  -8    6.62    0.68
  -9   1   8    7.55    0.56
   9   1  -8    7.15    0.73
  -9   1   8    7.34    0.62
  -9   1   8    7.40    0.72
   7  -1  -8   26.95    1.18
   7  -1  -8   27.49    1.35
   7  -1  -8   25.17    1.20
  -7  -1   8   26.89    1.35
  -7  -1   8   24.72    1.09
  -7  -1   8   26.29    1.22
  -7  -1   8   25.95    1.16
   7   1  -8   23.35    1.18
  -7   1   8   24.94    1.14
  -7   1   8   27.50    1.05
   7   1  -8   25.56    1.32
  -7   1   8   24.04    1.15
  -7   1   8   25.84    1.17
  -7   1   8   26.87    1.28
   7   1  -8   26.47    1.17
   5  -1  -8   43.55    1.63
  -5  -1   8   46.36    1.64
  -5  -1   8   44.28    1.67
  -5  -1   8   40.48    1.77
   5  -1  -8   41.69    1.76
   5  -1  -8   48.58    1.64
  -5  -1   8   44.44    1.59
  -5  -1   8   45.16    1.52
   5   1  -8   46.48    1.85
   5   1  -8   44.14    1.50
  -5   1   8   45.64    1.58
  -5   1   8   43.51    1.60
  -5   1   8   44.47    1.60
   5   1  -8   42.34    1.65
   5   1  -8   45.90    1.62
  -5   1   8   43.58    1.40
  -5   1   8   43.02    1.70
  -3  -1   8   14.21    0.81
   3  -1  -8   13.61    0.77
  -3  -1   8   12.39    0.78
   3  -1  -8   12.47    0.86
   3  -1  -8   12.75    0.79
  -3  -1   8   12.09    0.79
  -3  -1   8   14.11    0.75
  -3   1   8   14.54    0.84
   3   1  -8   14.80    0.82
  -3   1   8   12.93    0.76
   3   1  -8   14.43    0.77
  -3   1   8   13.54    0.80
   3   1  -8   15.04    0.94
  -3   1   8   14.01    0.80
   3   1  -8   14.01    0.86
  -3   1   8   13.47    0.78
  -3   1   8   13.89    0.66
  -1  -1   8    4.73    0.56
  -1  -1   8    4.21    0.52
  -1  -1   8    4.24    0.56
   1  -1  -8    4.31    0.54
  -1  -1   8    4.86    0.53
   1  -1  -8    5.74    0.59
  -1  -1   8    5.56    0.54
   1  -1  -8    4.07    0.48
   1   1  -8    4.00    0.52
   1   1  -8    3.95    0.51
  -1   1   8    4.32    0.51
  -1   1   8    4.15    0.48
  -1   1   8    4.17    0.50
   1   1  -8    4.35    0.49
  -1   1   8    3.81    0.38
  -1   1   8    4.33    0.30
   1   1  -8    3.84    0.55
  -1   1   8    4.49    0.51
  -1   1   8    3.25    0.44
  -1  -1  -8   11.52    0.80
   1  -1   8   12.56    0.76
  -1  -1  -8   11.41    0.69
  -1  -1  -8   12.30    0.76
   1  -1   8   12.76    0.55
   1  -1   8   10.58    0.64
   1  -1   8   11.51    0.74
  -1  -1  -8   11.81    0.67
   1   1   8   11.74    0.69
  -1   1  -8   11.05    0.83
   1   1   8   11.91    0.72
   1   1   8   11.75    0.72
  -1   1  -8   12.28    0.71
   1   1   8   11.82    0.73
   1   1   8   12.70    0.75
  -1   1  -8   11.94    0.78
  -1   1  -8   11.37    0.72
   3  -1   8    9.08    0.42
   3  -1   8    9.02    0.66
  -3  -1  -8    8.87    0.65
  -3  -1  -8    9.92    0.64
  -3  -1  -8    8.82    0.71
   3  -1   8   10.13    0.71
  -3  -1  -8    9.49    0.59
  -3   1  -8   10.56    0.81
   3   1   8    9.95    0.66
  -3   1  -8   10.42    0.72
   3   1   8    9.93    0.73
  -3   1  -8   10.20    0.74
   3   1   8   11.04    0.69
  -3   1  -8   11.18    0.67
   3   1   8    9.90    0.64
  -3   1  -8   10.43    0.70
   3   1   8    9.74    0.66
  -5  -1  -8   88.87    2.62
  -5  -1  -8   90.63    2.55
  -5  -1  -8   87.02    2.88
   5  -1   8   87.52    2.59
   5  -1   8   87.02    2.63
  -5   1  -8   86.69    2.73
  -5   1  -8   88.98    2.59
  -5   1  -8   89.77    2.64
   5   1   8   87.23    2.77
   5   1   8   89.73    2.54
   5   1   8   85.31    2.69
  -5   1  -8   90.62    3.02
  -5   1  -8   91.93    2.53
   5   1   8   90.90    2.52
   5   1   8   90.72    2.56
  -7  -1  -8   70.92    2.13
  -7  -1  -8   71.82    2.45
   7  -1   8   69.38    2.46
   7  -1   8   69.42    2.23
   7  -1   8   70.60    2.20
  -7  -1  -8   66.47    2.17
  -7   1  -8   66.64    2.19
  -7   1  -8   70.71    2.54
   7   1   8   64.94    2.32
  -7   1  -8   69.59    2.31
   7   1   8   69.00    2.11
  -7   1  -8   67.36    2.08
  -7   1  -8   66.11    2.14
   7   1   8   70.03    2.08
   7   1   8   68.11    2.12
   7   1   8   68.17    2.23
   9  -1   8   59.62    2.20
   9  -1   8   58.98    2.04
  -9  -1  -8   61.28    2.04
  -9  -1  -8   62.04    1.96
  -9  -1  -8   62.91    2.28
  -9   1  -8   61.78    2.07
   9   1   8   60.79    1.97
  -9   1  -8   58.68    2.13
   9   1   8   57.19    2.18
   9   1   8   59.65    2.01
  -9   1  -8   60.63    2.10
   9   1   8   59.92    1.90
 -11  -1  -8    5.49    0.60
  11  -1   8    6.33    0.73
  11  -1   8    7.70    0.76
 -11  -1  -8    6.58    0.68
  11  -1   8    7.56    0.81
 -11   1  -8    6.79    0.70
  11   1   8    6.42    0.55
  11   1   8    5.71    0.71
 -11   1  -8    5.86    0.66
  11   1   8    5.90    0.64
 -11   1  -8    5.48    0.68
 -13  -1  -8   22.80    1.00
  13  -1   8   20.35    1.21
 -13  -1  -8   23.57    1.11
  13  -1   8   22.47    1.18
 -13  -1  -8   22.38    1.16
 -13   1  -8   21.48    1.15
 -13   1  -8   21.43    1.14
 -13   1  -8   22.47    1.26
  13   1   8   25.12    1.22
  13   1   8   23.72    1.31
 -15  -1  -8    1.29    0.40
 -15  -1  -8    0.62    0.27
  15  -1   8    1.22    0.40
  15  -1   8    1.11    0.39
 -15   1  -8    0.50    0.30
 -15   1  -8    0.45    0.27
  15   1   8    0.90    0.36
 -15   1  -8    0.67    0.36
  15   1   8    0.70    0.31
 -17  -1  -8   34.05    1.46
  17  -1   8   34.01    1.54
  17   1   8   30.82    1.64
 -17   1  -8   30.27    1.57
 -17   1  -8   31.40    1.52
  17   1   8   30.60    1.49
 -17   1  -8   30.18    1.41
  19  -1   8   13.14    1.00
  19  -1   8   15.80    1.14
 -19  -1  -8   13.35    0.92
  19  -1   8   14.44    1.04
  19   1   8   14.29    1.11
 -19   1  -8   14.50    1.03
  19   1   8   13.53    0.88
 -19   1  -8   11.73    1.00
 -19   1  -8   14.87    0.96
  21  -1   8    5.51    0.81
 -21  -1  -8    5.10    0.69
 -21   1  -8    5.40    0.76
 -21   1  -8    6.17    0.84
  21   1   8    4.85    0.80
  23  -1   8   13.74    1.16
 -23  -1  -8   12.66    0.99
 -23   1  -8   12.64    1.03
  23   1   8   13.21    1.15
 -25  -1  -8   12.21    1.01
 -25   1  -8   12.77    1.05
  24  -2  -8    1.81    0.51
 -24  -2   8    0.97    0.44
  24   2  -8    0.42    0.25
 -24   2   8    1.17    0.48
 -22  -2   8    3.23    0.63
 -22  -2   8    4.58    0.77
  22  -2  -8    2.80    0.60
  22   2  -8    3.04    0.44
 -22   2   8    4.31    0.75
  20  -2  -8    0.52    0.35
 -20  -2   8    0.48    0.39
 -20  -2   8    0.28    0.35
  20  -2  -8    0.22    0.33
  20   2  -8    0.67    0.26
 -20   2   8    0.09    0.29
 -20   2   8    0.78    0.42
  18  -2  -8    4.34    0.69
 -18  -2   8    3.45    0.63
 -18  -2   8    3.47    0.58
  18  -2  -8    3.70    0.61
  18   2  -8    3.07    0.55
 -18   2   8    3.00    0.60
  18   2  -8    2.98    0.54
 -18   2   8    4.30    0.58
 -18   2   8    2.46    0.52
  18   2  -8    2.63    0.42
  16  -2  -8    0.81    0.36
 -16  -2   8    1.21    0.42
  16  -2  -8    1.35    0.41
 -16  -2   8    1.03    0.39
 -16   2   8    1.74    0.46
  16   2  -8    0.86    0.35
 -16   2   8    0.89    0.36
 -16   2   8    1.29    0.35
  16   2  -8    1.51    0.31
 -16   2   8    1.07    0.41
  16   2  -8    1.10    0.37
 -14  -2   8    8.47    0.74
  14  -2  -8   11.24    0.83
  14  -2  -8    9.22    0.91
 -14  -2   8    9.80    0.83
 -14   2   8   10.15    0.81
 -14   2   8   10.18    0.78
 -14   2   8   10.44    0.70
  14   2  -8   10.41    0.79
 -14   2   8   10.66    0.84
  14   2  -8    9.77    0.66
  14   2  -8   10.64    0.83
 -12  -2   8   11.83    0.84
 -12  -2   8   12.93    0.91
  12  -2  -8   14.27    0.93
  12  -2  -8   13.52    0.89
  12   2  -8   12.54    0.87
 -12   2   8   13.50    0.90
  12   2  -8   12.85    0.83
 -12   2   8   14.47    0.90
 -12   2   8   13.76    0.76
 -12   2   8   14.49    0.92
  12   2  -8   11.77    0.72
 -10  -2   8   37.28    1.53
  10  -2  -8   38.83    1.52
 -10  -2   8   34.09    1.69
 -10  -2   8   35.06    1.55
  10  -2  -8   36.58    1.54
  10   2  -8   35.84    1.33
 -10   2   8   35.63    1.50
  10   2  -8   36.05    1.54
 -10   2   8   37.34    1.52
  10   2  -8   35.30    1.47
 -10   2   8   35.56    1.27
  10   2  -8   39.26    1.69
 -10   2   8   38.04    1.48
  -8  -2   8   34.54    1.49
  -8  -2   8   33.43    1.62
   8  -2  -8   36.71    1.44
   8  -2  -8   33.82    1.44
  -8  -2   8   33.72    1.45
  -8   2   8   34.01    1.34
   8   2  -8   37.69    1.62
  -8   2   8   34.92    1.43
   8   2  -8   33.96    1.48
   8   2  -8   33.45    1.27
   8   2  -8   35.66    1.41
  -8   2   8   33.65    1.40
  -8   2   8   33.18    1.17
   6  -2  -8   33.34    1.54
  -6  -2   8   34.67    1.43
  -6  -2   8   30.94    1.41
   6  -2  -8   35.44    1.39
  -6  -2   8   31.99    1.58
   6  -2  -8   34.12    1.40
  -6   2   8   36.34    1.35
   6   2  -8   35.12    1.40
  -6   2   8   33.55    1.37
   6   2  -8   32.92    1.54
   6   2  -8   35.57    1.29
   6   2  -8   32.62    1.44
  -6   2   8   35.41    1.38
  -6   2   8   33.79    1.11
  -6   2   8   34.90    1.42
  -6   2   8   35.06    1.36
   4  -2  -8    5.08    0.58
  -4  -2   8    5.53    0.59
  -4  -2   8    5.21    0.60
  -4  -2   8    5.18    0.54
   4  -2  -8    5.09    0.63
  -4  -2   8    5.52    0.68
  -4  -2   8    5.08    0.61
   4  -2  -8    5.23    0.56
   4   2  -8    5.77    0.57
  -4   2   8    5.33    0.57
  -4   2   8    5.75    0.52
  -4   2   8    4.93    0.56
   4   2  -8    5.98    0.65
   4   2  -8    6.14    0.73
  -4   2   8    6.23    0.39
  -4   2   8    5.76    0.46
  -4   2   8    5.60    0.57
  -4   2   8    5.97    0.51
   4   2  -8    5.50    0.61
  -2  -2   8    9.32    0.66
  -2  -2   8    9.43    0.65
   2  -2  -8    9.88    0.67
   2  -2  -8    9.82    0.66
  -2  -2   8    9.21    0.72
  -2  -2   8    9.17    0.77
   2  -2  -8    8.86    0.71
  -2  -2   8   10.65    0.74
  -2   2   8   10.46    0.65
   2   2  -8    9.93    0.64
  -2   2   8   10.03    0.69
  -2   2   8   10.00    0.54
  -2   2   8   10.56    0.67
  -2   2   8   10.10    0.66
   2   2  -8    9.43    0.70
  -2   2   8   10.43    0.66
   2   2  -8   10.01    0.79
  -2   2   8    9.90    0.63
   2   2  -8   10.67    0.76
   0  -2   8   93.39    2.78
   0  -2   8   96.90    2.62
   0  -2   8   93.44    2.64
   0  -2   8   94.12    2.70
   0  -2  -8   93.34    2.61
   0  -2  -8   93.48    2.67
   0  -2  -8   94.55    2.97
   0   2   8   88.08    2.75
   0   2   8   96.95    2.60
   0   2  -8   91.84    2.72
   0   2   8   94.09    2.41
   0   2   8   94.44    2.62
   0   2   8   90.81    2.54
   0   2  -8   93.91    2.85
   0   2  -8   92.79    3.11
   0   2   8   96.30    2.76
   0   2  -8   90.86    2.57
   0   2   8   94.66    2.64
  -2  -2  -8  128.82    3.31
  -2  -2  -8  124.97    3.37
  -2  -2  -8  121.87    3.71
   2  -2   8  125.92    3.92
   2  -2   8  125.97    3.27
   2  -2   8  126.85    3.31
   2  -2   8  124.35    3.38
   2  -2   8  129.21    3.52
   2   2   8  124.88    3.29
  -2   2  -8  125.31    3.58
   2   2   8  121.42    3.55
   2   2   8  121.21    3.22
  -2   2  -8  133.17    3.96
   2   2   8  127.85    3.48
  -2   2  -8  122.37    3.24
   2   2   8  128.17    3.27
  -2   2  -8  128.18    3.47
  -4  -2  -8    7.45    0.63
   4  -2   8    6.40    0.65
  -4  -2  -8    6.18    0.60
   4  -2   8    5.97    0.44
  -4  -2  -8    6.09    0.51
   4  -2   8    6.46    0.67
   4   2   8    6.11    0.66
  -4   2  -8    6.67    0.64
   4   2   8    5.42    0.56
  -4   2  -8    6.32    0.66
  -4   2  -8    6.75    0.78
   4   2   8    5.48    0.47
  -4   2  -8    4.59    0.60
  -4   2  -8    6.00    0.65
   6  -2   8   18.34    1.02
  -6  -2  -8   20.11    0.91
   6  -2   8   19.52    0.81
  -6  -2  -8   18.50    0.93
  -6  -2  -8   20.17    1.05
  -6   2  -8   20.00    1.04
  -6   2  -8   19.63    1.10
  -6   2  -8   20.50    1.22
  -6   2  -8   18.09    1.01
  -6   2  -8   20.14    0.97
   6   2   8   20.35    0.94
   6   2   8   18.89    1.06
  -8  -2  -8    3.57    0.47
   8  -2   8    3.14    0.52
  -8  -2  -8    3.60    0.52
  -8  -2  -8    4.18    0.51
  -8   2  -8    3.46    0.53
  -8   2  -8    4.73    0.63
  -8   2  -8    3.90    0.54
   8   2   8    3.63    0.48
   8   2   8    4.14    0.60
   8   2   8    4.26    0.49
  -8   2  -8    4.43    0.57
  -8   2  -8    3.78    0.56
 -10  -2  -8   17.12    0.93
  10  -2   8   16.77    1.05
  10  -2   8   18.62    1.07
 -10  -2  -8   17.93    1.05
 -10  -2  -8   19.03    0.91
 -10   2  -8   17.01    1.05
  10   2   8   16.83    0.93
  10   2   8   17.76    0.92
  10   2   8   17.29    1.07
 -10   2  -8   18.33    1.11
 -10   2  -8   18.77    1.04
 -12  -2  -8   34.09    1.36
  12  -2   8   38.89    1.64
  12  -2   8   35.20    1.62
  12   2   8   36.80    1.68
 -12   2  -8   35.30    1.64
 -12   2  -8   33.49    1.56
  12   2   8   36.54    1.41
 -12   2  -8   33.67    1.52
  12   2   8   34.72    1.47
  14  -2   8    0.07    0.29
  14  -2   8    0.04    0.27
 -14  -2  -8    0.03    0.23
  14   2   8    0.15    0.23
 -14   2  -8    0.24    0.27
 -14   2  -8   -0.15    0.23
 -14   2  -8    0.37    0.29
  14   2   8    0.01    0.23
 -16  -2  -8    6.87    0.70
  16  -2   8    5.52    0.76
  16  -2   8    8.01    0.87
 -16   2  -8    7.87    0.85
  16   2   8    6.61    0.84
 -16   2  -8    5.97    0.76
  16   2   8    7.46    0.81
 -16   2  -8    6.90    0.86
  16   2   8    6.97    0.57
  18  -2   8    2.80    0.60
  18  -2   8    3.56    0.63
 -18  -2  -8    3.84    0.55
 -18   2  -8    3.75    0.62
  18   2   8    3.53    0.59
  18   2   8    2.90    0.44
 -18   2  -8    4.03    0.63
  18   2   8    3.24    0.64
 -18   2  -8    4.04    0.69
  20  -2   8   17.11    1.20
 -20  -2  -8   15.43    1.00
  20  -2   8   16.53    1.17
  20   2   8   16.77    0.91
 -20   2  -8   16.80    1.24
 -20   2  -8   15.90    1.16
  20   2   8   17.19    1.28
 -20   2  -8   15.85    1.09
 -22  -2  -8    6.43    0.75
  22  -2   8    6.67    0.90
  22  -2   8    5.48    0.82
 -22   2  -8    4.70    0.76
  24  -2   8    2.48    0.62
 -24  -2  -8    2.65    0.55
 -24   2  -8    2.21    0.59
  23  -3  -8    0.95    0.47
 -23  -3   8    0.78    0.42
  23   3  -8    1.09    0.25
  23   3  -8    0.86    0.24
 -23   3   8    1.31    0.40
 -21  -3   8    5.38    0.75
  21  -3  -8    5.56    0.83
  21  -3  -8    6.99    0.90
  21   3  -8    5.47    0.45
 -21   3   8    5.36    0.64
  21   3  -8    6.88    0.51
  19  -3  -8    2.27    0.54
 -19  -3   8    1.85    0.51
  19  -3  -8    1.77    0.47
 -19   3   8    1.78    0.40
  19   3  -8    2.13    0.33
  19   3  -8    2.16    0.36
  17  -3  -8    5.07    0.73
 -17  -3   8    6.93    0.79
 -17  -3   8    7.43    0.87
  17  -3  -8    6.79    0.84
 -17   3   8    7.11    0.59
  17   3  -8    6.01    0.49
  17   3  -8    6.25    0.57
  17   3  -8    7.18    0.80
 -17   3   8    6.77    0.81
 -17   3   8    4.99    0.71
 -15  -3   8   21.89    1.22
 -15  -3   8   21.04    1.25
  15  -3  -8   19.89    1.18
  15  -3  -8   22.94    1.28
  15   3  -8   20.59    0.91
  15   3  -8   19.85    1.15
  15   3  -8   21.05    0.95
 -15   3   8   21.15    0.97
 -15   3   8   25.28    1.34
 -15   3   8   21.65    1.22
 -13  -3   8    8.13    0.83
  13  -3  -8   10.19    0.82
  13  -3  -8   10.20    0.79
 -13  -3   8    7.96    0.85
  13   3  -8    9.30    0.61
 -13   3   8    9.39    0.60
  13   3  -8    9.19    0.76
 -13   3   8    9.29    0.77
  13   3  -8    9.11    0.60
  11  -3  -8    7.27    0.77
 -11  -3   8    5.19    0.67
 -11  -3   8    5.16    0.65
  11  -3  -8    5.52    0.65
 -11   3   8    5.24    0.66
 -11   3   8    5.60    0.43
 -11   3   8    6.33    0.68
  11   3  -8    5.40    0.52
  11   3  -8    5.29    0.54
  11   3  -8    6.25    0.66
  11   3  -8    5.23    0.65
  -9  -3   8   23.09    1.21
  -9  -3   8   23.45    1.18
   9  -3  -8   22.00    1.13
   9  -3  -8   23.81    1.18
  -9  -3   8   21.33    1.31
   9   3  -8   22.91    1.00
  -9   3   8   24.33    1.19
   9   3  -8   21.65    0.94
  -9   3   8   24.71    1.00
  -9   3   8   22.49    1.10
   9   3  -8   19.22    1.10
  -9   3   8   22.96    0.81
   9   3  -8   22.88    1.11
   7  -3  -8   13.49    0.82
   7  -3  -8   12.14    0.80
  -7  -3   8   13.36    0.86
  -7  -3   8   11.35    0.83
  -7  -3   8   11.26    0.93
   7   3  -8   10.97    0.80
   7   3  -8   10.95    0.68
  -7   3   8   12.38    0.75
  -7   3   8   12.16    0.77
  -7   3   8   12.07    0.70
  -7   3   8   12.50    0.46
   7   3  -8   10.37    0.65
  -7   3   8   11.53    0.79
   7   3  -8   12.07    0.80
  -5  -3   8   68.87    2.34
   5  -3  -8   71.12    2.24
   5  -3  -8   76.11    2.33
  -5  -3   8   72.88    2.70
  -5  -3   8   73.37    2.43
  -5   3   8   76.06    2.23
   5   3  -8   71.16    2.39
  -5   3   8   69.53    2.24
   5   3  -8   73.75    2.30
   5   3  -8   69.83    2.08
   5   3  -8   76.61    2.16
  -5   3   8   74.39    2.22
  -3  -3   8   36.45    1.55
  -3  -3   8   37.19    1.51
   3  -3  -8   37.00    1.58
  -3  -3   8   35.88    1.69
   3  -3  -8   37.64    1.43
   3  -3  -8   35.98    1.37
  -3  -3   8   35.41    1.50
   3   3  -8   34.17    1.29
  -3   3   8   37.00    1.33
  -3   3   8   36.28    1.38
   3   3  -8   34.59    1.41
   3   3  -8   33.66    1.49
  -3   3   8   37.77    1.40
  -1  -3   8   25.84    1.26
   1  -3  -8   27.27    1.15
  -1  -3   8   27.41    1.23
  -1  -3   8   25.27    1.38
   1  -3  -8   27.98    1.12
   1  -3  -8   27.92    1.28
  -1   3   8   27.90    1.08
   1   3  -8   25.83    1.28
   1   3  -8   24.48    1.07
  -1   3   8   26.00    1.11
   1   3  -8   25.35    1.18
   1   3  -8   25.73    1.35
  -1   3   8   25.72    1.15
  -1  -3  -8   33.34    1.29
  -1  -3  -8   33.38    1.25
   1  -3   8   33.00    1.45
   1  -3   8   32.77    1.37
  -1  -3  -8   31.78    1.40
   1   3   8   36.29    1.18
  -1   3  -8   36.86    1.45
   1   3   8   35.79    1.43
  -1   3  -8   34.09    1.60
  -1   3  -8   34.29    1.30
  -1   3  -8   34.24    1.51
   1   3   8   35.15    1.30
   3  -3   8   10.46    0.81
   3  -3   8   10.92    0.72
   3  -3   8   11.67    0.93
  -3  -3  -8   11.87    0.77
  -3  -3  -8   12.20    0.69
  -3   3  -8   11.98    0.80
  -3   3  -8   12.20    0.92
  -3   3  -8   11.75    0.84
   3   3   8   11.44    0.78
  -3   3  -8   11.74    0.73
   3   3   8   11.60    0.68
   3   3   8   11.86    0.65
  -3   3  -8   11.77    0.85
  -5  -3  -8   10.50    0.74
   5  -3   8   13.23    0.75
  -5  -3  -8   12.07    0.67
   5  -3   8   10.19    0.81
   5   3   8   10.35    0.67
   5   3   8   11.25    0.68
  -5   3  -8   11.66    0.81
   5   3   8   11.41    0.81
  -5   3  -8   11.61    0.86
  -5   3  -8   11.23    0.82
  -5   3  -8    9.61    0.81
  -5   3  -8   13.56    1.00
  -5   3  -8   11.36    0.74
  -7  -3  -8   86.20    2.37
   7  -3   8   86.35    2.73
   7  -3   8   86.30    2.52
  -7  -3  -8   85.02    2.69
   7   3   8   81.23    2.73
  -7   3  -8   83.02    2.77
  -7   3  -8   85.49    2.67
   7   3   8   85.42    2.45
   7   3   8   79.34    2.35
  -7   3  -8   79.70    2.46
  -7   3  -8   86.00    2.87
  -7   3  -8   80.61    2.65
  -9  -3  -8   31.22    1.20
  -9  -3  -8   29.59    1.36
   9  -3   8   31.59    1.48
   9   3   8   31.02    1.49
  -9   3  -8   30.05    1.50
  -9   3  -8   33.55    1.57
  -9   3  -8   30.37    1.44
   9   3   8   30.04    1.21
   9   3   8   29.87    1.27
  -9   3  -8   31.86    1.44
  -9   3  -8   32.64    1.36
  11  -3   8   25.01    1.36
 -11  -3  -8   26.33    1.11
 -11  -3  -8   28.16    1.33
  11  -3   8   26.97    1.39
  11   3   8   26.58    1.15
 -11   3  -8   29.80    1.31
 -11   3  -8   29.25    1.47
  11   3   8   24.97    1.38
  11   3   8   28.77    1.28
 -11   3  -8   28.14    1.37
 -11   3  -8   28.90    1.48
 -13  -3  -8   19.35    0.96
  13  -3   8   20.51    1.23
  13  -3   8   20.72    1.21
 -13   3  -8   19.99    1.24
  13   3   8   21.76    1.14
  13   3   8   20.38    1.26
 -13   3  -8   23.40    1.25
  13   3   8   22.40    0.84
 -13   3  -8   20.01    1.26
  13   3   8   21.86    1.04
  15  -3   8    2.77    0.57
 -15  -3  -8    2.78    0.44
  15  -3   8    2.43    0.53
  15   3   8    1.44    0.47
  15   3   8    2.11    0.31
 -15   3  -8    1.84    0.50
 -15   3  -8    3.17    0.61
  15   3   8    2.06    0.44
 -15   3  -8    2.50    0.51
  17  -3   8    3.53    0.66
  17  -3   8    4.00    0.67
 -17  -3  -8    3.42    0.50
  17   3   8    3.20    0.67
 -17   3  -8    3.11    0.64
  17   3   8    3.80    0.60
 -17   3  -8    3.35    0.66
 -17   3  -8    4.62    0.70
 -19  -3  -8   16.06    0.95
  19  -3   8   17.14    1.20
  19  -3   8   16.48    1.19
 -19   3  -8   18.09    1.24
 -19   3  -8   18.98    1.26
  19   3   8   17.20    1.28
  21  -3   8    5.24    0.83
  21  -3   8    4.09    0.72
 -21  -3  -8    3.93    0.59
 -21   3  -8    4.91    0.79
 -21   3  -8    5.85    0.84
  23  -3   8    5.40    0.88
 -23  -3  -8    4.32    0.64
 -23   3  -8    4.75    0.80
  22  -4  -8    4.89    0.81
 -22  -4   8    5.73    0.81
 -22   4   8    5.82    0.64
  20  -4  -8    6.81    0.88
 -20  -4   8    6.49    0.83
 -20   4   8    6.08    0.60
 -18  -4   8    2.60    0.57
  18  -4  -8    2.96    0.60
 -18   4   8    3.03    0.42
 -18   4   8    2.16    0.61
  16  -4  -8    0.34    0.32
 -16  -4   8    0.59    0.36
 -16   4   8    0.23    0.39
 -16   4   8    0.59    0.23
  14  -4  -8    1.45    0.44
 -14  -4   8    0.92    0.40
  14   4  -8    2.43    0.46
  14   4  -8    2.07    0.25
 -14   4   8    3.03    0.55
 -14   4   8    1.87    0.25
 -14   4   8    2.66    0.57
  14   4  -8    2.58    0.27
  12  -4  -8    9.37    0.77
 -12  -4   8    9.12    0.77
  12   4  -8    9.58    0.77
 -12   4   8    8.06    0.84
 -12   4   8    9.74    0.78
  12   4  -8    9.81    0.52
  12   4  -8    9.62    0.51
  10  -4  -8   30.07    1.36
 -10  -4   8   26.99    1.36
 -10  -4   8   29.39    1.42
  10   4  -8   28.92    1.00
  10   4  -8   25.97    1.31
 -10   4   8   27.82    1.36
 -10   4   8   29.31    1.30
  10   4  -8   27.96    1.00
  -8  -4   8   10.02    0.83
   8  -4  -8    9.16    0.72
  -8  -4   8    9.40    0.88
  -8  -4   8    8.90    0.75
  -8   4   8    8.32    0.71
   8   4  -8    8.35    0.53
   8   4  -8    8.77    0.53
   8   4  -8    7.38    0.77
  -8   4   8    9.03    0.67
  -6  -4   8    2.94    0.51
  -6  -4   8    3.15    0.55
   6  -4  -8    1.90    0.40
  -6  -4   8    2.47    0.53
  -6   4   8    2.58    0.46
  -6   4   8    2.40    0.40
   6   4  -8    2.31    0.34
   6   4  -8    2.87    0.38
   6   4  -8    3.06    0.51
  -4  -4   8    7.59    0.78
  -4  -4   8    6.94    0.78
   4  -4  -8    7.05    0.60
  -4  -4   8    7.86    0.89
  -4  -4   8    7.97    0.79
   4   4  -8    6.93    0.72
  -4   4   8    7.99    0.64
  -4   4   8    8.59    0.58
  -4   4   8    7.56    0.57
   4   4  -8    6.35    0.70
   4   4  -8    7.04    0.52
  -2  -4   8   11.22    0.94
  -2  -4   8   11.51    0.84
   2  -4  -8   11.77    0.83
   2  -4  -8   11.56    0.71
  -2  -4   8    9.97    0.81
   2   4  -8   11.05    0.66
   2   4  -8   10.21    0.80
  -2   4   8    9.51    0.67
  -2   4   8   12.79    0.66
  -2   4   8   10.75    0.71
   2   4  -8   11.45    0.67
   2   4  -8   10.33    0.76
   0  -4   8   62.42    2.23
   0  -4  -8   61.19    2.16
   0  -4   8   63.20    2.20
   0  -4  -8   63.59    1.90
   0   4  -8   58.51    2.05
   0   4  -8   59.15    1.86
   0   4  -8   60.11    2.18
   0   4   8   60.90    2.04
   0   4  -8   58.68    2.30
   0   4  -8   61.08    1.86
  -2  -4  -8    0.46    0.23
  -2  -4  -8    0.82    0.28
   2  -4   8    1.17    0.41
   2  -4   8    0.06    0.25
  -2   4  -8    0.39    0.30
  -2   4  -8    0.76    0.28
  -2   4  -8    0.76    0.35
  -2   4  -8    0.60    0.35
  -2   4  -8    0.68    0.32
   2   4   8    0.56    0.27
   2   4   8    0.35    0.24
  -4  -4  -8   74.20    2.50
   4  -4   8   78.57    2.58
   4  -4   8   76.07    2.60
  -4  -4  -8   77.63    2.19
   4   4   8   78.97    2.24
  -4   4  -8   73.30    2.60
  -4   4  -8   79.38    2.32
   4   4   8   80.78    2.57
  -4   4  -8   79.81    2.65
   4   4   8   79.49    2.21
  -4   4  -8   74.42    2.74
  -4   4  -8   79.46    2.63
  -4   4  -8   81.06    2.55
  -6  -4  -8   48.76    1.83
  -6  -4  -8   52.59    1.61
   6  -4   8   51.49    2.00
   6  -4   8   53.87    1.95
  -6   4  -8   52.53    1.94
   6   4   8   49.77    1.63
   6   4   8   50.52    1.67
  -6   4  -8   53.17    2.07
  -6   4  -8   51.30    2.14
  -6   4  -8   49.34    1.97
  -6   4  -8   52.02    1.94
   6   4   8   52.57    1.98
  -6   4  -8   52.31    1.77
  -8  -4  -8    5.25    0.51
  -8  -4  -8    5.93    0.56
   8  -4   8    5.67    0.74
   8  -4   8    5.39    0.63
  -8   4  -8    6.20    0.66
   8   4   8    5.14    0.56
   8   4   8    5.06    0.51
   8   4   8    5.22    0.71
  -8   4  -8    5.05    0.66
  -8   4  -8    6.14    0.78
  -8   4  -8    4.61    0.71
  -8   4  -8    5.71    0.76
 -10  -4  -8    2.63    0.44
  10  -4   8    2.36    0.55
 -10  -4  -8    2.51    0.36
  10   4   8    3.36    0.44
 -10   4  -8    2.58    0.59
  10   4   8    2.49    0.45
 -10   4  -8    3.09    0.49
 -10   4  -8    2.49    0.50
 -10   4  -8    2.77    0.57
  10   4   8    3.97    0.62
 -12  -4  -8    0.30    0.21
  12  -4   8    0.88    0.39
  12  -4   8    1.08    0.46
  12   4   8    0.68    0.28
 -12   4  -8    0.30    0.34
  12   4   8    0.72    0.31
 -12   4  -8    0.42    0.28
 -12   4  -8    0.40    0.34
  12   4   8    0.19    0.30
 -12   4  -8    0.53    0.38
  14  -4   8   27.96    1.52
 -14  -4  -8   28.47    1.13
  14  -4   8   26.62    1.44
 -14   4  -8   26.01    1.54
  14   4   8   29.14    1.21
 -14   4  -8   28.33    1.48
  14   4   8   27.03    1.33
  14   4   8   28.31    1.56
 -14   4  -8   26.81    1.34
  16  -4   8   17.71    1.18
 -16  -4  -8   17.41    0.89
  16  -4   8   18.49    1.27
  16   4   8   17.02    1.07
  16   4   8   15.64    1.20
 -16   4  -8   16.13    1.23
 -16   4  -8   21.44    1.29
  18  -4   8   11.82    1.20
 -18  -4  -8   10.86    0.75
  18   4   8   10.83    1.21
 -18   4  -8   11.74    1.16
 -20  -4  -8    1.98    0.41
  20  -4   8    1.21    0.50
 -20   4  -8    2.57    0.64
 -17  -5   8    3.58    0.64
  17  -5  -8    4.28    0.69
 -17   5   8    3.37    0.69
  15  -5  -8    8.72    0.95
 -15  -5   8    8.62    0.91
 -15   5   8    8.01    0.93
  13  -5  -8    1.64    0.44
 -13  -5   8    0.89    0.38
 -13   5   8    0.71    0.43
  11  -5  -8    8.30    0.85
 -11  -5   8   10.61    0.85
  11   5  -8   10.01    0.80
 -11   5   8   10.46    0.88
 -11   5   8    9.57    0.75
   9  -5  -8    1.48    0.40
  -9  -5   8    1.27    0.42
  -9   5   8    1.81    0.39
   9   5  -8    1.89    0.42
  -9   5   8    2.14    0.48
   7  -5  -8    3.60    0.55
  -7  -5   8    4.34    0.64
  -7  -5   8    4.80    0.76
   7   5  -8    3.67    0.63
  -7   5   8    4.97    0.51
   7   5  -8    4.37    0.61
  -7   5   8    5.25    0.66
  -5  -5   8    1.49    0.41
   5  -5  -8    0.78    0.30
  -5  -5   8    0.58    0.35
   5   5  -8    0.44    0.32
   5   5  -8    0.65    0.30
  -5   5   8    1.13    0.37
   5   5  -8    0.95    0.43
   5   5  -8    0.61    0.14
  -5   5   8    0.49    0.23
  -3  -5   8    3.65    0.59
   3  -5  -8    3.30    0.47
  -3  -5   8    4.39    0.69
   3   5  -8    3.58    0.34
   3   5  -8    3.39    0.56
  -3   5   8    3.15    0.47
   3   5  -8    3.18    0.32
   3   5  -8    3.61    0.69
   3   5  -8    3.68    0.62
  -1  -5   8   34.01    1.68
   1  -5  -8   35.44    1.29
  -1  -5   8   34.00    1.58
   1   5  -8   34.04    1.55
   1   5  -8   34.08    1.74
   1   5  -8   33.70    1.13
   1   5  -8   34.52    1.69
  -1   5   8   32.60    1.31
   1   5  -8   35.03    1.15
   1  -5   8    3.47    0.61
   1  -5   8    4.05    0.63
  -1  -5  -8    3.78    0.45
  -1   5  -8    2.91    0.54
   1   5   8    2.19    0.39
  -1   5  -8    3.46    0.58
  -1   5  -8    2.88    0.38
  -1   5  -8    3.07    0.38
  -1   5  -8    2.96    0.59
  -1   5  -8    3.06    0.62
  -3  -5  -8    5.99    0.47
  -3  -5  -8    6.38    0.60
   3  -5   8    5.97    0.77
   3  -5   8    7.50    0.85
  -3   5  -8    6.41    0.77
  -3   5  -8    6.70    0.85
  -3   5  -8    5.99    0.50
  -3   5  -8    5.91    0.50
  -3   5  -8    6.46    0.81
  -3   5  -8    5.78    0.77
   3   5   8    6.18    0.69
   3   5   8    5.92    0.51
  -5  -5  -8    8.96    0.67
   5  -5   8    8.34    0.91
  -5  -5  -8   10.34    0.58
   5  -5   8   10.28    0.86
  -5   5  -8    8.92    0.94
  -5   5  -8   10.40    1.06
  -5   5  -8    9.43    0.87
   5   5   8    8.62    0.75
   5   5   8    8.47    0.59
  -5   5  -8    8.09    0.60
  -5   5  -8   10.22    0.85
  -7  -5  -8   21.62    1.05
   7  -5   8   21.62    1.28
  -7  -5  -8   20.11    0.86
   7  -5   8   22.16    1.27
  -7   5  -8   20.70    1.25
  -7   5  -8   22.74    1.33
  -7   5  -8   24.17    1.45
   7   5   8   23.78    0.97
   7   5   8   22.61    1.25
  -7   5  -8   21.00    1.02
   9  -5   8    2.51    0.52
   9  -5   8    4.29    0.70
  -9  -5  -8    2.68    0.44
  -9  -5  -8    3.15    0.37
  -9   5  -8    2.57    0.61
  -9   5  -8    2.21    0.55
  -9   5  -8    2.38    0.43
   9   5   8    2.43    0.53
   9   5   8    2.48    0.38
  11  -5   8   17.93    1.24
 -11  -5  -8   19.29    0.82
  11   5   8   18.30    1.22
  11   5   8   19.53    0.90
 -11   5  -8   19.79    1.05
 -13  -5  -8    9.89    0.60
  13  -5   8   10.67    1.12
 -13   5  -8   10.28    0.78
  13   5   8   11.04    1.13
  13   5   8   10.21    0.67
  15  -5   8   21.54    1.39
 -15   5  -8   19.05    1.11
  15   5   8   21.03    1.39
  17  -5   8    3.50    0.73
 -17   5  -8    3.92    0.63
 -14  -6   8   -0.22    0.32
  14  -6  -8   -0.09    0.30
  14   6  -8    0.50    0.49
 -14   6   8    0.15    0.38
  12  -6  -8    4.65    0.69
 -12  -6   8    6.20    0.79
  12   6  -8    5.39    0.79
 -12   6   8    5.11    0.74
  12   6  -8    4.92    0.94
 -10  -6   8    3.66    0.64
  10  -6  -8    3.58    0.59
  10   6  -8    4.45    0.89
 -10   6   8    3.05    0.58
  10   6  -8    3.38    0.63
   8  -6  -8   12.35    0.85
  -8  -6   8   12.95    0.98
  -8   6   8   13.38    0.96
   8   6  -8   11.38    1.31
   8   6  -8   12.49    1.04
  -6  -6   8    2.81    0.65
  -6  -6   8    2.29    0.52
   6  -6  -8    1.68    0.41
   6   6  -8    2.33    0.68
  -6   6   8    2.18    0.49
   6   6  -8    2.20    0.55
   4  -6  -8    3.71    0.51
  -4  -6   8    4.85    0.80
  -4  -6   8    4.63    0.69
   4   6  -8    4.62    0.82
  -4   6   8    4.67    0.61
   4   6  -8    5.03    0.75
  -2  -6   8    2.09    0.50
   2  -6  -8    2.31    0.40
  -2  -6   8    1.70    0.51
   2   6  -8    2.52    0.58
  -2   6   8    2.23    0.43
   2   6  -8    1.37    0.54
   0  -6   8    7.05    0.91
   0  -6  -8    7.29    0.55
   0  -6   8    7.91    0.88
   0   6  -8    6.42    0.84
   0   6  -8    6.32    0.86
   0   6  -8    7.41    0.98
   0   6   8    6.48    0.63
   2  -6   8   14.79    1.07
   2  -6   8   14.36    1.14
  -2  -6  -8   14.30    0.72
  -2   6  -8   13.24    1.06
  -2   6  -8   14.13    1.16
   4  -6   8   23.27    1.43
   4  -6   8   25.29    1.42
  -4   6  -8   23.23    0.79
   4   6   8   23.74    1.00
  -4   6  -8   22.63    1.37
  -4   6  -8   23.10    1.46
   6  -6   8    4.66    0.76
   6  -6   8    5.85    0.82
   6   6   8    6.71    0.52
  -6   6  -8    7.57    0.93
  -6   6  -8    5.64    0.44
   8  -6   8    0.25    0.35
   8  -6   8    0.46    0.41
  -8   6  -8    0.96    0.27
   8   6   8    1.11    0.29
  -8   6  -8    0.77    0.27
  -8   6  -8    0.65    0.42
  10  -6   8    1.89    0.57
 -10   6  -8    3.65    0.48
  10   6   8    2.47    0.39
  10   6   8    3.70    0.68
  12  -6   8   10.93    1.16
 -12   6  -8   10.52    0.73
  12   6   8   10.87    1.15
  12   6   8   10.57    0.65
  -1  -7   8    0.33    0.37
   1   7  -8    0.25    0.43
   1   7  -8    0.61    0.42
  -1   7   8    0.48    0.31
   1  -7   8   17.20    1.21
  -1   7  -8   20.13    1.51
  -1   7  -8   16.94    1.24
  24   0  -9    7.41    0.94
 -24   0   9    8.87    1.02
  22   0  -9    1.14    0.44
 -22   0   9    1.21    0.49
 -20   0   9    1.10    0.47
  20   0  -9    2.58    0.57
 -20   0   9    1.82    0.54
  18   0  -9    0.08    0.27
  18   0  -9    0.26    0.31
 -18   0   9    0.60    0.38
 -18   0   9    0.72    0.40
 -16   0   9   39.35    1.73
  16   0  -9   36.16    1.73
  16   0  -9   36.87    1.67
 -16   0   9   40.10    1.80
  14   0  -9    4.47    0.66
 -14   0   9    5.09    0.69
 -14   0   9    3.58    0.61
  14   0  -9    4.21    0.62
 -12   0   9   37.77    1.59
 -12   0   9   35.15    1.62
  12   0  -9   38.95    1.62
  12   0  -9   35.75    1.63
 -12   0   9   36.80    1.47
 -10   0   9    4.93    0.65
 -10   0   9    5.25    0.65
 -10   0   9    4.75    0.54
  10   0  -9    4.65    0.62
 -10   0   9    4.38    0.59
  10   0  -9    4.78    0.62
  -8   0   9   25.48    1.26
  -8   0   9   26.49    1.23
  -8   0   9   24.13    1.20
  -8   0   9   25.87    1.12
   8   0  -9   24.61    1.20
   8   0  -9   25.06    1.28
  -6   0   9   54.59    1.91
   6   0  -9   53.77    1.98
  -6   0   9   50.28    1.91
   6   0  -9   52.52    1.87
  -6   0   9   52.54    1.73
  -6   0   9   56.47    1.93
  -4   0   9   10.24    0.75
   4   0  -9   10.08    0.75
   4   0  -9   11.00    0.75
  -4   0   9   10.52    0.76
  -4   0   9   10.76    0.67
  -4   0   9   10.93    0.76
  -2   0   9    1.85    0.37
  -2   0   9    1.03    0.32
   2   0  -9    2.30    0.42
  -2   0   9    1.43    0.37
   2   0  -9    1.34    0.36
  -2   0   9    1.39    0.31
   0   0   9   20.85    1.03
   0   0  -9   18.74    1.14
   0   0   9   19.53    1.10
   0   0   9   21.64    1.07
   0   0   9   20.35    0.90
   0   0   9   20.49    1.04
   0   0  -9   20.42    1.02
   0   0  -9   20.84    1.08
   2   0   9   12.07    0.86
  -2   0  -9   13.58    0.88
   2   0   9   13.40    0.83
  -2   0  -9   14.43    0.85
   2   0   9   14.19    0.83
  -4   0  -9    5.30    0.59
  -4   0  -9    7.13    0.72
   4   0   9    5.81    0.64
   4   0   9    5.28    0.61
  -6   0  -9    3.35    0.49
  -6   0  -9    3.11    0.50
   6   0   9    4.97    0.60
   6   0   9    4.15    0.54
   6   0   9    4.53    0.62
  -8   0  -9    7.52    0.77
   8   0   9    7.15    0.78
   8   0   9    5.54    0.65
   8   0   9    7.11    0.70
  -8   0  -9    7.41    0.63
 -10   0  -9   22.90    1.23
 -10   0  -9   24.77    1.18
  10   0   9   24.11    1.18
  10   0   9   20.01    1.22
  10   0   9   21.91    1.11
 -12   0  -9    0.02    0.21
 -12   0  -9    0.27    0.27
  12   0   9    0.01    0.29
 -12   0  -9    0.17    0.26
  12   0   9    0.18    0.29
 -14   0  -9    0.34    0.28
  14   0   9    0.65    0.37
 -14   0  -9    0.62    0.31
 -14   0  -9    0.14    0.28
 -16   0  -9   21.89    1.21
 -16   0  -9   21.11    1.28
  16   0   9   21.60    1.35
 -18   0  -9    0.51    0.34
  18   0   9    0.69    0.40
  20   0   9    6.33    0.89
 -20   0  -9    3.79    0.63
  22   0   9    2.33    0.67
 -22   0  -9    1.82    0.52
 -24   0  -9    4.12    0.72
  23  -1  -9    2.69    0.60
 -23  -1   9    2.28    0.59
 -23   1   9    2.59    0.64
 -21  -1   9   15.63    1.20
 -21  -1   9   15.96    1.15
  21  -1  -9   13.92    1.09
 -21   1   9   16.12    1.15
  21   1  -9   15.09    1.09
  19  -1  -9    6.54    0.85
  19  -1  -9    6.99    0.83
 -19  -1   9    7.17    0.90
 -19   1   9    6.45    0.80
  19   1  -9    7.22    0.85
 -17  -1   9    4.74    0.73
 -17  -1   9    5.71    0.76
  17  -1  -9    6.40    0.79
  17  -1  -9    7.71    0.90
 -17   1   9    5.53    0.67
  17   1  -9    5.26    0.73
  17   1  -9    6.13    0.76
 -17   1   9    7.56    0.89
 -17   1   9    5.61    0.75
  15  -1  -9   15.59    1.04
  15  -1  -9   14.30    1.03
 -15  -1   9   14.02    1.02
 -15  -1   9   14.34    1.00
 -15   1   9   14.98    1.03
 -15   1   9   15.29    1.06
 -15   1   9   15.91    0.95
  15   1  -9   14.57    1.03
  15   1  -9   15.59    1.01
  13  -1  -9   21.31    1.20
 -13  -1   9   22.40    1.21
  13  -1  -9   21.21    1.24
 -13  -1   9   21.90    1.25
 -13   1   9   21.25    1.21
 -13   1   9   21.44    1.07
  13   1  -9   21.60    1.19
 -13   1   9   21.46    1.22
 -13   1   9   23.12    1.20
  13   1  -9   22.90    1.27
 -11  -1   9   47.28    1.90
  11  -1  -9   45.30    1.85
  11  -1  -9   45.55    1.80
 -11  -1   9   47.51    1.84
 -11   1   9   44.64    1.61
 -11   1   9   45.76    1.83
 -11   1   9   44.89    1.75
  11   1  -9   45.14    1.77
 -11   1   9   46.34    1.81
  11   1  -9   43.44    1.84
   9  -1  -9   11.56    0.85
   9  -1  -9   11.54    0.84
  -9  -1   9   11.66    0.86
  -9  -1   9   12.14    0.85
  -9   1   9   11.06    0.81
   9   1  -9   11.42    0.87
  -9   1   9   10.19    0.79
   9   1  -9   12.59    0.86
  -9   1   9   11.20    0.79
  -9   1   9   12.72    0.74
  -7  -1   9   36.26    1.59
   7  -1  -9   40.32    1.58
   7  -1  -9   40.43    1.63
  -7  -1   9   39.06    1.58
  -7  -1   9   38.60    1.46
  -7  -1   9   38.00    1.53
  -7   1   9   37.45    1.36
  -7   1   9   36.99    1.54
   7   1  -9   36.21    1.59
  -7   1   9   36.79    1.53
   7   1  -9   39.95    1.57
  -7   1   9   41.33    1.58
  -5  -1   9   79.63    2.61
   5  -1  -9   79.30    2.59
   5  -1  -9   82.44    2.53
  -5  -1   9   86.04    2.62
  -5  -1   9   82.39    2.53
  -5  -1   9   82.69    2.42
  -5   1   9   81.52    2.27
   5   1  -9   84.16    2.58
   5   1  -9   88.12    2.45
  -5   1   9   82.16    2.57
  -5   1   9   82.36    2.50
   5   1  -9   77.81    2.63
  -5   1   9   80.74    2.53
  -3  -1   9   28.45    1.27
  -3  -1   9   30.87    1.23
   3  -1  -9   27.99    1.30
  -3  -1   9   31.28    1.34
   3  -1  -9   30.24    1.28
  -3  -1   9   28.26    1.33
   3   1  -9   29.25    1.37
  -3   1   9   29.97    1.30
  -3   1   9   30.67    1.26
   3   1  -9   30.41    1.31
   3   1  -9   30.99    1.24
  -3   1   9   28.09    1.06
  -3   1   9   28.24    1.25
  -1  -1   9   19.16    1.05
  -1  -1   9   18.31    1.00
  -1  -1   9   17.62    0.97
   1  -1  -9   21.67    1.01
   1  -1  -9   16.65    0.97
  -1  -1   9   18.25    0.91
  -1   1   9   19.17    1.03
  -1   1   9   18.74    0.95
   1   1  -9   18.12    0.99
   1   1  -9   19.49    1.06
   1   1  -9   18.71    0.95
  -1   1   9   19.19    1.00
  -1   1   9   18.37    0.98
  -1  -1  -9   10.75    0.84
   1  -1   9   12.00    0.71
   1  -1   9   11.78    0.78
   1  -1   9   11.33    0.79
  -1  -1  -9   12.13    0.80
  -1  -1  -9   11.86    0.74
   1  -1   9   12.64    0.55
   1   1   9   11.62    0.77
   1   1   9   13.48    0.82
  -1   1  -9   11.32    0.77
   1   1   9   12.08    0.76
  -1   1  -9   11.13    0.83
   1   1   9   11.56    0.77
  -1   1  -9   12.43    0.76
  -3  -1  -9   18.83    1.00
  -3  -1  -9   19.73    0.99
   3  -1   9   19.78    1.04
   3   1   9   19.71    0.99
   3   1   9   21.39    1.13
   3   1   9   19.42    0.99
  -3   1  -9   18.04    1.00
   3   1   9   16.90    0.91
   3   1   9   18.35    0.99
  -3   1  -9   19.01    1.07
  -5  -1  -9    0.83    0.29
   5  -1   9    0.81    0.34
  -5  -1  -9    1.14    0.33
   5  -1   9    0.91    0.34
   5   1   9    0.92    0.32
   5   1   9    0.81    0.33
  -5   1  -9    0.86    0.32
   5   1   9    0.93    0.28
  -5   1  -9    0.54    0.29
   5   1   9    1.09    0.32
   7  -1   9   11.35    0.82
  -7  -1  -9   12.68    0.83
  -7  -1  -9   12.82    0.80
   7  -1   9   13.11    0.87
  -7   1  -9   12.56    0.89
   7   1   9   13.41    0.77
  -7   1  -9   11.54    0.82
   7   1   9   12.99    0.83
   7   1   9   11.82    0.79
   7   1   9   13.85    0.97
   9  -1   9    7.33    0.80
  -9  -1  -9    7.86    0.65
   9  -1   9    8.12    0.71
  -9  -1  -9    8.60    0.69
   9   1   9    7.05    0.81
   9   1   9    8.45    0.67
  -9   1  -9    8.79    0.71
  -9   1  -9    7.08    0.78
 -11  -1  -9   13.68    0.92
  11  -1   9   12.13    0.89
  11  -1   9   14.32    1.01
 -11  -1  -9   14.12    0.87
  11   1   9   13.05    0.98
  11   1   9   13.38    0.88
 -11   1  -9   13.57    0.91
 -11   1  -9   13.11    0.91
 -11   1  -9   12.67    0.94
  13  -1   9    0.92    0.37
  13  -1   9    1.42    0.43
 -13  -1  -9    0.82    0.31
 -13  -1  -9    1.04    0.36
 -13   1  -9    1.35    0.40
 -13   1  -9    0.62    0.34
 -13   1  -9    1.27    0.41
  13   1   9    1.05    0.39
  15  -1   9    1.27    0.44
  15  -1   9    1.88    0.47
 -15  -1  -9    1.03    0.33
 -15   1  -9    1.62    0.42
 -15   1  -9    1.75    0.43
 -15   1  -9    1.27    0.45
  15   1   9    0.97    0.43
  15   1   9    1.44    0.41
 -17  -1  -9    6.52    0.74
  17  -1   9    8.18    0.95
  17  -1   9    9.03    0.93
  17   1   9    8.59    0.91
  17   1   9    6.52    0.90
 -17   1  -9    8.05    0.95
 -17   1  -9    6.56    0.80
 -17   1  -9    7.51    0.81
 -19  -1  -9    0.00    0.27
  19  -1   9    0.43    0.41
 -19   1  -9    0.01    0.30
  19   1   9    0.01    0.29
 -19   1  -9    0.12    0.31
 -21  -1  -9    7.15    0.83
  21  -1   9    6.27    0.91
 -21   1  -9    6.74    0.86
  21   1   9    7.56    1.02
 -21   1  -9    6.96    0.96
 -23  -1  -9    5.56    0.79
 -23   1  -9    7.39    0.92
  24  -2  -9    0.20    0.35
 -24  -2   9   -0.25    0.35
  24   2  -9    0.40    0.27
 -24   2   9    0.04    0.38
  22  -2  -9   11.30    1.14
 -22  -2   9   13.02    1.09
  22   2  -9   11.51    0.79
 -22   2   9   12.38    1.05
 -20  -2   9    1.26    0.53
 -20  -2   9    1.86    0.53
  20  -2  -9    1.60    0.49
  20  -2  -9    1.91    0.53
  20   2  -9    2.32    0.41
 -20   2   9    1.18    0.50
 -20   2   9    1.82    0.44
  18  -2  -9   21.30    1.31
 -18  -2   9   23.75    1.37
 -18  -2   9   23.26    1.41
  18  -2  -9   21.72    1.35
 -18   2   9   23.85    1.33
  18   2  -9   21.05    1.06
 -18   2   9   22.77    1.18
 -16  -2   9    1.01    0.41
  16  -2  -9    0.91    0.38
 -16  -2   9    0.86    0.42
  16  -2  -9    1.00    0.42
 -16   2   9    1.30    0.42
 -16   2   9    1.06    0.43
 -16   2   9    0.65    0.30
 -16   2   9    0.52    0.39
  16   2  -9    0.96    0.37
  16   2  -9    0.59    0.33
  16   2  -9    0.78    0.30
 -14  -2   9    4.91    0.72
 -14  -2   9    5.88    0.74
  14  -2  -9    5.67    0.74
  14  -2  -9    5.20    0.69
 -14   2   9    4.71    0.68
  14   2  -9    4.91    0.67
  14   2  -9    5.76    0.62
  14   2  -9    4.51    0.66
 -14   2   9    6.22    0.75
 -14   2   9    4.61    0.55
 -14   2   9    4.18    0.64
 -12  -2   9   16.60    1.10
  12  -2  -9   17.58    1.06
  12  -2  -9   16.56    1.07
 -12  -2   9   18.15    1.10
  12   2  -9   18.84    1.09
  12   2  -9   19.30    0.97
  12   2  -9   19.83    1.15
 -12   2   9   18.69    1.05
 -12   2   9   19.18    1.12
 -12   2   9   18.00    0.91
 -12   2   9   18.92    1.12
  10  -2  -9   18.89    1.07
  10  -2  -9   18.33    1.11
 -10  -2   9   18.75    1.12
 -10  -2   9   17.66    1.06
 -10   2   9   17.46    1.04
  10   2  -9   18.74    1.10
 -10   2   9   16.59    0.84
  10   2  -9   17.20    1.02
 -10   2   9   18.97    1.02
 -10   2   9   19.21    1.11
  10   2  -9   16.99    0.91
  -8  -2   9    6.31    0.73
   8  -2  -9    7.80    0.78
   8  -2  -9    7.78    0.78
  -8  -2   9    7.92    0.79
   8   2  -9    7.29    0.76
   8   2  -9    6.24    0.73
  -8   2   9    8.72    0.71
  -8   2   9    7.38    0.52
  -8   2   9    8.97    0.68
   8   2  -9    7.38    0.60
  -8   2   9    6.95    0.71
  -6  -2   9    8.84    0.74
  -6  -2   9    6.25    0.71
   6  -2  -9    8.95    0.72
   6  -2  -9    7.43    0.73
   6   2  -9    6.58    0.64
  -6   2   9    7.47    0.48
  -6   2   9    7.57    0.65
  -6   2   9    6.59    0.68
  -6   2   9    7.31    0.63
   6   2  -9    8.62    0.69
   6   2  -9    7.38    0.77
   4  -2  -9    9.32    0.72
  -4  -2   9   10.09    0.79
  -4  -2   9    8.93    0.73
   4  -2  -9    8.98    0.69
  -4   2   9    9.25    0.69
  -4   2   9    9.62    0.74
   4   2  -9    9.60    0.67
  -4   2   9   10.23    0.52
   4   2  -9    9.98    0.76
  -4   2   9    9.92    0.69
   4   2  -9    8.79    0.74
   2  -2  -9   38.94    1.47
   2  -2  -9   39.07    1.54
  -2  -2   9   38.18    1.57
  -2  -2   9   35.73    1.57
  -2   2   9   39.10    1.51
   2   2  -9   36.20    1.59
   2   2  -9   40.79    1.58
  -2   2   9   39.19    1.48
  -2   2   9   36.14    1.51
   2   2  -9   40.28    1.46
  -2   2   9   39.10    1.43
  -2   2   9   34.91    1.44
   0  -2   9   53.30    1.77
   0  -2   9   52.88    1.87
   0  -2  -9   50.88    1.82
   0  -2   9   53.29    1.95
   0  -2   9   50.19    1.68
   0  -2  -9   50.99    1.76
   0   2   9   53.45    1.81
   0   2  -9   50.30    1.95
   0   2  -9   53.66    1.89
   0   2  -9   51.02    1.75
   0   2   9   53.33    1.82
   0   2   9   51.21    1.75
   0   2   9   51.14    1.89
  -2  -2  -9   53.34    1.87
  -2  -2  -9   51.63    1.78
   2  -2   9   52.62    1.95
   2  -2   9   56.45    1.91
   2  -2   9   53.52    1.79
   2  -2   9   52.63    1.67
  -2   2  -9   54.92    1.81
   2   2   9   53.04    1.82
   2   2   9   53.67    1.98
  -2   2  -9   54.46    1.93
  -2   2  -9   52.39    2.01
  -4  -2  -9   28.63    1.25
  -4  -2  -9   27.69    1.19
   4  -2   9   28.25    1.34
   4  -2   9   30.29    1.33
   4  -2   9   30.24    1.06
  -4   2  -9   29.22    1.35
   4   2   9   27.25    1.21
   4   2   9   27.84    1.35
  -4   2  -9   27.79    1.40
  -4   2  -9   29.80    1.34
  -4   2  -9   29.42    1.25
   6  -2   9   23.74    1.23
  -6  -2  -9   22.74    1.05
  -6  -2  -9   22.87    1.11
  -6   2  -9   23.02    1.25
   6   2   9   21.25    1.21
   6   2   9   22.77    1.08
  -6   2  -9   22.13    1.17
  -6   2  -9   22.31    1.10
  -8  -2  -9    0.41    0.26
   8  -2   9    0.80    0.33
  -8   2  -9    0.19    0.27
  -8   2  -9    0.44    0.31
   8   2   9    0.44    0.28
   8   2   9    0.20    0.26
  -8   2  -9    0.60    0.34
 -10  -2  -9    2.84    0.45
  10  -2   9    2.47    0.52
  10  -2   9    2.68    0.52
  10   2   9    2.17    0.49
 -10   2  -9    1.88    0.48
  10   2   9    2.17    0.42
 -10   2  -9    1.54    0.42
 -10   2  -9    2.11    0.49
  10   2   9    2.32    0.45
 -12  -2  -9    2.80    0.47
  12  -2   9    2.56    0.54
  12  -2   9    2.11    0.50
 -12   2  -9    2.02    0.50
  12   2   9    2.67    0.46
  12   2   9    2.33    0.46
  12   2   9    3.20    0.57
 -12   2  -9    2.39    0.53
 -12   2  -9    2.74    0.53
  14  -2   9    2.21    0.51
 -14  -2  -9    2.33    0.44
  14  -2   9    2.14    0.53
 -14   2  -9    1.98    0.51
  14   2   9    2.90    0.59
  14   2   9    2.57    0.51
 -14   2  -9    2.51    0.55
 -14   2  -9    0.86    0.36
 -16  -2  -9    2.23    0.46
  16  -2   9    3.52    0.63
  16  -2   9    2.80    0.62
 -16   2  -9    3.57    0.62
  16   2   9    3.06    0.54
  16   2   9    3.47    0.66
 -16   2  -9    3.87    0.64
 -16   2  -9    2.50    0.60
  18  -2   9    2.40    0.60
 -18  -2  -9    2.47    0.51
  18  -2   9    2.46    0.61
  18   2   9    2.15    0.41
  18   2   9    1.70    0.51
 -18   2  -9    1.53    0.45
 -18   2  -9    2.72    0.58
 -18   2  -9    2.04    0.57
  20  -2   9    4.44    0.76
  20  -2   9    5.04    0.78
 -20  -2  -9    4.08    0.62
 -20   2  -9    3.97    0.69
 -20   2  -9    3.22    0.66
 -22  -2  -9   11.94    0.94
  22  -2   9   12.60    1.12
 -22   2  -9   12.36    1.06
  21  -3  -9    0.18    0.35
 -21  -3   9    0.66    0.42
  21   3  -9    0.13    0.22
 -21   3   9    0.80    0.34
 -19  -3   9    2.10    0.55
  19  -3  -9    1.99    0.50
  19  -3  -9    1.74    0.52
  19   3  -9    1.52    0.32
 -19   3   9    1.20    0.35
  17  -3  -9    8.53    0.95
 -17  -3   9    8.71    0.94
  17  -3  -9   10.26    1.06
  17   3  -9    8.27    0.60
 -17   3   9   10.65    0.73
 -17   3   9   10.54    1.04
 -15  -3   9   14.24    1.04
 -15  -3   9   17.05    1.15
  15  -3  -9   15.67    1.05
  15  -3  -9   16.52    1.11
 -15   3   9   15.39    1.08
  15   3  -9   13.75    0.78
 -15   3   9   14.64    0.81
 -13  -3   9   14.30    1.03
 -13  -3   9   11.74    0.94
  13  -3  -9   13.77    0.97
  13  -3  -9   13.05    0.97
  13   3  -9   12.68    0.94
 -13   3   9   12.71    0.97
 -13   3   9   14.07    1.00
  13   3  -9   12.54    0.75
 -13   3   9   12.57    0.70
  11  -3  -9   17.52    1.04
  11  -3  -9   16.95    1.09
 -11  -3   9   18.19    1.16
 -11  -3   9   17.08    1.09
 -11   3   9   14.61    1.02
 -11   3   9   18.06    1.05
  11   3  -9   15.10    0.84
  11   3  -9   16.66    1.07
 -11   3   9   16.76    0.75
  11   3  -9   17.93    1.04
  -9  -3   9    1.52    0.44
   9  -3  -9    2.62    0.50
   9  -3  -9    2.54    0.49
  -9  -3   9    2.41    0.49
   9   3  -9    2.86    0.49
  -9   3   9    2.55    0.48
  -9   3   9    2.26    0.49
   9   3  -9    1.61    0.41
   9   3  -9    2.17    0.37
  -9   3   9    1.96    0.27
  -7  -3   9    0.55    0.36
   7  -3  -9    0.69    0.32
   7  -3  -9    1.22    0.36
  -7  -3   9    0.58    0.35
   7   3  -9    0.09    0.27
   7   3  -9    0.80    0.27
  -7   3   9    0.72    0.31
  -7   3   9    0.40    0.25
   7   3  -9    0.20    0.25
  -7   3   9    0.07    0.25
  -5  -3   9   32.69    1.53
   5  -3  -9   33.73    1.45
  -5  -3   9   33.41    1.51
   5  -3  -9   32.32    1.38
  -5   3   9   33.58    1.37
   5   3  -9   34.42    1.45
  -5   3   9   33.63    1.43
   5   3  -9   32.32    1.27
   5   3  -9   31.93    1.50
  -5   3   9   33.53    1.37
   3  -3  -9   46.04    1.69
  -3  -3   9   48.56    1.81
  -3  -3   9   46.16    1.88
  -3  -3   9   48.58    1.87
  -3   3   9   48.48    1.74
   3   3  -9   45.87    1.87
  -3   3   9   49.73    1.77
   3   3  -9   49.49    1.81
   3   3  -9   46.78    1.64
  -3   3   9   47.02    1.66
  -1  -3   9   64.93    2.12
   1  -3  -9   62.15    1.98
  -1  -3   9   61.81    2.21
  -1   3   9   60.15    2.09
   1   3  -9   60.02    2.10
  -1   3   9   58.90    2.00
  -1   3   9   60.42    1.91
   1   3  -9   58.97    1.94
   1   3  -9   59.73    2.22
   1  -3   9   40.05    1.53
  -1  -3  -9   38.22    1.44
   1  -3   9   41.75    1.71
  -1   3  -9   39.11    1.49
  -1   3  -9   38.30    1.60
   1   3   9   40.68    1.63
   1   3   9   38.21    1.49
  -1   3  -9   38.51    1.71
   3  -3   9    3.11    0.55
  -3  -3  -9    4.33    0.51
   3  -3   9    4.06    0.49
   3   3   9    3.20    0.47
  -3   3  -9    3.32    0.58
  -3   3  -9    3.43    0.58
  -3   3  -9    4.22    0.54
   3   3   9    3.89    0.47
   3   3   9    3.58    0.54
  -3   3  -9    3.28    0.53
   5  -3   9   44.45    1.58
   5  -3   9   43.25    1.80
  -5  -3  -9   44.64    1.55
  -5   3  -9   45.30    1.81
   5   3   9   42.11    1.56
   5   3   9   42.75    1.53
  -5   3  -9   44.01    1.65
  -5   3  -9   45.30    1.79
   5   3   9   42.68    1.78
  -5   3  -9   42.80    1.85
  -5   3  -9   42.69    1.89
   7  -3   9    5.44    0.71
  -7  -3  -9    4.80    0.55
   7   3   9    4.85    0.67
  -7   3  -9    5.61    0.74
  -7   3  -9    6.24    0.69
  -7   3  -9    5.12    0.67
   7   3   9    4.94    0.56
   7   3   9    5.27    0.59
  -7   3  -9    4.98    0.70
  -9  -3  -9    0.10    0.22
   9  -3   9   -0.04    0.29
   9   3   9    0.16    0.31
  -9   3  -9    0.44    0.28
  -9   3  -9    0.53    0.32
  -9   3  -9    0.27    0.30
   9   3   9    0.49    0.24
   9   3   9    0.09    0.26
  -9   3  -9    0.37    0.29
 -11  -3  -9    9.03    0.65
  11  -3   9    9.21    0.95
  11  -3   9    9.47    0.98
  11   3   9    8.32    0.71
 -11   3  -9   10.63    0.86
 -11   3  -9    9.01    0.97
 -11   3  -9    8.42    0.94
  11   3   9    8.48    0.67
  11   3   9    8.71    0.93
  13  -3   9    5.57    0.77
 -13  -3  -9    6.70    0.66
  13  -3   9    5.49    0.78
  13   3   9    5.05    0.61
 -13   3  -9    5.83    0.77
  13   3   9    6.11    0.72
 -13   3  -9    4.21    0.74
 -13   3  -9    5.37    0.78
  13   3   9    5.91    0.81
  15  -3   9   -0.04    0.34
  15  -3   9   -0.02    0.28
 -15  -3  -9    0.05    0.22
  15   3   9   -0.10    0.23
 -15   3  -9    0.28    0.33
 -15   3  -9    0.19    0.36
  15   3   9    0.19    0.33
 -15   3  -9   -0.05    0.34
 -17  -3  -9    2.19    0.45
  17  -3   9    3.03    0.66
  17  -3   9    2.62    0.61
 -17   3  -9    1.76    0.56
  17   3   9    2.71    0.61
 -17   3  -9    2.95    0.59
  19  -3   9    6.79    0.92
  19  -3   9    5.05    0.82
 -19  -3  -9    5.94    0.68
 -19   3  -9    4.69    0.79
 -19   3  -9    5.92    0.83
 -21  -3  -9    3.64    0.59
  21  -3   9    2.27    0.61
  21  -3   9    2.54    0.67
 -21   3  -9    2.75    0.62
  20  -4  -9    2.59    0.62
 -20  -4   9    2.54    0.60
 -18  -4   9    5.97    0.81
  18  -4  -9    5.11    0.77
 -18   4   9    6.58    0.52
 -18   4   9    5.42    0.86
  18   4  -9    5.00    0.31
 -16  -4   9    5.17    0.74
  16  -4  -9    4.56    0.70
 -16   4   9    3.87    0.40
 -16   4   9    4.27    0.71
  16   4  -9    4.21    0.38
  16   4  -9    5.22    0.39
  14  -4  -9   15.47    1.07
 -14  -4   9   15.29    1.09
  14   4  -9   14.75    0.69
 -14   4   9   17.42    1.15
 -14   4   9   14.78    0.59
  14   4  -9   15.94    0.72
 -12  -4   9    6.87    0.80
  12  -4  -9    7.54    0.83
  12   4  -9    5.95    0.46
  12   4  -9    5.83    0.47
 -12   4   9    5.03    0.67
 -12   4   9    5.85    0.76
  10  -4  -9   22.44    1.21
 -10  -4   9   24.63    1.32
  10   4  -9   22.03    0.95
 -10   4   9   27.57    1.28
 -10   4   9   23.31    1.27
  10   4  -9   22.96    0.97
  10   4  -9   24.18    1.30
  -8  -4   9   12.58    0.98
  -8  -4   9   14.59    1.02
   8  -4  -9   13.16    0.89
  -8   4   9   13.64    0.93
   8   4  -9   14.57    0.75
   8   4  -9   13.78    0.74
   8   4  -9   14.57    1.01
  -8   4   9   14.03    0.86
   6  -4  -9   37.79    1.52
  -6  -4   9   36.14    1.62
  -6  -4   9   38.16    1.73
  -6  -4   9   34.69    1.64
   6   4  -9   34.83    1.61
  -6   4   9   34.42    1.50
  -6   4   9   35.87    1.41
   6   4  -9   34.30    1.30
   6   4  -9   36.28    1.32
   4  -4  -9    0.08    0.24
  -4  -4   9    0.11    0.29
  -4  -4   9    0.01    0.24
  -4   4   9   -0.32    0.20
  -4   4   9    0.22    0.24
   4   4  -9   -0.39    0.13
   4   4  -9   -0.34    0.18
  -2  -4   9   24.11    1.30
  -2  -4   9   25.38    1.32
   2  -4  -9   24.13    1.12
   2   4  -9   22.91    1.06
  -2   4   9   25.44    1.19
  -2   4   9   25.42    1.04
   2   4  -9   26.98    1.39
   2   4  -9   25.66    1.26
  -2   4   9   25.37    1.16
   0  -4   9    1.38    0.43
   0  -4   9    2.08    0.44
   0  -4  -9    2.68    0.43
   0   4  -9    2.40    0.49
   0   4  -9    2.50    0.52
   0   4  -9    1.37    0.33
   0   4   9    1.86    0.40
   0   4   9    1.90    0.43
   0   4  -9    2.36    0.52
   2  -4   9   14.68    1.00
   2  -4   9   13.91    0.93
  -2  -4  -9   14.93    0.80
  -2   4  -9   13.77    1.00
  -2   4  -9   12.39    0.88
   2   4   9   12.71    0.88
   2   4   9   14.72    0.84
  -2   4  -9   14.55    1.04
  -2   4  -9   12.94    1.01
  -2   4  -9   15.09    0.86
  -4  -4  -9   13.36    0.76
   4  -4   9   13.04    0.99
   4  -4   9   14.31    0.92
  -4   4  -9   15.03    1.09
  -4   4  -9   15.13    0.97
  -4   4  -9   13.57    0.85
   4   4   9   12.67    0.79
  -4   4  -9   14.58    1.03
   4   4   9   14.94    0.97
  -4   4  -9   17.30    1.10
  -6  -4  -9   13.20    0.72
   6  -4   9   11.30    0.91
   6   4   9   11.81    0.75
  -6   4  -9   11.13    0.94
  -6   4  -9    9.80    0.99
  -6   4  -9   11.91    0.81
  -6   4  -9   11.85    0.89
  -6   4  -9   11.73    0.98
   6   4   9   10.87    0.87
   8  -4   9    0.35    0.38
  -8  -4  -9    0.67    0.28
  -8   4  -9    0.84    0.32
   8   4   9    0.38    0.28
   8   4   9    0.73    0.27
  -8   4  -9    1.19    0.42
  -8   4  -9    1.11    0.44
   8   4   9    0.99    0.38
  -8   4  -9    0.43    0.36
  10  -4   9    0.70    0.37
 -10  -4  -9    0.72    0.27
 -10   4  -9    0.30    0.30
 -10   4  -9    0.55    0.39
  10   4   9    0.20    0.33
  10   4   9    0.61    0.29
  10   4   9    0.70    0.29
 -10   4  -9    0.32    0.28
  12  -4   9    1.37    0.50
 -12  -4  -9    1.60    0.34
  12  -4   9    2.13    0.53
 -12   4  -9    0.83    0.46
 -12   4  -9    1.57    0.41
  12   4   9    1.72    0.39
  12   4   9    1.89    0.43
 -12   4  -9    1.49    0.48
  12   4   9    1.80    0.50
  14  -4   9    2.96    0.62
  14  -4   9    3.47    0.70
 -14  -4  -9    3.09    0.46
 -14   4  -9    3.42    0.72
  14   4   9    3.11    0.65
 -14   4  -9    3.36    0.65
  14   4   9    2.89    0.48
  14   4   9    3.33    0.56
  16  -4   9    0.44    0.40
  16  -4   9    0.92    0.45
 -16  -4  -9    0.82    0.31
  16   4   9    0.61    0.39
 -16   4  -9    0.85    0.43
  18  -4   9    1.36    0.51
  18  -4   9    1.86    0.57
 -18  -4  -9    1.27    0.39
 -18   4  -9    1.95    0.55
  15  -5  -9   12.27    1.00
 -15  -5   9   14.21    1.08
 -15   5   9   13.09    1.09
 -13  -5   9   34.88    1.70
  13  -5  -9   35.63    1.67
 -13   5   9   35.74    1.74
 -11  -5   9    4.24    0.69
  11  -5  -9    3.58    0.60
 -11   5   9    3.67    0.65
   9  -5  -9    0.66    0.34
  -9  -5   9    0.40    0.36
  -9  -5   9    0.34    0.32
  -9   5   9    0.66    0.31
  -9   5   9    1.11    0.45
  -7  -5   9    5.23    0.72
  -7  -5   9    4.21    0.71
   7  -5  -9    4.75    0.63
   7   5  -9    4.58    0.32
  -7   5   9    4.79    0.67
  -7   5   9    5.22    0.57
   7   5  -9    4.85    0.32
  -5  -5   9   10.75    0.89
   5  -5  -9   11.27    0.78
  -5  -5   9    9.62    1.03
   5   5  -9    9.17    0.52
  -5   5   9    9.53    0.63
  -5   5   9   10.24    0.80
   5   5  -9    9.35    1.01
   5   5  -9    9.34    0.52
  -3  -5   9   39.08    1.86
   3  -5  -9   39.33    1.50
  -3  -5   9   37.08    1.73
   3   5  -9   38.37    1.26
   3   5  -9   36.98    1.83
  -3   5   9   38.30    1.54
   3   5  -9   35.92    1.24
   3   5  -9   39.33    1.96
  -1  -5   9   29.92    1.57
   1  -5  -9   28.85    1.23
  -1  -5   9   31.49    1.55
   1   5  -9   30.70    1.67
   1   5  -9   30.45    1.63
  -1   5   9   28.83    1.30
   1   5  -9   31.12    1.15
   1  -5   9    2.89    0.58
   1  -5   9    3.72    0.64
  -1  -5  -9    2.69    0.42
   1   5   9    3.46    0.50
  -1   5  -9    3.27    0.63
  -1   5  -9    3.09    0.64
  -1   5  -9    2.42    0.57
  -1   5  -9    3.69    0.46
  -3  -5  -9    4.67    0.52
   3  -5   9    5.63    0.73
   3  -5   9    4.72    0.73
  -3   5  -9    5.94    0.81
  -3   5  -9    5.55    0.57
   3   5   9    4.74    0.54
  -3   5  -9    4.97    0.76
  -3   5  -9    3.22    0.65
   5  -5   9    5.73    0.78
  -5  -5  -9    4.91    0.52
   5  -5   9    5.18    0.69
   5   5   9    4.23    0.52
   5   5   9    5.90    0.74
  -5   5  -9    4.00    0.52
  -5   5  -9    3.85    0.72
  -5   5  -9    5.07    0.78
  -7  -5  -9    8.25    0.58
   7  -5   9    8.08    0.93
   7   5   9    8.79    0.63
   7   5   9    9.41    0.96
  -7   5  -9    7.24    0.72
  -9  -5  -9    4.00    0.46
   9  -5   9    3.96    0.71
   9   5   9    4.03    0.51
   9   5   9    3.74    0.65
  -9   5  -9    3.21    0.51
 -11  -5  -9    3.64    0.45
  11  -5   9    3.90    0.71
 -11   5  -9    2.47    0.48
  11   5   9    1.92    0.53
  11   5   9    3.05    0.47
 -13  -5  -9    4.10    0.48
  13  -5   9    3.49    0.69
 -13   5  -9    3.33    0.55
  13   5   9    3.07    0.66
  13   5   9    4.40    0.53
  15  -5   9    4.92    0.83
 -15   5  -9    4.27    0.65
 -10  -6   9    2.15    0.56
  10  -6  -9    4.34    0.66
  10   6  -9    3.07    0.81
 -10   6   9    3.03    0.61
  -8  -6   9   14.67    1.09
   8  -6  -9   14.58    0.98
   8   6  -9   12.48    1.42
  -8   6   9   15.69    1.07
  -6  -6   9    8.13    0.93
   6  -6  -9    7.03    0.75
   6   6  -9    6.09    0.99
  -6   6   9    7.77    0.82
  -4  -6   9    0.36    0.36
  -4  -6   9   -0.01    0.32
   4  -6  -9    0.15    0.26
   4   6  -9    0.27    0.40
  -4   6   9    0.07    0.30
  -2  -6   9    2.10    0.56
   2  -6  -9    3.43    0.49
  -2  -6   9    2.95    0.62
  -2   6   9    2.52    0.47
   2   6  -9    3.84    0.77
   0  -6  -9    7.55    0.60
   0  -6   9    9.74    1.03
   0  -6   9    8.34    0.99
   0   6  -9    7.03    0.92
   0   6  -9    8.01    1.05
   0   6   9    6.96    0.70
   2  -6   9   12.67    1.04
  -2  -6  -9   12.17    0.71
   2  -6   9   11.26    1.03
  -2   6  -9   12.16    1.19
  -2   6  -9   12.11    1.13
  -2   6  -9   11.76    0.53
  -2   6  -9   10.80    0.52
   2   6   9   11.75    0.76
   4  -6   9    0.80    0.42
   4  -6   9    0.55    0.44
   4   6   9    0.26    0.27
  -4   6  -9    0.21    0.19
  -4   6  -9    0.76    0.24
  -4   6  -9    0.33    0.40
   6  -6   9   -0.27    0.33
   6   6   9    0.20    0.25
  -6   6  -9   -0.03    0.18
  -6   6  -9    0.25    0.22
   8  -6   9    1.99    0.61
  -8   6  -9    1.85    0.37
   8   6   9    1.40    0.34
 -22   0  10    0.90    0.48
  22   0 -10    1.14    0.48
  20   0 -10    1.21    0.47
 -20   0  10    1.11    0.47
  18   0 -10   32.87    1.65
 -18   0  10   33.12    1.66
  16   0 -10    2.14    0.52
 -16   0  10    1.89    0.52
 -16   0  10    2.63    0.61
  16   0 -10    2.03    0.53
 -14   0  10   22.56    1.27
 -14   0  10   19.66    1.25
  14   0 -10   21.33    1.28
  14   0 -10   20.23    1.23
 -12   0  10    0.34    0.31
 -12   0  10    0.11    0.32
 -12   0  10    0.61    0.31
  12   0 -10   -0.06    0.23
  12   0 -10    0.31    0.31
 -10   0  10   54.88    1.91
  10   0 -10   55.56    2.17
 -10   0  10   53.50    2.12
  10   0 -10   55.85    2.08
 -10   0  10   58.33    2.12
   8   0 -10    0.15    0.26
  -8   0  10    0.10    0.23
   8   0 -10    0.02    0.23
  -8   0  10    0.73    0.34
  -8   0  10    0.40    0.30
  -8   0  10    0.14    0.30
  -6   0  10   36.10    1.52
  -6   0  10   35.51    1.52
  -6   0  10   31.76    1.32
  -6   0  10   33.46    1.54
   6   0 -10   36.05    1.53
   6   0 -10   32.26    1.52
   4   0 -10    6.71    0.74
  -4   0  10    7.32    0.74
  -4   0  10    7.84    0.79
   4   0 -10    4.62    0.64
  -4   0  10    8.25    0.70
  -4   0  10    6.16    0.61
  -2   0  10   17.98    1.03
   2   0 -10   17.01    1.05
  -2   0  10   19.63    0.92
  -2   0  10   17.35    1.04
  -2   0  10   18.21    1.03
   2   0 -10   18.87    1.05
   0   0  10   11.62    0.69
   0   0  10   11.07    0.78
   0   0 -10    9.80    0.79
   0   0  10   11.66    0.83
   0   0 -10   10.94    0.79
   2   0  10    5.76    0.66
   2   0  10    6.43    0.69
  -2   0 -10    6.93    0.73
  -2   0 -10    6.13    0.70
  -4   0 -10    5.10    0.66
  -4   0 -10    5.43    0.64
   4   0  10    4.87    0.61
   4   0  10    5.52    0.66
  -6   0 -10   11.76    0.87
  -6   0 -10   12.05    0.83
   6   0  10   10.76    0.82
   6   0  10   10.20    0.86
   6   0  10   11.79    0.84
  -8   0 -10    9.62    0.76
  -8   0 -10   10.55    0.83
   8   0  10   10.06    0.78
   8   0  10   10.46    0.79
   8   0  10    8.30    0.91
  10   0  10    6.39    0.82
 -10   0 -10    7.91    0.80
  10   0  10    6.26    0.73
  10   0  10    6.56    0.75
 -10   0 -10    6.90    0.81
  12   0  10    8.32    0.94
 -12   0 -10    9.57    0.96
 -12   0 -10    7.42    0.80
 -12   0 -10    8.60    0.73
  14   0  10   78.62    2.95
 -14   0 -10   76.38    2.75
 -14   0 -10   77.94    2.66
 -14   0 -10   79.14    2.59
  16   0  10   23.65    1.49
 -16   0 -10   22.03    1.28
 -18   0 -10   13.79    1.01
  18   0  10   13.38    1.14
 -20   0 -10   19.64    1.26
 -22   0 -10    7.39    0.91
 -23  -1  10    4.22    0.77
  23  -1 -10    2.56    0.63
 -23   1  10    4.69    0.82
 -21  -1  10    3.69    0.71
  21  -1 -10    4.21    0.72
  21   1 -10    3.48    0.68
 -21   1  10    3.90    0.73
  19  -1 -10    2.05    0.53
 -19  -1  10    2.75    0.61
 -19   1  10    2.19    0.54
  19   1 -10    2.01    0.52
 -17  -1  10    1.56    0.54
 -17  -1  10    2.24    0.54
  17  -1 -10    2.89    0.59
  17  -1 -10    1.30    0.50
  17   1 -10    1.75    0.48
 -17   1  10    2.10    0.48
 -17   1  10    3.23    0.62
 -15  -1  10    0.72    0.40
  15  -1 -10    0.99    0.41
  15  -1 -10    1.01    0.38
 -15  -1  10    1.18    0.44
  15   1 -10    0.39    0.31
  15   1 -10    0.90    0.38
 -15   1  10    0.82    0.44
 -15   1  10    1.54    0.41
 -15   1  10    1.07    0.42
 -13  -1  10   19.09    1.19
 -13  -1  10   17.53    1.17
  13  -1 -10   20.24    1.19
  13  -1 -10   19.15    1.21
  13   1 -10   19.06    1.16
 -13   1  10   19.07    1.15
 -13   1  10   18.83    1.03
  13   1 -10   19.72    1.23
 -13   1  10   18.67    1.18
 -11  -1  10    2.51    0.54
  11  -1 -10    3.90    0.63
  11  -1 -10    3.58    0.58
 -11  -1  10    3.99    0.62
  11   1 -10    3.96    0.62
 -11   1  10    4.08    0.62
  11   1 -10    4.03    0.65
 -11   1  10    4.26    0.61
 -11   1  10    3.97    0.62
 -11   1  10    3.84    0.53
   9  -1 -10    2.04    0.45
   9  -1 -10    2.47    0.50
  -9  -1  10    2.27    0.50
  -9  -1  10    3.20    0.57
  -9   1  10    2.10    0.39
   9   1 -10    1.72    0.45
  -9   1  10    1.47    0.44
  -9   1  10    2.15    0.47
   9   1 -10    2.16    0.50
  -9   1  10    1.65    0.43
  -7  -1  10    8.44    0.68
  -7  -1  10    7.14    0.78
   7  -1 -10    8.05    0.85
  -7  -1  10    7.72    0.83
   7  -1 -10    8.41    0.71
  -7   1  10    8.02    0.69
  -7   1  10    6.40    0.74
   7   1 -10    7.19    0.77
  -7   1  10    7.73    0.59
   7   1 -10    8.13    0.86
  -7   1  10    7.38    0.76
  -5  -1  10   24.41    1.14
  -5  -1  10   25.83    1.27
  -5  -1  10   25.11    1.30
   5  -1 -10   24.94    1.22
   5  -1 -10   23.52    1.26
   5   1 -10   24.46    1.31
   5   1 -10   25.87    1.26
  -5   1  10   22.81    1.16
  -5   1  10   24.28    1.22
  -5   1  10   24.60    1.04
  -5   1  10   21.73    1.18
  -3  -1  10   12.96    0.90
   3  -1 -10   11.49    0.82
  -3  -1  10   11.39    0.75
  -3  -1  10   12.62    0.85
  -3  -1  10   11.61    0.89
   3  -1 -10   11.36    0.84
   3   1 -10   12.73    0.87
  -3   1  10   11.03    0.78
  -3   1  10   12.98    0.86
  -3   1  10   12.30    0.86
  -3   1  10   11.31    0.66
   3   1 -10   13.00    0.91
  -1  -1  10   26.29    1.31
   1  -1 -10   29.10    1.37
  -1  -1  10   28.99    1.39
  -1  -1  10   29.09    1.23
   1  -1 -10   29.01    1.30
   1   1 -10   28.24    1.40
  -1   1  10   29.38    1.29
  -1   1  10   29.85    1.34
  -1   1  10   29.41    1.33
   1   1 -10   29.30    1.35
   1  -1  10    0.93    0.35
  -1  -1 -10    1.38    0.36
   1  -1  10    0.74    0.33
  -1  -1 -10    0.88    0.32
   1  -1  10    1.48    0.34
   1   1  10    1.29    0.38
   1   1  10    1.55    0.39
  -1   1 -10    1.46    0.41
  -1   1 -10    1.36    0.37
   1   1  10    0.71    0.31
  -3  -1 -10    3.67    0.55
   3  -1  10    4.34    0.59
   3  -1  10    3.60    0.56
  -3  -1 -10    4.41    0.57
   3   1  10    3.58    0.57
  -3   1 -10    3.58    0.55
   3   1  10    4.54    0.57
   3   1  10    3.59    0.56
  -3   1 -10    3.99    0.61
  -5  -1 -10    8.01    0.80
  -5  -1 -10    7.27    0.73
   5  -1  10    7.64    0.81
   5  -1  10    8.42    0.82
   5   1  10    7.24    0.75
  -5   1 -10    8.16    0.71
   5   1  10    7.54    0.83
  -5   1 -10    9.73    0.83
  -7  -1 -10   92.57    2.89
  -7  -1 -10   87.55    2.75
   7  -1  10   91.28    3.07
   7  -1  10   90.33    2.84
   7  -1  10   91.25    2.88
  -7   1 -10   89.70    2.98
   7   1  10   89.96    3.07
   7   1  10   93.28    2.81
  -7   1 -10   88.75    2.84
   9  -1  10   16.87    1.04
   9  -1  10   16.21    1.13
  -9  -1 -10   16.73    0.97
  -9  -1 -10   15.82    1.02
   9   1  10   16.48    1.01
  -9   1 -10   14.69    0.98
  -9   1 -10   15.38    1.09
   9   1  10   16.62    1.13
  11  -1  10    5.24    0.70
  11  -1  10    4.22    0.70
 -11  -1 -10    3.65    0.56
  11   1  10    4.16    0.68
 -11   1 -10    3.80    0.64
 -11   1 -10    4.20    0.63
  11   1  10    4.76    0.63
 -11   1 -10    5.01    0.67
  13  -1  10    4.30    0.71
  13  -1  10    2.60    0.55
 -13  -1 -10    3.88    0.60
  13   1  10    2.03    0.52
 -13   1 -10    2.97    0.54
 -13   1 -10    3.09    0.56
 -13   1 -10    3.04    0.60
 -15  -1 -10    7.92    0.83
  15  -1  10    9.01    0.94
  15  -1  10    8.61    0.99
 -15   1 -10    9.11    0.91
  15   1  10    9.51    1.05
 -15   1 -10    9.09    1.00
 -15   1 -10    9.61    0.96
  15   1  10   10.13    1.00
  17  -1  10   12.44    1.09
 -17  -1 -10    9.92    0.83
 -17   1 -10   11.99    1.18
  17   1  10    8.91    1.07
 -17   1 -10    9.37    0.99
  19  -1  10   18.29    1.36
 -19  -1 -10   18.42    1.18
 -19   1 -10   19.01    1.36
 -19   1 -10   17.84    1.24
 -21  -1 -10   14.52    1.08
 -21   1 -10   15.97    1.19
 -22  -2  10    2.41    0.63
  22  -2 -10    3.09    0.63
  22   2 -10    2.48    0.46
 -20  -2  10    6.73    0.89
  20  -2 -10    5.81    0.84
 -20   2  10    6.13    0.72
  20   2 -10    6.09    0.68
  18  -2 -10   11.31    1.01
 -18  -2  10   15.85    1.19
 -18  -2  10   13.61    1.09
  18  -2 -10   14.62    1.14
 -18   2  10   14.85    0.95
  18   2 -10   15.29    0.93
 -18   2  10   16.74    1.18
  16  -2 -10    2.41    0.56
  16  -2 -10    2.83    0.58
 -16  -2  10    2.61    0.62
 -16  -2  10    2.12    0.53
 -16   2  10    3.68    0.64
 -16   2  10    2.09    0.43
  16   2 -10    2.49    0.46
  16   2 -10    3.21    0.59
 -14  -2  10    6.58    0.86
  14  -2 -10    8.32    0.91
  14  -2 -10    7.12    0.86
 -14  -2  10    7.30    0.84
  14   2 -10    8.36    0.89
 -14   2  10    7.51    0.63
  14   2 -10    7.71    0.75
 -14   2  10    7.34    0.83
 -14   2  10    6.64    0.84
  12  -2 -10    8.73    0.93
 -12  -2  10    8.05    0.90
  12  -2 -10    7.88    0.85
 -12  -2  10    7.27    0.83
 -12   2  10    7.71    0.87
  12   2 -10    8.04    0.76
 -12   2  10    7.83    0.83
 -12   2  10    7.79    0.62
 -12   2  10    9.29    0.78
  12   2 -10    7.73    0.84
  12   2 -10    8.31    0.91
  10  -2 -10    1.00    0.35
 -10  -2  10    0.64    0.36
  10  -2 -10    0.97    0.36
 -10  -2  10    0.81    0.38
 -10   2  10    1.43    0.41
  10   2 -10    1.14    0.40
 -10   2  10    1.73    0.46
  10   2 -10    1.25    0.41
 -10   2  10    1.58    0.45
  10   2 -10    0.81    0.31
 -10   2  10    1.26    0.30
   8  -2 -10    0.79    0.33
   8  -2 -10    0.29    0.25
  -8  -2  10    1.75    0.45
  -8  -2  10    0.43    0.34
   8   2 -10    1.09    0.38
   8   2 -10    1.09    0.35
  -8   2  10    1.13    0.36
   8   2 -10    1.25    0.34
  -8   2  10    0.61    0.33
  -8   2  10    0.94    0.26
  -8   2  10    1.17    0.38
  -6  -2  10    1.83    0.46
   6  -2 -10    0.99    0.38
  -6  -2  10    2.30    0.53
   6  -2 -10    0.98    0.36
   6   2 -10    1.03    0.30
  -6   2  10    1.42    0.39
   6   2 -10    1.28    0.39
  -6   2  10    0.73    0.35
  -6   2  10    1.75    0.30
   6   2 -10    1.12    0.37
   4  -2 -10    8.74    0.71
   4  -2 -10    7.65    0.79
  -4  -2  10    7.31    0.79
  -4  -2  10    7.94    0.86
   4   2 -10    7.56    0.84
  -4   2  10    7.30    0.72
   4   2 -10    8.52    0.84
   4   2 -10    7.85    0.64
  -4   2  10    8.72    0.74
   2  -2 -10    6.51    0.72
   2  -2 -10    7.05    0.71
  -2  -2  10    6.32    0.55
  -2  -2  10    6.74    0.77
  -2  -2  10    8.23    0.85
  -2   2  10    7.33    0.76
   2   2 -10    8.09    0.81
   2   2 -10    6.75    0.69
   2   2 -10    5.93    0.76
  -2   2  10    7.36    0.73
  -2   2  10    8.61    0.67
   0  -2 -10   14.88    0.89
   0  -2 -10   12.97    0.90
   0  -2  10   13.92    0.97
   0   2  10   13.98    0.89
   0   2 -10   14.77    0.95
   0   2 -10   12.34    0.93
   0   2  10   15.45    0.98
   0   2 -10   13.82    0.86
  -2  -2 -10   60.74    2.07
  -2  -2 -10   55.37    1.96
   2  -2  10   57.41    2.14
  -2   2 -10   59.37    2.12
   2   2  10   55.43    1.99
  -2   2 -10   56.30    2.20
   2   2  10   59.71    2.20
   4  -2  10   27.46    1.39
  -4  -2 -10   27.34    1.23
   4   2  10   27.78    1.28
  -4   2 -10   28.65    1.37
   4   2  10   27.32    1.40
  -4   2 -10   25.61    1.41
  -6  -2 -10    7.22    0.63
   6  -2  10    6.90    0.79
  -6   2 -10    6.62    0.76
  -6   2 -10    7.38    0.84
   6   2  10    6.90    0.80
   6   2  10    6.63    0.69
  -8  -2 -10    0.77    0.31
   8  -2  10    0.81    0.38
  -8   2 -10    0.37    0.31
  -8   2 -10    0.59    0.37
   8   2  10    1.37    0.38
   8   2  10    0.49    0.32
  -8   2 -10    1.09    0.40
  10  -2  10    1.34    0.45
  10  -2  10    1.48    0.46
 -10  -2 -10    1.36    0.37
 -10   2 -10    1.10    0.41
  10   2  10    1.30    0.36
  10   2  10    1.21    0.41
 -10   2 -10    0.58    0.34
  10   2  10    0.80    0.35
 -10   2 -10    1.49    0.46
  12  -2  10    7.74    0.89
  12  -2  10    6.56    0.85
 -12  -2 -10    6.84    0.73
  12   2  10    6.49    0.73
 -12   2 -10    7.20    0.90
 -12   2 -10    8.41    0.91
  12   2  10    7.12    0.88
 -12   2 -10    8.09    0.90
  12   2  10    6.52    0.74
 -14  -2 -10    1.63    0.40
  14  -2  10    2.51    0.59
  14  -2  10    1.83    0.54
  14   2  10    2.54    0.50
 -14   2 -10    1.63    0.49
  14   2  10    2.15    0.53
 -14   2 -10    2.36    0.56
 -14   2 -10    2.66    0.60
  16  -2  10   20.16    1.38
  16  -2  10   24.36    1.39
 -16  -2 -10   18.52    1.10
 -16   2 -10   20.08    1.28
  16   2  10   20.51    1.39
 -16   2 -10   21.86    1.43
 -16   2 -10   18.93    1.26
 -18  -2 -10   17.23    1.08
  18  -2  10   17.93    1.24
  18  -2  10   19.44    1.38
 -18   2 -10   17.49    1.23
 -18   2 -10   17.95    1.21
 -20  -2 -10    0.34    0.33
 -20   2 -10    0.27    0.38
 -19  -3  10    7.57    0.93
  19  -3 -10    9.49    1.04
  19   3 -10    8.43    0.65
 -19   3  10    8.72    0.72
 -17  -3  10    2.95    0.61
  17  -3 -10    4.87    0.73
 -17   3  10    4.65    0.55
  17   3 -10    3.66    0.49
 -15  -3  10    4.23    0.72
 -15  -3  10    5.57    0.79
  15  -3 -10    5.49    0.74
 -15   3  10    4.33    0.71
 -15   3  10    4.69    0.53
  15   3 -10    4.55    0.55
 -13  -3  10    1.48    0.53
 -13  -3  10    3.01    0.62
  13  -3 -10    2.92    0.57
 -13   3  10    2.21    0.55
 -13   3  10    2.95    0.40
  13   3 -10    2.95    0.46
 -11  -3  10    2.87    0.57
 -11  -3  10    3.53    0.64
  11  -3 -10    4.23    0.63
 -11   3  10    3.46    0.39
  11   3 -10    4.33    0.54
 -11   3  10    4.32    0.65
 -11   3  10    3.88    0.63
  11   3 -10    3.08    0.57
  -9  -3  10    3.17    0.60
   9  -3 -10    2.09    0.47
  -9  -3  10    2.00    0.47
  -9   3  10    2.12    0.46
  -9   3  10    2.78    0.54
   9   3 -10    2.44    0.51
  -9   3  10    2.11    0.27
   9   3 -10    1.82    0.38
   9   3 -10    1.94    0.50
  -7  -3  10    1.41    0.45
   7  -3 -10    0.17    0.29
  -7  -3  10    0.61    0.38
  -7   3  10    0.78    0.33
   7   3 -10    1.11    0.36
  -7   3  10    1.09    0.41
   7   3 -10    1.21    0.33
   7   3 -10    0.22    0.27
  -7   3  10    0.86    0.35
  -5  -3  10    3.86    0.68
   5  -3 -10    4.12    0.58
  -5  -3  10    5.45    0.72
  -5   3  10    4.68    0.61
   5   3 -10    4.56    0.56
   5   3 -10    4.12    0.61
  -5   3  10    4.86    0.61
   5   3 -10    3.42    0.58
  -5   3  10    3.95    0.54
  -3  -3  10    4.68    0.68
  -3  -3  10    4.33    0.58
   3  -3 -10    5.20    0.62
  -3   3  10    4.75    0.62
   3   3 -10    4.77    0.68
  -3   3  10    4.01    0.53
   3   3 -10    4.62    0.57
   3   3 -10    4.71    0.64
  -3   3  10    5.17    0.64
  -1  -3  10    4.50    0.67
   1  -3 -10    4.67    0.59
   1   3 -10    4.98    0.65
   1   3 -10    4.74    0.70
  -1   3  10    3.76    0.56
  -1   3  10    6.18    0.70
   1   3 -10    3.67    0.52
   1  -3  10    5.91    0.75
  -1  -3 -10    5.95    0.64
  -1   3 -10    6.87    0.78
   1   3  10    6.52    0.75
  -1   3 -10    6.54    0.82
   1   3  10    5.92    0.66
  -1   3 -10    6.56    0.69
  -3  -3 -10    1.97    0.41
   3  -3  10    1.98    0.48
  -3   3 -10    2.83    0.52
  -3   3 -10    2.05    0.49
   3   3  10    1.88    0.45
   3   3  10    1.68    0.35
   3   3  10    1.88    0.45
  -3   3 -10    2.07    0.43
  -5  -3 -10    4.48    0.55
   5  -3  10    3.79    0.63
   5   3  10    3.63    0.52
  -5   3 -10    3.70    0.63
  -5   3 -10    3.93    0.62
  -5   3 -10    3.33    0.61
   5   3  10    4.33    0.54
  -5   3 -10    4.28    0.61
   5   3  10    4.83    0.68
  -7  -3 -10    0.58    0.26
   7  -3  10    0.29    0.35
  -7   3 -10    0.42    0.35
  -7   3 -10   -0.01    0.27
   7   3  10    0.18    0.27
   7   3  10    0.28    0.24
   7   3  10   -0.04    0.25
  -7   3 -10    0.42    0.35
  -9  -3 -10   16.77    0.96
   9  -3  10   19.64    1.22
   9   3  10   17.62    1.18
   9   3  10   18.43    1.03
  -9   3 -10   20.35    1.28
  -9   3 -10   18.07    1.14
   9   3  10   18.18    1.02
  -9   3 -10   17.28    1.21
  11  -3  10   10.84    1.08
 -11  -3 -10   11.54    0.78
  11  -3  10   10.10    1.05
  11   3  10   10.16    1.06
 -11   3 -10   12.10    1.02
  11   3  10    9.17    0.75
 -11   3 -10   10.75    1.10
 -11   3 -10    8.72    0.94
  11   3  10   10.77    0.81
  13  -3  10    0.58    0.43
  13  -3  10    0.48    0.40
 -13  -3 -10    0.08    0.27
 -13   3 -10    0.75    0.39
 -13   3 -10    0.00    0.35
  13   3  10    0.68    0.42
  13   3  10    0.78    0.35
  13   3  10    0.12    0.32
 -15  -3 -10    4.95    0.63
  15  -3  10    4.43    0.78
  15  -3  10    5.39    0.82
 -15   3 -10    5.58    0.81
  15   3  10    5.56    0.85
 -15   3 -10    6.34    0.90
  17  -3  10   15.15    1.21
 -17  -3 -10   17.00    1.02
  17  -3  10   14.76    1.19
 -17   3 -10   18.00    1.29
 -17   3 -10   17.98    1.25
  19  -3  10    9.70    1.09
  19  -3  10    9.33    1.12
 -19  -3 -10   11.11    0.87
 -19   3 -10   10.61    1.14
 -16  -4  10    6.05    0.83
  16  -4 -10    5.84    0.82
  16   4 -10    6.03    0.47
 -16   4  10    5.80    0.85
 -16   4  10    5.51    0.41
  16   4 -10    7.22    0.51
  14  -4 -10    1.40    0.45
 -14  -4  10    1.90    0.54
  14   4 -10    1.38    0.31
 -14   4  10    0.78    0.49
  14   4 -10    1.01    0.27
 -12  -4  10   -0.07    0.34
  12  -4 -10    0.27    0.31
  12   4 -10   -0.21    0.16
 -12   4  10   -0.32    0.33
  10  -4 -10    4.13    0.63
 -10  -4  10    2.87    0.61
 -10   4  10    3.57    0.61
  10   4 -10    3.64    0.47
  -8  -4  10    0.43    0.36
  -8  -4  10    0.18    0.36
   8  -4 -10    0.53    0.32
  -8   4  10    0.82    0.38
  -8   4  10   -0.09    0.27
   8   4 -10    0.18    0.21
  -6  -4  10    0.21    0.35
  -6  -4  10    0.19    0.41
   6  -4 -10    0.06    0.26
  -6  -4  10    0.17    0.29
  -6   4  10   -0.14    0.23
   6   4 -10    0.36    0.24
  -6   4  10    0.20    0.32
  -4  -4  10    5.02    0.71
  -4  -4  10    5.45    0.76
   4  -4 -10    5.27    0.65
  -4   4  10    5.08    0.65
   4   4 -10    4.53    0.55
  -4   4  10    4.92    0.56
  -2  -4  10    1.00    0.38
   2  -4 -10    1.44    0.37
  -2  -4  10    1.37    0.43
  -2   4  10    0.68    0.33
   2   4 -10    1.41    0.45
   2   4 -10    0.58    0.28
   0  -4  10    1.17    0.42
   0  -4 -10    0.65    0.29
   0   4  10    0.51    0.31
   0   4  10    0.94    0.36
   0   4 -10    0.64    0.32
   0   4 -10    0.12    0.30
   0   4 -10    0.31    0.25
  -2  -4 -10   37.71    1.47
   2  -4  10   36.69    1.75
  -2   4 -10   38.68    1.82
   2   4  10   37.03    1.52
  -2   4 -10   37.79    1.52
   2   4  10   38.65    1.68
  -2   4 -10   39.55    1.71
  -2   4 -10   40.33    1.92
  -4  -4 -10    1.69    0.37
   4  -4  10    0.68    0.36
   4   4  10    0.66    0.34
  -4   4 -10    0.63    0.30
  -4   4 -10    1.50    0.46
  -4   4 -10    1.24    0.47
   4   4  10    1.27    0.39
   6  -4  10    4.08    0.68
  -6  -4 -10    3.39    0.47
  -6   4 -10    2.38    0.62
  -6   4 -10    3.64    0.63
   6   4  10    2.80    0.48
   6   4  10    3.27    0.60
  -6   4 -10    2.56    0.48
   8  -4  10    3.83    0.71
  -8  -4 -10    2.23    0.41
  -8   4 -10    3.22    0.54
   8   4  10    3.10    0.49
   8   4  10    2.79    0.58
  -8   4 -10    3.10    0.66
  -8   4 -10    3.73    0.63
  10  -4  10   22.36    1.41
 -10  -4 -10   25.21    1.12
  10   4  10   21.62    1.38
 -10   4 -10   21.78    1.22
  10   4  10   24.78    1.19
 -10   4 -10   23.10    1.37
  12  -4  10    3.20    0.66
 -12  -4 -10    3.02    0.48
  12  -4  10    3.81    0.71
  12   4  10    3.57    0.69
 -12   4 -10    3.63    0.68
  12   4  10    3.57    0.55
  14  -4  10    7.74    0.97
 -14  -4 -10    6.10    0.66
  14  -4  10    8.32    1.03
  14   4  10    7.39    0.98
 -14   4 -10    8.78    1.02
  14   4  10    7.22    0.77
 -16  -4 -10    4.34    0.57
  16  -4  10    4.70    0.82
  16  -4  10    4.15    0.78
 -16   4 -10    5.40    0.82
  13  -5 -10    5.08    0.74
 -13  -5  10    5.44    0.83
 -13   5  10    5.39    0.83
  11  -5 -10    5.56    0.76
 -11  -5  10    6.44    0.86
 -11   5  10    5.28    0.77
  -9  -5  10    1.01    0.43
   9  -5 -10    0.74    0.34
  -9  -5  10    0.21    0.33
  -9   5  10    1.19    0.47
   9   5 -10    1.20    0.22
   9   5 -10    1.17    0.22
   7  -5 -10    7.43    0.80
  -7  -5  10    8.18    0.93
  -7  -5  10    9.46    1.07
   7   5 -10    6.79    0.48
   7   5 -10    6.91    0.48
  -7   5  10    6.96    0.81
  -7   5  10    8.24    0.67
  -5  -5  10    1.11    0.44
  -5  -5  10    1.93    0.53
   5  -5 -10    2.15    0.45
  -5   5  10    0.78    0.42
   5   5 -10    1.96    0.32
   5   5 -10    1.28    0.29
  -3  -5  10    9.88    1.02
   3  -5 -10   10.73    0.80
  -3  -5  10   10.89    0.97
  -3   5  10   11.76    0.87
   3   5 -10    9.81    0.64
   1  -5 -10    4.89    0.61
  -1  -5  10    6.46    0.83
   1   5 -10    5.21    0.55
  -1   5  10    5.59    0.66
   1   5 -10    6.20    0.91
  -1  -5 -10    3.13    0.47
   1  -5  10    1.84    0.56
  -1   5 -10    3.02    0.64
  -1   5 -10    3.20    0.68
  -1   5 -10    2.15    0.40
   1   5  10    2.58    0.48
  -3  -5 -10    3.52    0.50
   3  -5  10    3.40    0.67
   3   5  10    3.16    0.51
  -3   5 -10    2.47    0.43
   5  -5  10    0.58    0.40
  -5  -5 -10    0.57    0.27
   5   5  10    0.59    0.32
  -5   5 -10    0.87    0.32
   7  -5  10   10.57    1.12
  -7  -5 -10   11.29    0.72
   7   5  10   10.37    0.92
  -7   5 -10   10.29    0.78
   7   5  10    9.60    0.74
  -9  -5 -10   13.34    0.78
   9  -5  10   13.02    1.12
  -9   5 -10   12.64    0.89
   9   5  10   12.67    0.84
   9   5  10   14.20    1.10
 -11  -5 -10    1.77    0.38
  11  -5  10    2.01    0.61
  11   5  10    2.34    0.45
  11   5  10    1.40    0.52
 -11   5 -10    1.60    0.43
  -4  -6  10   -0.19    0.37
   4  -6 -10    0.69    0.35
   4   6 -10   -0.07    0.43
  -4   6  10    0.46    0.37
   2  -6 -10    9.22    0.73
  -2  -6  10    8.98    1.04
  -2   6  10    9.50    0.81
   2   6 -10   10.57    1.27
   0  -6  10    1.02    0.46
   0  -6 -10    1.82    0.40
   0   6  10    1.68    0.45
   0   6 -10    1.73    0.57
   0   6 -10    1.51    0.23
   0   6 -10    0.82    0.51
   0   6 -10    1.32    0.22
   2  -6  10    0.50    0.45
  -2  -6 -10    0.72    0.29
  -2   6 -10    1.50    0.27
   2   6  10    0.52    0.33
  -2   6 -10    0.70    0.23
  -4   6 -10    2.88    0.40
 -20   0  11    2.01    0.59
  20   0 -11    2.68    0.61
  18   0 -11    0.50    0.39
 -18   0  11    1.92    0.58
 -16   0  11    5.37    0.79
  16   0 -11    3.15    0.65
  14   0 -11    2.41    0.54
  14   0 -11    2.07    0.52
 -14   0  11    2.19    0.54
  12   0 -11    4.14    0.67
 -12   0  11    3.61    0.64
 -12   0  11    3.85    0.67
  12   0 -11    4.21    0.69
 -10   0  11   56.09    1.96
  10   0 -11   49.84    2.14
  10   0 -11   53.15    2.09
 -10   0  11   55.23    2.20
 -10   0  11   52.52    2.10
  -8   0  11   13.79    1.03
   8   0 -11   14.67    1.00
   8   0 -11   12.82    1.00
  -8   0  11   16.15    0.93
  -8   0  11   14.67    1.00
  -6   0  11   83.80    2.82
  -6   0  11   80.00    2.49
  -6   0  11   82.63    2.74
  -6   0  11   85.25    2.77
   6   0 -11   84.86    2.87
   6   0 -11   83.58    2.76
  -4   0  11   -0.14    0.30
   4   0 -11    0.03    0.24
  -4   0  11    0.14    0.29
  -4   0  11   -0.15    0.21
  -4   0  11   -0.07    0.31
   4   0 -11   -0.26    0.22
  -2   0  11   12.95    0.90
  -2   0  11   12.64    0.91
  -2   0  11   13.97    0.81
   2   0 -11   12.45    0.91
   2   0 -11   13.21    0.96
  -2   0  11   12.50    0.92
   0   0 -11    5.17    0.70
   0   0  11    5.13    0.67
   0   0 -11    4.06    0.60
   0   0  11    5.12    0.65
   2   0  11   63.61    2.22
  -2   0 -11   61.84    2.21
  -2   0 -11   60.56    2.29
   2   0  11   61.81    2.22
  -4   0 -11    6.78    0.80
   4   0  11    6.35    0.75
   4   0  11    5.85    0.76
   4   0  11    6.41    0.74
  -4   0 -11    5.22    0.68
   6   0  11   10.08    0.85
  -6   0 -11   11.48    0.85
   6   0  11    9.32    0.99
  -6   0 -11    9.04    0.92
   6   0  11   10.98    0.85
   8   0  11    1.36    0.43
  -8   0 -11    0.59    0.33
  -8   0 -11    0.93    0.32
   8   0  11    0.37    0.34
  10   0  11   17.00    1.23
 -10   0 -11   16.80    1.08
  10   0  11   18.51    1.14
 -10   0 -11   16.59    1.15
 -12   0 -11    1.75    0.44
 -12   0 -11    1.75    0.51
 -12   0 -11    1.64    0.43
  12   0  11    0.74    0.42
 -14   0 -11   17.92    1.14
  14   0  11   15.77    1.23
  16   0  11   29.61    1.75
 -16   0 -11   29.40    1.54
 -18   0 -11    6.04    0.81
 -20   0 -11    6.37    0.87
 -19  -1  11    3.18    0.64
  19  -1 -11    2.72    0.63
 -19   1  11    2.42    0.61
  19   1 -11    2.41    0.59
  17  -1 -11   24.33    1.44
 -17  -1  11   22.19    1.40
 -17   1  11   24.49    1.42
  17   1 -11   26.73    1.47
  15  -1 -11    1.40    0.47
 -15  -1  11    1.14    0.45
  15  -1 -11    2.47    0.56
 -15   1  11    1.79    0.46
  15   1 -11    1.49    0.49
 -15   1  11    2.62    0.61
 -13  -1  11   25.58    1.50
 -13  -1  11   25.98    1.45
  13  -1 -11   27.48    1.48
  13  -1 -11   26.32    1.49
 -13   1  11   25.42    1.26
  13   1 -11   26.92    1.43
 -13   1  11   25.74    1.42
  11  -1 -11   27.72    1.53
 -11  -1  11   32.66    1.59
 -11  -1  11   30.00    1.58
  11  -1 -11   30.64    1.53
  11   1 -11   29.31    1.49
 -11   1  11   30.06    1.33
 -11   1  11   29.34    1.49
  11   1 -11   28.41    1.55
 -11   1  11   32.30    1.60
  -9  -1  11    1.56    0.48
  -9  -1  11    2.00    0.52
   9  -1 -11    1.93    0.46
   9  -1 -11    3.01    0.60
  -9   1  11    1.37    0.36
  -9   1  11    1.87    0.50
   9   1 -11    2.28    0.51
  -9   1  11    1.02    0.40
   9   1 -11    2.47    0.54
  -9   1  11    2.53    0.53
   7  -1 -11    5.08    0.72
  -7  -1  11    5.47    0.70
   7  -1 -11    4.47    0.63
  -7  -1  11    4.60    0.70
  -7   1  11    5.07    0.68
  -7   1  11    4.21    0.64
   7   1 -11    4.91    0.71
  -7   1  11    5.41    0.58
  -7   1  11    5.61    0.71
   7   1 -11    3.59    0.61
  -5  -1  11    6.29    0.69
   5  -1 -11    6.36    0.79
   5  -1 -11    8.29    0.83
  -5  -1  11    8.33    0.90
  -5  -1  11    8.21    0.88
  -5   1  11    6.61    0.78
   5   1 -11    6.22    0.80
  -5   1  11    7.98    0.82
  -5   1  11    6.75    0.75
   5   1 -11    7.38    0.82
  -5   1  11    8.11    0.60
   3  -1 -11   12.47    0.88
   3  -1 -11   12.55    0.95
  -3  -1  11   13.29    0.96
  -3  -1  11   11.78    0.81
  -3  -1  11   11.45    0.94
  -3   1  11   11.17    0.68
   3   1 -11   13.35    0.93
   3   1 -11   11.46    0.94
  -3   1  11   11.92    0.88
  -3   1  11   11.26    0.82
  -3   1  11   11.48    0.88
  -1  -1  11   23.93    1.26
  -1  -1  11   19.68    1.04
   1  -1 -11   20.01    1.21
   1  -1 -11   20.01    1.13
  -1   1  11   20.20    1.15
  -1   1  11   21.03    1.12
   1   1 -11   23.87    1.24
   1   1 -11   21.76    1.27
  -1   1  11   22.80    1.20
  -1  -1 -11   40.34    1.68
   1  -1  11   43.53    1.79
  -1  -1 -11   40.67    1.75
  -1   1 -11   43.13    1.77
  -1   1 -11   41.72    1.84
   1   1  11   39.81    1.70
   1   1  11   41.12    1.82
  -3  -1 -11    6.13    0.75
   3  -1  11    6.34    0.77
  -3  -1 -11    5.45    0.66
   3  -1  11    4.65    0.67
   3   1  11    6.07    0.71
  -3   1 -11    4.97    0.68
   3   1  11    4.28    0.67
  -3   1 -11    5.90    0.76
   5  -1  11    9.30    0.80
  -5  -1 -11    8.82    0.75
   5  -1  11    9.82    0.82
  -5  -1 -11    8.48    0.87
   5   1  11    9.34    0.80
  -5   1 -11    9.41    0.80
  -5   1 -11    9.35    0.98
   5   1  11   10.31    0.89
   7  -1  11    0.46    0.35
  -7  -1 -11    0.40    0.31
   7  -1  11    0.78    0.39
   7  -1  11    1.22    0.45
  -7   1 -11    1.34    0.41
   7   1  11    1.11    0.42
  -7   1 -11    1.10    0.41
   7   1  11    1.10    0.44
   9  -1  11   18.59    1.28
   9  -1  11   22.39    1.26
  -9  -1 -11   22.29    1.21
   9   1  11   24.33    1.28
  -9   1 -11   24.21    1.32
   9   1  11   20.26    1.32
  -9   1 -11   23.37    1.38
  11  -1  11   14.55    1.05
 -11  -1 -11   14.28    0.97
  11  -1  11   11.98    1.05
 -11   1 -11   13.94    1.02
  11   1  11   13.45    1.09
 -11   1 -11   14.37    1.02
  11   1  11   14.34    1.01
 -11   1 -11   12.65    1.05
 -13  -1 -11   39.95    1.78
  13  -1  11   40.50    2.04
 -13   1 -11   45.70    2.08
 -13   1 -11   45.22    1.94
  13   1  11   41.20    2.05
 -13   1 -11   49.62    2.00
 -15  -1 -11    4.03    0.66
  15  -1  11    2.80    0.65
 -15   1 -11    4.53    0.71
 -15   1 -11    3.66    0.66
 -15   1 -11    4.01    0.73
  15   1  11    3.69    0.70
 -17  -1 -11    1.97    0.51
 -17   1 -11    2.56    0.59
 -19  -1 -11    1.48    0.47
 -19   1 -11    1.25    0.47
  18  -2 -11    4.22    0.73
 -18  -2  11    4.85    0.78
  18   2 -11    3.86    0.57
 -18   2  11    3.33    0.56
 -16  -2  11    1.75    0.57
  16  -2 -11    1.36    0.51
  16  -2 -11    1.53    0.46
  16   2 -11    1.58    0.49
 -16   2  11    0.78    0.34
  16   2 -11    0.77    0.33
 -14  -2  11    4.21    0.71
  14  -2 -11    3.59    0.63
  14  -2 -11    3.47    0.67
 -14  -2  11    3.99    0.73
  14   2 -11    3.89    0.58
 -14   2  11    4.49    0.57
  14   2 -11    4.29    0.69
 -12  -2  11    8.82    0.95
  12  -2 -11    8.89    0.98
  12  -2 -11    8.09    0.90
 -12  -2  11    7.23    0.90
 -12   2  11    7.69    0.64
  12   2 -11    8.65    0.92
  12   2 -11    9.26    0.75
 -12   2  11    8.50    0.96
 -10  -2  11    4.63    0.74
  10  -2 -11    5.83    0.78
 -10  -2  11    6.58    0.83
  10  -2 -11    6.66    0.80
  10   2 -11    6.65    0.73
 -10   2  11    6.03    0.79
  10   2 -11    6.56    0.84
 -10   2  11    6.77    0.57
  10   2 -11    5.64    0.75
   8  -2 -11   12.31    0.92
  -8  -2  11   13.51    1.04
   8  -2 -11   12.89    1.00
  -8  -2  11   11.72    0.94
   8   2 -11   10.28    0.89
  -8   2  11   12.76    0.94
   8   2 -11   10.68    0.81
  -8   2  11   10.83    0.88
   8   2 -11   10.86    0.93
  -8   2  11   10.92    0.67
   6  -2 -11   10.33    0.89
  -6  -2  11   11.13    0.95
   6  -2 -11    9.41    0.81
  -6  -2  11   12.13    0.96
   6   2 -11   12.18    0.92
  -6   2  11   12.98    0.96
   6   2 -11   11.70    0.95
   6   2 -11   12.60    0.85
  -6   2  11   13.45    0.94
  -6   2  11   11.01    0.63
   4  -2 -11    8.57    0.74
  -4  -2  11    6.81    0.81
  -4  -2  11    7.73    0.89
   4  -2 -11    7.12    0.82
   4   2 -11    6.90    0.84
  -4   2  11    7.24    0.79
  -4   2  11    7.12    0.77
   4   2 -11    7.81    0.85
  -4   2  11    9.08    0.79
  -2  -2  11   22.10    1.29
   2  -2 -11   22.33    1.17
  -2   2  11   22.87    1.18
   2   2 -11   22.99    1.26
  -2   2  11   22.63    1.23
   2   2 -11   22.78    1.33
  -2   2  11   23.46    1.28
   0  -2  11   22.09    1.26
   0  -2 -11   21.54    1.15
   0   2 -11   21.49    1.29
   0   2 -11   21.18    1.21
   0   2  11   21.45    1.24
   0   2  11   19.88    1.14
   2  -2  11   13.27    1.00
  -2  -2 -11   13.04    0.89
  -2   2 -11   12.24    0.92
   2   2  11   12.96    0.92
  -2   2 -11   13.68    1.04
   2   2  11   13.60    1.01
  -4  -2 -11   22.61    1.17
   4  -2  11   23.77    1.33
   4   2  11   22.26    1.21
  -4   2 -11   23.08    1.30
   4   2  11   22.43    1.32
  -4   2 -11   25.76    1.44
   6  -2  11   26.08    1.40
  -6  -2 -11   24.36    1.23
  -6   2 -11   25.74    1.46
   6   2  11   25.21    1.44
   6   2  11   26.27    1.31
  -6   2 -11   26.11    1.38
  -8  -2 -11    1.85    0.44
   8  -2  11    1.25    0.45
   8   2  11    3.07    0.62
   8   2  11    2.28    0.51
  -8   2 -11    2.38    0.55
  -8   2 -11    2.89    0.59
  -8   2 -11    1.77    0.51
 -10  -2 -11   10.43    0.81
  10  -2  11   10.65    1.07
  10  -2  11   10.78    1.11
  10   2  11   11.42    0.86
 -10   2 -11   10.89    0.95
 -10   2 -11   10.53    0.90
 -10   2 -11    9.99    1.08
  10   2  11   11.43    0.88
  10   2  11   11.41    0.99
 -12  -2 -11    4.02    0.60
  12  -2  11    4.80    0.75
  12  -2  11    3.72    0.69
 -12   2 -11    4.31    0.70
  12   2  11    4.31    0.74
  12   2  11    5.63    0.74
 -12   2 -11    5.13    0.80
 -12   2 -11    4.59    0.74
  12   2  11    4.09    0.62
  14  -2  11   14.40    1.14
 -14  -2 -11   15.34    1.00
  14  -2  11   12.31    1.11
 -14   2 -11   16.88    1.21
  14   2  11   13.78    1.16
 -14   2 -11   14.99    1.11
 -16  -2 -11   18.83    1.17
  16  -2  11   19.32    1.33
  16  -2  11   17.40    1.35
 -16   2 -11   16.29    1.22
 -16   2 -11   19.78    1.31
 -18  -2 -11    5.18    0.73
 -18   2 -11    6.17    0.89
 -17  -3  11    5.06    0.84
  17  -3 -11    5.79    0.83
 -17   3  11    6.11    0.63
  17   3 -11    5.62    0.63
  15  -3 -11    9.35    1.01
 -15  -3  11    9.85    1.06
  15   3 -11    9.68    0.74
 -13  -3  11    0.01    0.41
 -13  -3  11    0.67    0.42
  13  -3 -11    0.74    0.38
  13   3 -11    0.46    0.28
 -13   3  11    0.47    0.24
 -13   3  11    0.25    0.41
  11  -3 -11    0.39    0.33
 -11  -3  11    0.52    0.45
 -11  -3  11    0.61    0.38
 -11   3  11    0.17    0.33
 -11   3  11    0.45    0.20
  11   3 -11    0.14    0.24
  -9  -3  11    3.12    0.64
  -9  -3  11    3.17    0.63
   9  -3 -11    3.60    0.59
   9   3 -11    3.40    0.52
   9   3 -11    2.45    0.53
  -9   3  11    2.86    0.56
   7  -3 -11   11.66    0.91
  -7  -3  11   14.15    1.06
  -7  -3  11   11.84    1.01
  -7   3  11   10.68    1.01
   7   3 -11   10.89    0.79
  -7   3  11   13.29    0.93
   7   3 -11   13.61    0.99
   5  -3 -11    2.36    0.48
  -5  -3  11    2.56    0.60
  -5  -3  11    3.59    0.63
   5   3 -11    2.29    0.44
  -5   3  11    2.10    0.46
   5   3 -11    2.56    0.53
  -5   3  11    3.03    0.55
  -5   3  11    2.51    0.51
   3  -3 -11    1.75    0.42
  -3  -3  11    1.51    0.48
  -3   3  11    1.34    0.39
   3   3 -11    2.15    0.53
  -3   3  11    2.33    0.51
  -3   3  11    1.44    0.43
   3   3 -11    2.59    0.54
   3   3 -11    1.09    0.34
   1  -3 -11   16.69    0.99
  -1  -3  11   18.11    1.18
  -1   3  11   18.96    1.11
   1   3 -11   17.96    1.03
   1   3 -11   15.86    1.15
   1   3 -11   17.76    1.12
  -1   3  11   20.37    1.16
   1  -3  11   16.46    1.16
  -1  -3 -11   19.30    1.05
   1   3  11   17.50    1.13
  -1   3 -11   17.63    1.21
   1   3  11   17.28    1.05
  -1   3 -11   17.64    1.04
  -1   3 -11   17.94    1.16
  -3  -3 -11    7.97    0.69
   3  -3  11    7.90    0.92
  -3   3 -11    7.46    0.85
   3   3  11    7.79    0.87
   3   3  11    8.95    0.76
  -3   3 -11    8.20    0.94
   5  -3  11    5.71    0.78
  -5  -3 -11    6.02    0.66
   5   3  11    4.43    0.62
  -5   3 -11    5.01    0.76
   5   3  11    6.24    0.82
  -5   3 -11    5.92    0.84
  -5   3 -11    6.97    0.84
   7  -3  11    7.79    0.91
  -7  -3 -11    7.10    0.74
   7   3  11    6.25    0.72
   7   3  11    6.88    0.74
   7   3  11    7.41    0.89
  -7   3 -11    5.60    0.81
  -7   3 -11    7.00    0.86
   9  -3  11   20.60    1.28
  -9  -3 -11   15.79    0.97
  -9   3 -11   18.67    1.30
  -9   3 -11   16.02    1.14
   9   3  11   15.84    1.01
   9   3  11   15.92    1.02
   9   3  11   14.98    1.14
 -11  -3 -11   27.90    1.32
  11  -3  11   25.38    1.59
  11  -3  11   28.95    1.59
  11   3  11   30.23    1.42
  11   3  11   27.99    1.63
  11   3  11   28.44    1.41
 -11   3 -11   30.23    1.70
 -11   3 -11   28.01    1.54
 -13  -3 -11    1.38    0.42
  13  -3  11    0.98    0.48
  13  -3  11    1.33    0.53
 -13   3 -11    1.75    0.51
  13   3  11    1.02    0.43
  13   3  11    0.88    0.43
  15  -3  11    5.66    0.89
 -15  -3 -11    6.69    0.75
  15  -3  11    6.89    0.94
 -15   3 -11    7.85    0.97
  14  -4 -11   13.12    1.05
 -14  -4  11   11.34    1.13
 -14   4  11   13.45    1.11
  14   4 -11   10.91    0.71
  12  -4 -11    7.54    0.89
 -12  -4  11    7.58    0.95
 -12   4  11    7.27    0.91
  12   4 -11    8.59    0.64
 -10  -4  11    1.03    0.48
  10  -4 -11    0.73    0.38
  10   4 -11    0.80    0.30
 -10   4  11    0.89    0.44
  -8  -4  11    3.20    0.66
   8  -4 -11    3.31    0.57
   8   4 -11    2.90    0.46
  -8   4  11    3.78    0.65
   6  -4 -11    0.40    0.31
  -6  -4  11   -0.15    0.35
  -6   4  11    0.77    0.40
   6   4 -11   -0.26    0.19
   4  -4 -11   20.57    1.14
  -4  -4  11   21.56    1.33
  -4   4  11   18.93    1.17
   4   4 -11   18.50    1.03
  -4   4  11   20.63    1.07
  -2  -4  11   11.54    0.98
   2  -4 -11   11.21    0.82
  -2   4  11   11.11    0.89
   2   4 -11   11.22    0.81
   0  -4 -11   13.32    0.88
   0  -4  11   13.62    1.07
   0   4 -11   15.91    1.10
   0   4 -11   13.70    0.91
   0   4  11   16.64    1.03
   2  -4  11    4.02    0.70
  -2  -4 -11    4.89    0.62
   2   4  11    4.71    0.69
  -2   4 -11    3.81    0.57
  -2   4 -11    4.24    0.68
   2   4  11    4.12    0.61
   4  -4  11    9.33    1.03
  -4  -4 -11    4.91    0.61
   4   4  11    6.81    0.85
   4   4  11    6.54    0.74
  -4   4 -11    7.69    0.89
  -4   4 -11    6.13    0.72
   6  -4  11    8.32    0.97
  -6  -4 -11    6.59    0.70
  -6   4 -11    6.34    0.75
   6   4  11    5.72    0.81
  -6   4 -11    6.09    0.84
   6   4  11    6.69    0.74
  -8  -4 -11   15.15    0.91
   8  -4  11   14.90    1.18
  -8   4 -11   13.27    1.08
   8   4  11   14.35    0.95
   8   4  11   14.70    1.14
  10  -4  11    6.78    0.91
 -10  -4 -11    5.77    0.66
  10   4  11    4.72    0.66
 -10   4 -11    6.43    0.88
  10   4  11    7.15    0.93
  12  -4  11   10.99    1.17
 -12  -4 -11   11.41    0.82
  12  -4  11   12.98    1.28
 -12   4 -11   12.05    1.20
  12   4  11   11.79    0.89
  -9  -5  11    1.55    0.57
   9  -5 -11    1.45    0.45
   9   5 -11    1.62    0.30
   9   5 -11    1.93    0.32
  -9   5  11    1.33    0.50
   7  -5 -11    4.28    0.66
  -7  -5  11    2.78    0.66
   7   5 -11    2.93    0.40
  -7   5  11    3.66    0.65
   5  -5 -11   24.34    1.27
  -5  -5  11   25.09    1.50
   5   5 -11   21.40    1.01
  -5   5  11   24.77    1.34
  -3  -5  11    3.83    0.73
   3  -5 -11    5.27    0.65
  -3   5  11    4.46    0.65
   3   5 -11    4.31    0.53
   1  -5 -11    2.57    0.51
  -1  -5  11    3.50    0.67
   1   5 -11    3.19    0.48
  -1   5  11    3.48    0.60
   1   5 -11    4.89    0.86
   1  -5  11   11.92    1.19
  -1  -5 -11   10.77    0.79
  -1   5 -11   12.45    1.26
   1   5  11    9.31    0.80
  -1   5 -11    9.84    0.75
  -3  -5 -11   14.05    0.88
   3  -5  11   14.08    1.16
   3   5  11   14.07    0.95
  -3   5 -11   12.82    0.86
  -5  -5 -11    1.73    0.40
   5  -5  11    1.06    0.49
  -5   5 -11    1.51    0.40
   5   5  11    2.05    0.47
  -7  -5 -11    3.24    0.49
   7  -5  11    4.22    0.75
   7   5  11    3.49    0.55
  -7   5 -11    2.22    0.48
  18   0 -12   11.65    1.20
 -18   0  12   10.97    1.16
  16   0 -12   12.97    1.08
 -16   0  12   11.81    1.04
 -14   0  12    2.15    0.56
  14   0 -12    2.51    0.57
 -12   0  12   25.73    1.49
  12   0 -12   29.33    1.54
  10   0 -12    6.08    0.84
 -10   0  12    5.73    0.79
 -10   0  12    6.83    0.73
  10   0 -12    6.76    0.86
  -8   0  12    1.60    0.49
   8   0 -12    1.86    0.47
   8   0 -12    1.58    0.49
  -8   0  12    1.81    0.44
   6   0 -12    0.87    0.38
  -6   0  12    1.35    0.38
  -6   0  12    0.40    0.36
   6   0 -12    0.48    0.37
  -6   0  12    0.60    0.38
  -4   0  12   27.04    1.24
   4   0 -12   27.49    1.52
   4   0 -12   29.77    1.48
  -4   0  12   29.15    1.47
  -4   0  12   28.32    1.50
  -2   0  12   11.36    0.90
  -2   0  12   13.03    0.98
   2   0 -12   12.17    0.98
  -2   0  12   10.25    1.00
  -2   0  12   13.20    0.82
   2   0 -12   12.55    0.95
   0   0  12   16.72    1.09
   0   0 -12   15.26    1.03
   0   0  12   16.92    1.09
   0   0 -12   13.39    1.04
  -2   0 -12   -0.17    0.21
   2   0  12    0.16    0.34
   2   0  12   -0.05    0.29
  -2   0 -12    0.36    0.32
   4   0  12    2.39    0.53
  -4   0 -12    2.90    0.54
  -4   0 -12    2.83    0.57
   4   0  12    3.36    0.64
  -6   0 -12    0.14    0.29
   6   0  12   -0.32    0.29
  -6   0 -12    0.22    0.27
   6   0  12    0.15    0.31
   8   0  12    2.13    0.53
  -8   0 -12    2.32    0.49
  -8   0 -12    2.27    0.56
   8   0  12    1.13    0.45
  10   0  12   -0.48    0.29
  10   0  12    0.28    0.35
 -10   0 -12   -0.14    0.27
  12   0  12    1.75    0.55
 -12   0 -12    2.70    0.56
 -14   0 -12   13.23    1.04
 -16   0 -12   22.43    1.39
  17  -1 -12   31.60    1.68
 -17  -1  12   25.79    1.58
 -17   1  12   27.74    1.61
  17   1 -12   26.33    1.55
 -15  -1  12   10.59    1.11
  15  -1 -12   10.38    1.10
  15   1 -12   10.80    1.11
 -15   1  12    9.48    1.02
 -15   1  12   11.29    0.89
 -13  -1  12    3.29    0.66
  13  -1 -12    3.41    0.65
  13   1 -12    5.23    0.77
 -13   1  12    3.05    0.64
 -13   1  12    3.12    0.53
 -11  -1  12    5.53    0.80
  11  -1 -12    6.02    0.85
  11  -1 -12    6.35    0.82
 -11   1  12    6.17    0.68
  11   1 -12    6.25    0.84
 -11   1  12    6.94    0.84
   9  -1 -12    6.90    0.88
   9  -1 -12    6.59    0.82
  -9  -1  12    7.44    0.88
  -9   1  12    5.36    0.75
  -9   1  12    6.31    0.67
   9   1 -12    6.85    0.86
   7  -1 -12    6.52    0.83
  -7  -1  12    5.86    0.79
   7  -1 -12    6.92    0.82
  -7  -1  12    5.59    0.78
   7   1 -12    5.12    0.79
   7   1 -12    5.34    0.75
  -7   1  12    4.98    0.58
  -7   1  12    5.99    0.80
  -5  -1  12   16.84    1.13
  -5  -1  12   16.82    1.17
   5  -1 -12   17.18    1.17
   5  -1 -12   15.71    1.05
   5   1 -12   17.16    1.12
  -5   1  12   16.31    0.89
   5   1 -12   17.77    1.22
  -5   1  12   18.52    1.17
   3  -1 -12   11.36    0.98
  -3  -1  12   12.45    1.00
  -3  -1  12   11.98    0.98
  -3  -1  12   13.53    0.89
   3  -1 -12   12.41    0.94
   3   1 -12   12.84    1.02
  -3   1  12   12.28    0.94
  -3   1  12   12.70    0.98
   3   1 -12   12.89    0.99
  -1  -1  12    7.25    0.72
   1  -1 -12    7.78    0.84
  -1  -1  12    6.78    0.84
   1  -1 -12    6.02    0.78
  -1   1  12    5.00    0.71
   1   1 -12    6.45    0.79
   1   1 -12    6.73    0.85
   1  -1  12    1.96    0.53
  -1  -1 -12    2.19    0.51
  -1  -1 -12    2.65    0.52
   1   1  12    2.25    0.53
  -1   1 -12    2.97    0.60
   1   1  12    2.58    0.56
  -1   1 -12    2.02    0.47
  -3  -1 -12    1.42    0.39
   3  -1  12    1.38    0.45
   3   1  12    1.19    0.42
  -3   1 -12    1.41    0.43
  -3   1 -12    0.92    0.42
   3   1  12    1.13    0.45
  -5  -1 -12    2.67    0.53
   5  -1  12    3.64    0.63
  -5   1 -12    2.24    0.53
  -5   1 -12    3.42    0.65
   5   1  12    3.34    0.61
   5   1  12    3.85    0.69
   7  -1  12    9.53    1.05
  -7  -1 -12    9.78    0.84
   7  -1  12    9.13    0.96
   7   1  12    8.69    0.92
  -7   1 -12    8.56    0.98
  -7   1 -12    9.29    0.96
   7   1  12    9.29    1.04
   9  -1  12    6.65    0.90
   9  -1  12    5.04    0.77
  -9  -1 -12    6.72    0.79
   9   1  12    6.10    0.89
  -9   1 -12    4.32    0.76
  -9   1 -12    5.57    0.76
   9   1  12    6.87    0.82
  11  -1  12    2.72    0.68
 -11  -1 -12    3.79    0.63
 -11   1 -12    4.40    0.72
 -11   1 -12    4.09    0.70
  11   1  12    3.99    0.72
 -11   1 -12    5.41    0.83
  11   1  12    4.83    0.73
 -13  -1 -12    0.81    0.38
 -13   1 -12    1.83    0.51
 -13   1 -12    0.61    0.40
 -13   1 -12    1.73    0.54
 -15  -1 -12    1.37    0.47
 -15   1 -12    1.62    0.54
 -17  -1 -12   11.32    0.98
 -17   1 -12    9.72    1.08
  16  -2 -12    2.92    0.63
 -16  -2  12    3.90    0.77
  16   2 -12    3.17    0.56
 -16   2  12    2.65    0.50
 -14  -2  12    1.84    0.57
  14  -2 -12    2.11    0.55
  14   2 -12    2.20    0.48
  14   2 -12    1.65    0.52
 -14   2  12    1.45    0.39
 -12  -2  12   10.18    1.06
  12  -2 -12    8.32    0.97
  12   2 -12    7.78    0.93
 -12   2  12    6.27    0.64
  10  -2 -12    3.97    0.67
 -10  -2  12    4.11    0.71
 -10   2  12    3.14    0.66
  10   2 -12    3.53    0.65
 -10   2  12    2.78    0.44
   8  -2 -12    5.69    0.76
  -8  -2  12    6.33    0.84
  -8   2  12    5.64    0.79
   8   2 -12    6.38    0.83
  -8   2  12    6.49    0.53
   6  -2 -12   10.21    0.86
  -6  -2  12   11.96    1.04
  -6  -2  12   11.94    0.99
   6   2 -12   11.69    0.94
  -6   2  12   11.02    0.95
  -4  -2  12    5.52    0.78
  -4  -2  12    5.12    0.77
   4  -2 -12    4.75    0.68
  -4   2  12    5.58    0.75
   4   2 -12    5.78    0.76
  -4   2  12    4.41    0.69
  -2  -2  12    3.47    0.65
   2  -2 -12    3.90    0.61
  -2   2  12    4.54    0.70
   2   2 -12    3.49    0.62
  -2   2  12    4.51    0.70
   2   2 -12    3.57    0.66
   0  -2 -12    8.29    0.86
   0  -2  12    7.74    0.89
   0   2  12    9.76    0.95
   0   2 -12    7.55    0.90
   0   2 -12    8.37    0.98
   0   2  12    8.34    0.94
   2  -2  12   10.80    1.05
  -2  -2 -12    9.90    0.80
  -2   2 -12   11.61    0.93
   2   2  12    9.34    1.01
  -2   2 -12   10.61    1.09
   2   2  12   10.27    0.88
  -4  -2 -12    1.68    0.43
   4  -2  12    1.68    0.50
   4   2  12    1.41    0.45
   4   2  12    2.18    0.52
  -4   2 -12    2.34    0.52
  -4   2 -12    2.13    0.55
   6  -2  12   -0.19    0.35
  -6  -2 -12   -0.09    0.24
   6   2  12   -0.24    0.32
   6   2  12    0.52    0.34
  -6   2 -12    0.64    0.36
  -6   2 -12    0.22    0.34
   8  -2  12    0.53    0.43
  -8  -2 -12    0.78    0.34
   8  -2  12   -0.57    0.30
   8   2  12    0.08    0.34
   8   2  12    0.26    0.36
  -8   2 -12    0.48    0.41
  -8   2 -12    0.15    0.29
  10  -2  12    2.50    0.59
 -10  -2 -12    3.12    0.57
  10  -2  12    2.28    0.63
  10   2  12    1.84    0.48
  10   2  12    1.95    0.57
 -10   2 -12    3.31    0.68
  10   2  12    3.16    0.60
 -10   2 -12    2.44    0.55
  12  -2  12    2.41    0.60
 -12  -2 -12    1.40    0.42
 -12   2 -12    0.74    0.42
  12   2  12    0.89    0.43
 -12   2 -12    2.36    0.64
 -14  -2 -12    1.04    0.40
 -14   2 -12    1.22    0.46
  13  -3 -12    5.94    0.83
 -13  -3  12    5.30    0.80
  13   3 -12    5.70    0.68
 -13   3  12    5.48    0.51
 -11  -3  12    0.96    0.50
  11  -3 -12    1.08    0.40
 -11   3  12    2.47    0.64
  11   3 -12    1.99    0.45
  -9  -3  12   11.02    1.12
   9  -3 -12    9.74    0.99
  -9   3  12   11.35    1.09
   9   3 -12   10.29    0.81
  -7  -3  12    0.41    0.43
   7  -3 -12    1.69    0.46
  -7   3  12    0.99    0.46
   7   3 -12    0.89    0.39
   7   3 -12    0.84    0.35
  -5  -3  12   27.21    1.56
   5  -3 -12   25.86    1.38
   5   3 -12   27.52    1.33
   5   3 -12   26.82    1.46
  -5   3  12   29.75    1.51
   3  -3 -12    2.79    0.52
  -3  -3  12    3.16    0.64
  -3   3  12    2.77    0.57
   3   3 -12    3.27    0.62
   3   3 -12    1.80    0.45
  -3   3  12    2.39    0.54
   1  -3 -12    9.77    0.82
  -1  -3  12   11.69    1.00
  -1   3  12   10.07    0.89
   1   3 -12   10.53    1.05
  -1   3  12   11.60    0.93
  -1  -3 -12    0.87    0.37
   1  -3  12    0.47    0.38
   1   3  12    0.77    0.40
   1   3  12    0.48    0.36
  -1   3 -12    0.44    0.34
   3  -3  12    7.19    0.92
  -3  -3 -12    6.34    0.74
   3   3  12    5.05    0.71
  -3   3 -12    4.71    0.72
   3   3  12    6.51    0.84
   5  -3  12    0.56    0.41
  -5  -3 -12    0.20    0.26
  -5   3 -12    0.53    0.35
   5   3  12   -0.02    0.34
   5   3  12   -0.27    0.31
   7  -3  12    3.74    0.69
  -7  -3 -12    3.19    0.54
  -7   3 -12    3.54    0.67
   7   3  12    3.09    0.65
   7   3  12    3.44    0.60
   9  -3  12   11.34    1.15
  -9  -3 -12    9.52    0.79
   9   3  12   10.20    0.87
  -9   3 -12    9.69    1.05
   9   3  12    9.16    1.06
 -11  -3 -12    0.73    0.35
  11  -3  12    0.18    0.40
 -11   3 -12    0.08    0.36
  11   3  12    0.51    0.39
  13  -3  12    6.48    0.96
 -13  -3 -12    4.35    0.66
 -13   3 -12    6.04    0.88
  13   3  12    4.90    0.75
  10  -4 -12    4.83    0.74
 -10  -4  12    5.10    0.84
 -10   4  12    4.54    0.77
  10   4 -12    4.07    0.56
  -8  -4  12    3.60    0.71
   8  -4 -12    3.40    0.62
  -8   4  12    3.83    0.71
   8   4 -12    3.10    0.51
  -6  -4  12   13.63    1.15
   6  -4 -12   15.18    1.05
  -6   4  12   14.94    1.13
   6   4 -12   13.98    0.91
   4  -4 -12    5.09    0.69
  -4  -4  12    6.12    0.87
   4   4 -12    4.32    0.61
  -4   4  12    4.52    0.71
   2  -4 -12    1.11    0.39
  -2  -4  12    0.71    0.48
  -2   4  12    1.21    0.46
   2   4 -12    0.97    0.35
   0  -4  12    3.87    0.72
   0  -4 -12    5.40    0.69
   0   4 -12    5.59    0.70
   0   4  12    5.11    0.71
   2  -4  12    3.64    0.72
  -2  -4 -12    2.77    0.52
  -2   4 -12    3.01    0.54
   2   4  12    2.82    0.56
   4  -4  12    2.47    0.63
  -4  -4 -12    2.10    0.45
   4   4  12    3.07    0.60
  -4   4 -12    1.51    0.44
   4   4  12    1.13    0.45
  -4   4 -12    2.26    0.57
   6  -4  12    2.99    0.67
  -6  -4 -12    3.03    0.53
  -6   4 -12    4.21    0.73
   6   4  12    3.08    0.68
   6   4  12    2.95    0.58
   8  -4  12    7.69    1.01
  -8  -4 -12   10.20    0.81
   8   4  12   10.31    1.13
   8   4  12   10.33    0.85
  -8   4 -12   10.60    1.13
 -14   0  13   10.90    1.16
  14   0 -13   11.39    1.17
 -12   0  13    1.72    0.55
  12   0 -13    0.51    0.39
 -10   0  13    1.37    0.49
  10   0 -13    1.14    0.44
  -8   0  13   -0.38    0.24
  -8   0  13    0.04    0.36
   8   0 -13   -0.16    0.24
  -6   0  13    1.64    0.55
   6   0 -13    0.43    0.39
   6   0 -13    0.98    0.38
  -6   0  13    1.63    0.42
  -4   0  13    8.11    0.93
  -4   0  13    9.25    0.73
   4   0 -13    6.99    0.87
   4   0 -13    8.59    1.00
   2   0 -13    0.38    0.30
   2   0 -13    0.45    0.40
   0   0 -13    2.42    0.53
   0   0 -13    1.91    0.52
  -2   0 -13    4.08    0.66
  -2   0 -13    4.57    0.75
   4   0  13    4.96    0.80
  -4   0 -13    5.39    0.78
  -4   0 -13    5.14    0.78
   6   0  13    5.01    0.81
  -6   0 -13    4.95    0.74
  -8   0 -13    7.69    0.90
 -10   0 -13    2.48    0.56
 -12   0 -13   20.85    1.33
  13  -1 -13    1.36    0.48
 -13  -1  13    2.98    0.69
 -13   1  13    1.95    0.47
  13   1 -13    1.88    0.54
 -11  -1  13    0.58    0.46
  11  -1 -13   -0.06    0.26
 -11   1  13    0.65    0.34
  11   1 -13    0.46    0.41
  -9  -1  13    4.27    0.76
   9  -1 -13    3.80    0.69
   9  -1 -13    3.80    0.69
  -9   1  13    3.92    0.55
   9   1 -13    2.80    0.63
  -7  -1  13    9.09    1.01
   7  -1 -13    6.70    0.91
   7  -1 -13    8.23    0.94
   7   1 -13    6.66    0.87
  -7   1  13    6.90    0.69
   5  -1 -13    4.15    0.71
   5  -1 -13    3.83    0.65
  -5  -1  13    5.71    0.84
   5   1 -13    5.27    0.77
  -3  -1  13    0.80    0.46
   3  -1 -13    0.69    0.40
   3  -1 -13    1.66    0.46
  -3   1  13    1.26    0.51
   3   1 -13    0.78    0.41
   1  -1 -13   29.06    1.50
  -1  -1  13   28.42    1.56
  -1   1  13   29.09    1.56
   1   1 -13   28.21    1.54
   1   1 -13   27.74    1.60
  -1   1  13   27.14    1.58
   1  -1  13   35.30    1.72
  -1  -1 -13   33.07    1.60
   1   1  13   27.57    1.54
  -1   1 -13   30.68    1.69
   1   1  13   29.74    1.68
  -1   1 -13   33.29    1.66
   3  -1  13   10.11    1.04
  -3  -1 -13   10.66    0.91
  -3   1 -13   10.87    1.15
  -3   1 -13   12.22    1.00
   3   1  13    9.90    1.01
   3   1  13   10.70    1.14
   5  -1  13    0.56    0.44
   5  -1  13    0.24    0.34
  -5  -1 -13   -0.06    0.28
   5   1  13    0.23    0.40
  -5   1 -13    0.21    0.37
  -5   1 -13    0.37    0.35
   5   1  13    0.32    0.41
  -7  -1 -13    0.91    0.38
   7   1  13    1.49    0.51
   7   1  13    1.18    0.46
  -7   1 -13    1.56    0.50
  -9  -1 -13    1.52    0.47
   9   1  13    2.53    0.62
  -9   1 -13    2.04    0.55
 -11  -1 -13   13.63    1.06
 -11   1 -13   16.56    1.19
  11   1  13   16.57    1.19
 -11   1 -13   16.67    1.23
 -13  -1 -13   11.73    1.00
 -13   1 -13   11.84    1.03
 -12  -2  13    0.02    0.36
  12  -2 -13    0.00    0.33
 -12   2  13    0.15    0.26
  12   2 -13   -0.32    0.31
 -10  -2  13   -0.01    0.37
  10  -2 -13    0.63    0.38
  10   2 -13    0.22    0.33
 -10   2  13    0.06    0.23
   8  -2 -13    1.43    0.45
  -8  -2  13    1.74    0.52
   8   2 -13    2.75    0.60
   6  -2 -13    6.28    0.82
  -6  -2  13    5.69    0.83
  -6   2  13    7.55    0.91
  -6   2  13    5.47    0.82
   6   2 -13    6.91    0.90
  -4  -2  13   10.28    1.06
   4  -2 -13   10.54    0.90
   4   2 -13   10.44    1.07
  -4   2  13   10.30    1.07
  -4   2  13   11.80    1.01
   2  -2 -13    6.56    0.81
  -2  -2  13    7.34    0.92
   2   2 -13    8.42    0.95
  -2   2  13    6.84    0.90
  -2   2  13    8.30    0.93
   0  -2  13    6.07    0.85
   0  -2 -13    6.10    0.78
   0   2  13    6.44    0.82
   0   2 -13    6.21    0.84
   0   2  13    5.25    0.82
   2  -2  13    2.55    0.61
  -2  -2 -13    1.77    0.46
  -2   2 -13    2.72    0.60
   2   2  13    2.62    0.58
   2   2  13    2.08    0.59
   4  -2  13    3.71    0.72
  -4  -2 -13    3.62    0.62
   4   2  13    3.36    0.67
   4   2  13    2.07    0.58
  -4   2 -13    4.27    0.72
   6  -2  13   23.57    1.46
  -6  -2 -13   22.92    1.30
  -6   2 -13   21.02    1.35
   6   2  13   21.40    1.45
   6   2  13   23.34    1.37
   8  -2  13   10.06    1.11
  -8  -2 -13    7.48    0.87
   8   2  13   10.13    1.02
  -8   2 -13    9.56    1.06
  10  -2  13    6.11    0.87
 -10  -2 -13    4.90    0.70
 -10   2 -13    4.95    0.79
  10   2  13    4.13    0.72
   9  -3 -13    2.39    0.56
  -9  -3  13    2.76    0.66
  -9   3  13    1.79    0.56
   9   3 -13    1.47    0.44
   7  -3 -13    3.38    0.64
  -7  -3  13    2.92    0.64
   7   3 -13    2.80    0.61
  -7   3  13    3.07    0.67
  -5  -3  13    6.03    0.89
   5  -3 -13    5.09    0.73
   5   3 -13    3.80    0.72
  -5   3  13    4.25    0.73
  -3  -3  13    6.19    0.89
   3  -3 -13    6.87    0.83
  -3   3  13    6.98    0.89
   3   3 -13    7.12    0.92
   1  -3 -13    3.59    0.62
  -1  -3  13    3.55    0.73
   1   3 -13    3.21    0.66
  -1   3  13    3.65    0.70
  -1   3  13    3.12    0.64
   1  -3  13    2.32    0.60
  -1  -3 -13    1.07    0.41
   1   3  13    1.93    0.54
  -1   3 -13    3.03    0.64
   1   3  13    1.97    0.55
   3  -3  13    5.32    0.85
  -3  -3 -13    4.03    0.64
  -3   3 -13    4.80    0.78
   3   3  13    4.00    0.73
   3   3  13    4.91    0.75
  -5  -3 -13    1.48    0.44
   5  -3  13    1.49    0.53
  -5   3 -13    1.76    0.51
   5   3  13    1.90    0.53
   5   3  13    1.48    0.53
  -7  -3 -13    8.65    0.91
   7  -3  13   11.48    1.17
  -7   3 -13    8.43    1.04
   7   3  13    9.21    0.97
  -8   0  14   30.08    1.45
   8   0 -14   29.65    1.66
  -6   0  14   16.16    1.03
   6   0 -14   18.22    1.26
   4   0 -14    0.21    0.29
   2   0 -14    8.88    1.00
   0   0 -14   17.39    1.22
  -2   0 -14    0.93    0.41
  -4   0 -14    2.87    0.61
  -6   0 -14    3.80    0.71
  -8   0 -14    0.32    0.31
   9  -1 -14    1.49    0.50
   9   1 -14    0.95    0.49
   7  -1 -14    6.86    0.90
  -7  -1  14    6.83    0.93
   7   1 -14    8.32    1.03
   5  -1 -14   19.93    1.29
  -5  -1  14   18.28    1.31
   5   1 -14   17.87    1.29
  -3  -1  14   10.69    1.13
   3  -1 -14    9.71    1.04
  -3   1  14   10.28    1.13
   3   1 -14    9.36    1.04
  -1  -1  14    9.82    1.08
   1  -1 -14    7.71    0.93
  -1   1  14    8.91    1.06
   1   1 -14    9.67    1.05
  -1  -1 -14    2.72    0.57
  -1   1 -14    3.54    0.69
  -3  -1 -14    1.31    0.46
  -3   1 -14    0.92    0.42
  -5  -1 -14   10.63    1.07
   5   1  14   11.88    1.19
  -5   1 -14   11.09    1.16
  -7  -1 -14    2.82    0.59
   7   1  14    2.09    0.60
  -7   1 -14    1.90    0.57
  -4  -2  14    9.88    1.11
   4  -2 -14    7.78    0.94
  -4   2  14    7.97    1.01
   4   2 -14    9.93    1.11
  -2  -2  14    2.00    0.59
   2  -2 -14    1.28    0.47
   2   2 -14    2.21    0.58
  -2   2  14    1.59    0.54
  -2   2  14    0.58    0.50
   0  -2  14    7.23    0.98
   0  -2 -14    7.76    0.90
   0   2 -14    6.83    0.93
   0   2  14    6.89    0.93
  -2  -2 -14    9.94    1.01
   2  -2  14    8.41    1.05
  -2   2 -14   10.31    1.14
   2   2  14    7.89    0.96
  -4  -2 -14    6.52    0.85
   4  -2  14    6.41    0.92
   4   2  14    6.20    0.88
  -4   2 -14    7.38    0.96
   0   0   0    0.00    0.00
;
_shelx_hkl_checksum              3733
#END Tags that were not found in dictionaries
loop_
_space_group_symop_operation_xyz
'x, y, z'
'-x, y, -z'
'x+1/2, y+1/2, z'
'-x+1/2, y+1/2, -z'
loop_
_atom_site_label
_atom_site_type_symbol
_atom_site_fract_x
_atom_site_fract_y
_atom_site_fract_z
_atom_site_U_iso_or_equiv
_atom_site_adp_type
_atom_site_occupancy
_atom_site_site_symmetry_order
_atom_site_calc_flag
_atom_site_refinement_flags_posn
_atom_site_refinement_flags_adp
S1 S 0.51004(2) 0.55254(8) 0.17980(4) 0.02125(12) Uani 1 1 d . .
O1 O 0.37267(7) -0.1159(2) 0.37439(13) 0.0259(3) Uani 1 1 d . .
O2 O 0.76688(6) 0.6488(2) 0.50591(13) 0.0274(4) Uani 1 1 d . .
O3 O 0.77620(6) 0.7633(3) 0.32702(14) 0.0293(4) Uani 1 1 d . .
O4 O 0.58123(6) 0.4531(2) 0.35250(12) 0.0220(3) Uani 1 1 d . .
O5 O 0.62665(6) 0.6869(2) 0.02636(11) 0.0200(3) Uani 1 1 d . .
O6 O 0.57551(6) 0.9559(2) 0.07220(13) 0.0248(3) Uani 1 1 d . .
N1 N 0.74868(7) 0.6931(3) 0.40686(15) 0.0213(4) Uani 1 1 d . .
C1 C 0.35315(9) -0.2747(3) 0.29639(18) 0.0226(4) Uani 1 1 d . .
H1A H 0.3336 -0.2117 0.2281 0.034 Uiso 1 1 calc R U
H1B H 0.3279 -0.3660 0.3390 0.034 Uiso 1 1 calc R U
H1C H 0.3845 -0.3560 0.2683 0.034 Uiso 1 1 calc R U
C2 C 0.40611(8) 0.0310(3) 0.32618(17) 0.0189(4) Uani 1 1 d . .
C3 C 0.42410(8) 0.0250(3) 0.21039(17) 0.0181(4) Uani 1 1 d . .
H3 H 0.4134 -0.0863 0.1592 0.022 Uiso 1 1 calc R U
C4 C 0.45785(8) 0.1819(3) 0.16922(17) 0.0193(4) Uani 1 1 d . .
H4 H 0.4705 0.1773 0.0897 0.023 Uiso 1 1 calc R U
C5 C 0.47332(8) 0.3452(3) 0.24265(18) 0.0182(4) Uani 1 1 d . .
C6 C 0.57060(7) 0.5651(3) 0.27008(16) 0.0156(4) Uani 1 1 d . .
C7 C 0.60806(8) 0.7499(3) 0.23926(17) 0.0157(4) Uani 1 1 d . .
C8 C 0.66974(8) 0.6905(3) 0.25766(16) 0.0159(4) Uani 1 1 d . .
H8 H 0.6917 0.8104 0.2275 0.019 Uiso 1 1 calc R U
C9 C 0.68173(8) 0.5097(3) 0.17725(16) 0.0156(4) Uani 1 1 d . .
C10 C 0.71428(8) 0.3391(3) 0.20657(18) 0.0186(4) Uani 1 1 d . .
H10 H 0.7304 0.3286 0.2843 0.022 Uiso 1 1 calc R U
C11 C 0.72359(8) 0.1834(3) 0.12357(18) 0.0213(4) Uani 1 1 d . .
H11 H 0.7465 0.0685 0.1443 0.026 Uiso 1 1 calc R U
C12 C 0.69956(8) 0.1954(3) 0.01098(18) 0.0229(4) Uani 1 1 d . .
H12 H 0.7062 0.0890 -0.0457 0.027 Uiso 1 1 calc R U
C13 C 0.68726(8) 0.6606(3) 0.38714(17) 0.0179(4) Uani 1 1 d . .
H13A H 0.6668 0.7599 0.4371 0.021 Uiso 1 1 calc R U
H13B H 0.6774 0.5182 0.4125 0.021 Uiso 1 1 calc R U
C14 C 0.59021(9) 0.9343(3) 0.31537(19) 0.0216(4) Uani 1 1 d . .
H14A H 0.6166 1.0485 0.3067 0.032 Uiso 1 1 calc R U
H14B H 0.5892 0.8919 0.3992 0.032 Uiso 1 1 calc R U
H14C H 0.5533 0.9807 0.2890 0.032 Uiso 1 1 calc R U
C15 C 0.42184(9) 0.1951(3) 0.40051(18) 0.0249(4) Uani 1 1 d . .
H15 H 0.4096 0.1987 0.4803 0.030 Uiso 1 1 calc R U
C16 C 0.45477(9) 0.3511(3) 0.35915(18) 0.0239(4) Uani 1 1 d . .
H16 H 0.4650 0.4634 0.4100 0.029 Uiso 1 1 calc R U
C17 C 0.60102(8) 0.8095(3) 0.10802(17) 0.0180(4) Uani 1 1 d . .
C18 C 0.65796(8) 0.5159(3) 0.06328(17) 0.0172(4) Uani 1 1 d . .
C19 C 0.66599(8) 0.3615(3) -0.01943(18) 0.0209(4) Uani 1 1 d . .
H19 H 0.6487 0.3690 -0.0961 0.025 Uiso 1 1 calc R U
loop_
_atom_site_aniso_label
_atom_site_aniso_U_11
_atom_site_aniso_U_22
_atom_site_aniso_U_33
_atom_site_aniso_U_23
_atom_site_aniso_U_13
_atom_site_aniso_U_12
S1 0.0214(2) 0.0240(2) 0.0181(2) 0.0067(2) -0.00488(18) -0.0043(2)
O1 0.0391(9) 0.0200(7) 0.0189(7) -0.0011(6) 0.0059(6) -0.0090(7)
O2 0.0287(8) 0.0315(9) 0.0215(8) 0.0003(6) -0.0099(6) 0.0007(7)
O3 0.0231(8) 0.0353(9) 0.0294(8) 0.0053(7) -0.0012(6) -0.0069(7)
O4 0.0227(7) 0.0217(7) 0.0213(7) 0.0084(6) -0.0033(6) -0.0009(6)
O5 0.0240(7) 0.0214(7) 0.0145(6) 0.0037(6) -0.0005(5) 0.0023(6)
O6 0.0277(8) 0.0228(7) 0.0237(8) 0.0093(6) -0.0003(6) 0.0056(6)
N1 0.0215(9) 0.0187(8) 0.0236(9) -0.0046(7) -0.0042(7) -0.0005(7)
C1 0.0220(10) 0.0238(11) 0.0221(10) -0.0026(8) 0.0000(8) -0.0046(8)
C2 0.0216(9) 0.0166(9) 0.0184(9) 0.0007(8) 0.0012(7) 0.0004(8)
C3 0.0168(9) 0.0210(10) 0.0165(9) -0.0036(8) -0.0013(7) -0.0009(8)
C4 0.0170(9) 0.0262(10) 0.0147(9) -0.0015(8) 0.0016(7) 0.0001(8)
C5 0.0160(9) 0.0204(10) 0.0181(9) 0.0031(8) -0.0011(7) -0.0002(8)
C6 0.0178(9) 0.0152(9) 0.0138(8) -0.0009(8) 0.0012(7) 0.0028(8)
C7 0.0185(9) 0.0135(9) 0.0151(9) 0.0006(7) -0.0014(7) 0.0011(7)
C8 0.0160(9) 0.0154(8) 0.0163(9) 0.0008(8) -0.0008(7) -0.0009(7)
C9 0.0139(8) 0.0160(10) 0.0171(9) 0.0004(7) 0.0018(7) -0.0024(7)
C10 0.0168(9) 0.0189(10) 0.0202(10) 0.0016(8) 0.0000(7) -0.0007(8)
C11 0.0172(9) 0.0172(9) 0.0298(11) 0.0008(9) 0.0050(8) -0.0002(8)
C12 0.0242(10) 0.0194(10) 0.0254(10) -0.0061(9) 0.0069(8) -0.0050(9)
C13 0.0167(9) 0.0196(10) 0.0173(9) -0.0002(8) -0.0012(7) -0.0007(8)
C14 0.0262(10) 0.0164(9) 0.0222(10) -0.0014(8) -0.0011(8) 0.0040(8)
C15 0.0379(12) 0.0226(10) 0.0144(9) -0.0020(9) 0.0043(8) -0.0049(10)
C16 0.0362(12) 0.0194(10) 0.0161(10) -0.0022(8) 0.0007(8) -0.0044(9)
C17 0.0170(9) 0.0180(10) 0.0188(10) 0.0023(8) -0.0009(8) -0.0016(8)
C18 0.0154(9) 0.0178(10) 0.0184(9) 0.0022(7) 0.0019(7) -0.0011(8)
C19 0.0213(10) 0.0248(10) 0.0165(10) -0.0016(8) 0.0021(8) -0.0069(8)
loop_
_atom_type_symbol
_atom_type_description
_atom_type_scat_dispersion_real
_atom_type_scat_dispersion_imag
_atom_type_scat_source
C C 0.0033 0.0016 'International Tables Vol C Tables 4.2.6.8 and 6.1.1.4'
H H 0.0000 0.0000 'International Tables Vol C Tables 4.2.6.8 and 6.1.1.4'
N N 0.0061 0.0033 'International Tables Vol C Tables 4.2.6.8 and 6.1.1.4'
O O 0.0106 0.0060 'International Tables Vol C Tables 4.2.6.8 and 6.1.1.4'
S S 0.1246 0.1234 'International Tables Vol C Tables 4.2.6.8 and 6.1.1.4'
loop_
_geom_angle_atom_site_label_1
_geom_angle_atom_site_label_2
_geom_angle_atom_site_label_3
_geom_angle
C5 S1 C6 102.98(9)
C2 O1 C1 116.49(15)
C17 O5 C18 120.47(15)
O2 N1 C13 115.75(17)
O3 N1 O2 124.49(17)
O3 N1 C13 119.75(16)
O1 C1 H1A 109.5
O1 C1 H1B 109.5
O1 C1 H1C 109.5
H1A C1 H1B 109.5
H1A C1 H1C 109.5
H1B C1 H1C 109.5
O1 C2 C3 123.81(18)
O1 C2 C15 116.35(17)
C3 C2 C15 119.84(19)
C2 C3 H3 120.2
C2 C3 C4 119.64(18)
C4 C3 H3 120.2
C3 C4 H4 119.7
C5 C4 C3 120.61(18)
C5 C4 H4 119.7
C4 C5 S1 118.02(15)
C4 C5 C16 119.49(19)
C16 C5 S1 122.15(16)
O4 C6 S1 125.31(16)
O4 C6 C7 121.45(16)
C7 C6 S1 113.07(13)
C6 C7 C8 110.47(15)
C14 C7 C6 107.38(15)
C14 C7 C8 113.55(16)
C17 C7 C6 110.92(15)
C17 C7 C8 106.05(15)
C17 C7 C14 108.49(16)
C7 C8 H8 106.4
C9 C8 C7 107.98(15)
C9 C8 H8 106.4
C9 C8 C13 115.03(16)
C13 C8 C7 113.98(15)
C13 C8 H8 106.4
C10 C9 C8 125.86(17)
C10 C9 C18 117.53(17)
C18 C9 C8 116.61(16)
C9 C10 H10 119.6
C9 C10 C11 120.75(19)
C11 C10 H10 119.6
C10 C11 H11 119.9
C12 C11 C10 120.12(19)
C12 C11 H11 119.9
C11 C12 H12 119.9
C19 C12 C11 120.2(2)
C19 C12 H12 119.9
N1 C13 C8 112.04(16)
N1 C13 H13A 109.2
N1 C13 H13B 109.2
C8 C13 H13A 109.2
C8 C13 H13B 109.2
H13A C13 H13B 107.9
C7 C14 H14A 109.5
C7 C14 H14B 109.5
C7 C14 H14C 109.5
H14A C14 H14B 109.5
H14A C14 H14C 109.5
H14B C14 H14C 109.5
C2 C15 H15 119.8
C16 C15 C2 120.38(19)
C16 C15 H15 119.8
C5 C16 H16 120.0
C15 C16 C5 120.0(2)
C15 C16 H16 120.0
O5 C17 C7 117.33(16)
O6 C17 O5 117.95(18)
O6 C17 C7 124.72(18)
C9 C18 O5 120.46(17)
C19 C18 O5 116.96(17)
C19 C18 C9 122.51(18)
C12 C19 H19 120.6
C18 C19 C12 118.89(19)
C18 C19 H19 120.6
loop_
_geom_bond_atom_site_label_1
_geom_bond_atom_site_label_2
_geom_bond_distance
S1 C5 1.759(2)
S1 C6 1.7645(18)
O1 C1 1.419(2)
O1 C2 1.364(2)
O2 N1 1.220(2)
O3 N1 1.215(2)
O4 C6 1.196(2)
O5 C17 1.368(2)
O5 C18 1.393(2)
O6 C17 1.191(2)
N1 C13 1.512(2)
C1 H1A 0.9800
C1 H1B 0.9800
C1 H1C 0.9800
C2 C3 1.380(3)
C2 C15 1.393(3)
C3 H3 0.9500
C3 C4 1.384(3)
C4 H4 0.9500
C4 C5 1.382(3)
C5 C16 1.392(3)
C6 C7 1.539(3)
C7 C8 1.550(3)
C7 C14 1.530(3)
C7 C17 1.528(3)
C8 H8 1.0000
C8 C9 1.505(3)
C8 C13 1.517(3)
C9 C10 1.386(3)
C9 C18 1.391(3)
C10 H10 0.9500
C10 C11 1.390(3)
C11 H11 0.9500
C11 C12 1.381(3)
C12 H12 0.9500
C12 C19 1.380(3)
C13 H13A 0.9900
C13 H13B 0.9900
C14 H14A 0.9800
C14 H14B 0.9800
C14 H14C 0.9800
C15 H15 0.9500
C15 C16 1.369(3)
C16 H16 0.9500
C18 C19 1.377(3)
C19 H19 0.9500
loop_
_geom_torsion_atom_site_label_1
_geom_torsion_atom_site_label_2
_geom_torsion_atom_site_label_3
_geom_torsion_atom_site_label_4
_geom_torsion
S1 C5 C16 C15 173.71(17)
S1 C6 C7 C8 -145.79(13)
S1 C6 C7 C14 89.89(16)
S1 C6 C7 C17 -28.50(19)
O1 C2 C3 C4 179.76(18)
O1 C2 C15 C16 -179.1(2)
O2 N1 C13 C8 -172.00(17)
O3 N1 C13 C8 9.4(3)
O4 C6 C7 C8 38.7(2)
O4 C6 C7 C14 -85.6(2)
O4 C6 C7 C17 155.98(18)
O5 C18 C19 C12 176.04(17)
C1 O1 C2 C3 -4.2(3)
C1 O1 C2 C15 175.37(18)
C2 C3 C4 C5 -0.5(3)
C2 C15 C16 C5 -0.8(3)
C3 C2 C15 C16 0.4(3)
C3 C4 C5 S1 -173.33(15)
C3 C4 C5 C16 0.1(3)
C4 C5 C16 C15 0.5(3)
C5 S1 C6 O4 0.3(2)
C5 S1 C6 C7 -175.04(13)
C6 S1 C5 C4 -124.10(16)
C6 S1 C5 C16 62.63(19)
C6 C7 C8 C9 59.82(19)
C6 C7 C8 C13 -69.3(2)
C6 C7 C17 O5 -77.4(2)
C6 C7 C17 O6 103.6(2)
C7 C8 C9 C10 -139.51(19)
C7 C8 C9 C18 40.7(2)
C7 C8 C13 N1 -155.90(16)
C8 C7 C17 O5 42.5(2)
C8 C7 C17 O6 -136.5(2)
C8 C9 C10 C11 -178.34(18)
C8 C9 C18 O5 2.5(2)
C8 C9 C18 C19 179.42(18)
C9 C8 C13 N1 78.6(2)
C9 C10 C11 C12 -1.1(3)
C9 C18 C19 C12 -1.0(3)
C10 C9 C18 O5 -177.34(17)
C10 C9 C18 C19 -0.4(3)
C10 C11 C12 C19 -0.3(3)
C11 C12 C19 C18 1.4(3)
C13 C8 C9 C10 -11.0(3)
C13 C8 C9 C18 169.23(16)
C14 C7 C8 C9 -179.48(16)
C14 C7 C8 C13 51.4(2)
C14 C7 C17 O5 164.85(17)
C14 C7 C17 O6 -14.1(3)
C15 C2 C3 C4 0.2(3)
C17 O5 C18 C9 -25.2(3)
C17 O5 C18 C19 157.71(17)
C17 C7 C8 C9 -60.45(19)
C17 C7 C8 C13 170.42(16)
C18 O5 C17 O6 178.75(17)
C18 O5 C17 C7 -0.3(2)
C18 C9 C10 C11 1.5(3)
