#------------------------------------------------------------------------------
#$Date: 2016-02-18 17:37:37 +0200 (Thu, 18 Feb 2016) $
#$Revision: 176729 $
#$URL: svn://www.crystallography.net/cod/cif/1/51/85/1518525.cif $
#------------------------------------------------------------------------------
#
# This file is available in the Crystallography Open Database (COD),
# http://www.crystallography.net/
#
# All data on this site have been placed in the public domain by the
# contributors.
#
data_1518525
loop_
_publ_author_name
'Burkett, Eon'
'Siddiquee, Tasneem'
_publ_section_title
;
 Coordination Nature of 4-Mercaptoaniline to Sn(II) Ion: Formation of a
 One Dimensional Coordination Polymer and Its Decomposition to a Mono
 Nuclear Sn(IV) Complex
;
_journal_issue                   4
_journal_name_full               Inorganics
_journal_page_first              652
_journal_paper_doi               10.3390/inorganics2040652
_journal_volume                  2
_journal_year                    2014
_chemical_formula_moiety         'C12 H13 N2 S2 Sn, Cl, H2 O'
_chemical_formula_sum            'C12 H15 Cl N2 O S2 Sn'
_chemical_formula_weight         421.52
_chemical_name_systematic
;
 ?
;
_space_group_IT_number           14
_symmetry_cell_setting           monoclinic
_symmetry_Int_Tables_number      14
_symmetry_space_group_name_Hall  '-P 2ybc'
_symmetry_space_group_name_H-M   'P 1 21/c 1'
_atom_sites_solution_hydrogens   mixed
_audit_conform_dict_location     ftp://ftp.iucr.org/pub/cif_core.dic
_audit_conform_dict_name         cif_core.dic
_audit_conform_dict_version      2.4.3
_audit_creation_date             2014-10-30T11:09:17-00:00
_audit_creation_method           'WinGX routine CIF_UPDATE'
_cell_angle_alpha                90
_cell_angle_beta                 95.4040(10)
_cell_angle_gamma                90
_cell_formula_units_Z            4
_cell_length_a                   17.328(14)
_cell_length_b                   12.160(9)
_cell_length_c                   7.253(6)
_cell_measurement_reflns_used    0
_cell_measurement_temperature    273(2)
_cell_measurement_theta_max      0
_cell_measurement_theta_min      0
_cell_measurement_wavelength     0.71075
_cell_volume                     1521(2)
_computing_molecular_graphics    'Ortep for Windows (Farrugia, 2012)'
_computing_publication_material  'WinGX publication routines (Farrugia, 2012)'
_computing_structure_refinement  'SHELXL-2014 (Sheldrick, 2014)'
_diffrn_ambient_temperature      273(2)
_diffrn_measured_fraction_theta_full 0.995
_diffrn_measured_fraction_theta_max 0.989
_diffrn_radiation_probe          x-ray
_diffrn_radiation_type           MoK\a
_diffrn_radiation_wavelength     0.71075
_diffrn_reflns_av_R_equivalents  0.0726
_diffrn_reflns_Laue_measured_fraction_full 0.995
_diffrn_reflns_Laue_measured_fraction_max 0.989
_diffrn_reflns_limit_h_max       22
_diffrn_reflns_limit_h_min       -20
_diffrn_reflns_limit_k_max       15
_diffrn_reflns_limit_k_min       -15
_diffrn_reflns_limit_l_max       9
_diffrn_reflns_limit_l_min       -9
_diffrn_reflns_number            8800
_diffrn_reflns_point_group_measured_fraction_full 0.995
_diffrn_reflns_point_group_measured_fraction_max 0.989
_diffrn_reflns_theta_full        25.242
_diffrn_reflns_theta_max         27.418
_diffrn_reflns_theta_min         2.049
_exptl_absorpt_coefficient_mu    2.122
_exptl_absorpt_correction_T_max  1.000
_exptl_absorpt_correction_T_min  0.870
_exptl_absorpt_correction_type   multi-scan
_exptl_absorpt_process_details   '(Blessing, 1995)'
_exptl_crystal_colour            yellow
_exptl_crystal_density_diffrn    1.84
_exptl_crystal_density_method    'not measured'
_exptl_crystal_description       Platelet
_exptl_crystal_F_000             832
_exptl_crystal_size_max          0.29
_exptl_crystal_size_mid          0.16
_exptl_crystal_size_min          0.03
_refine_diff_density_max         0.806
_refine_diff_density_min         -1.03
_refine_diff_density_rms         0.148
_refine_ls_extinction_method     none
_refine_ls_goodness_of_fit_ref   1.064
_refine_ls_hydrogen_treatment    mixed
_refine_ls_matrix_type           full
_refine_ls_number_constraints    0
_refine_ls_number_parameters     200
_refine_ls_number_reflns         3443
_refine_ls_number_restraints     12
_refine_ls_restrained_S_all      1.063
_refine_ls_R_factor_all          0.0974
_refine_ls_R_factor_gt           0.0536
_refine_ls_shift/su_max          0.001
_refine_ls_shift/su_mean         0
_refine_ls_structure_factor_coef Fsqd
_refine_ls_weighting_details
'w=1/[\s^2^(Fo^2^)+(0.0260P)^2^] where P=(Fo^2^+2Fc^2^)/3'
_refine_ls_weighting_scheme      calc
_refine_ls_wR_factor_gt          0.0904
_refine_ls_wR_factor_ref         0.1091
_reflns_number_gt                2279
_reflns_number_total             3443
_reflns_threshold_expression     'I > 2\s(I)'
_iucr_refine_instructions_details
;
TITL E_SnCl2_4ATP
CELL  0.71075  17.3280  12.1600   7.2530   90.000   95.404   90.000
ZERR     4.00   0.0140   0.0090   0.0060    0.000    0.001    0.000
LATT   1
SYMM  - X, 1/2 + Y, 1/2 - Z
SFAC  C    H    CL   N    S    SN   O
UNIT  48   60   4    8    8    4    4
MERG   2
SHEL 99999.000000 0.769629
DFIX 0.9579 0.0200 O1 H13
DFIX 0.9579 0.0200 O1 H14
DFIX 0.9579 0.0200 N1 H15
DFIX 0.9579 0.0200 N1 H16
DFIX 0.9579 0.0200 N2 H2A
DFIX 0.9579 0.0200 N2 H2B
DFIX 0.9579 0.0200 N2 H2C
DANG 1.5073 0.0400 H13 H14
DANG 1.4990 0.0400 H16 H15
DANG 1.6109 0.0400 H2C H2B
DANG 1.6066 0.0400 H2B H2A
DANG 1.5925 0.0400 H2A H2C
EQIV $1 x+1, y, z
HTAB C11 O1_$1
EQIV $2 -x+1, y-1/2, -z+1/2
HTAB C12 S1_$2
EQIV $3 x, -y+1/2, z-1/2
HTAB N2 Cl1_$3
HTAB N2 O1_$1
HTAB N2 Cl1
EQIV $4 -x+1, -y, -z+1
HTAB N2 N1_$4
HTAB O1 Cl1_$4
HTAB O1 Cl1_$2
HTAB N1 Cl1_$2
EQIV $5 x-1, -y+1/2, z-1/2
HTAB N1 Cl1_$5
FMAP   2
SIZE     0.030   0.160   0.290
ACTA
HTAB    2.00000
BOND   $H
CONF
LIST   4
WPDB  -2
L.S.  15
TEMP     0.00
WGHT    0.026000
FVAR       0.65906
SN1   6    0.502806    0.321447    0.196481    11.00000    0.02750    0.03346 =
         0.03768    0.00049    0.00152   -0.00325
CL1   3    0.975565    0.334697    0.573557    11.00000    0.04490    0.04334 =
         0.04165    0.00209    0.00327   -0.00331
S1    5    0.406740    0.282171    0.461599    11.00000    0.02599    0.03424 =
         0.02552   -0.00175   -0.00115   -0.00200
S2    5    0.553761    0.123465    0.210023    11.00000    0.02453    0.03427 =
         0.06931    0.00052   -0.00117    0.00177
O1    7   -0.049647   -0.097805    0.297256    11.00000    0.04580    0.04528 =
         0.04667   -0.00210    0.00797    0.01353
N1    4    0.130949    0.001787    0.214257    11.00000    0.03560    0.05318 =
         0.03565    0.00774   -0.01024   -0.00916
N2    4    0.895690    0.106437    0.446950    11.00000    0.02816    0.04276 =
         0.04450   -0.00085   -0.00569    0.00617
C1    1    0.327550    0.191053    0.393108    11.00000    0.02017    0.03560 =
         0.02112    0.00108   -0.00532   -0.00382
C2    1    0.336337    0.085144    0.326049    11.00000    0.02725    0.02763 =
         0.03498    0.00084    0.00756   -0.00021
AFIX  43
H2    2    0.385692    0.055702    0.322180    11.00000   -1.20000
AFIX   0
C3    1    0.271985    0.023516    0.265150    11.00000    0.03293    0.03384 =
         0.03311    0.00005    0.00128    0.00015
AFIX  43
H3    2    0.278371   -0.046950    0.219115    11.00000   -1.20000
AFIX   0
C4    1    0.197740    0.065770    0.271978    11.00000    0.03556    0.03416 =
         0.02448    0.00682   -0.00075   -0.00390
C5    1    0.188830    0.171646    0.343662    11.00000    0.02183    0.04347 =
         0.03205    0.00788    0.00149    0.00013
AFIX  43
H5    2    0.139520    0.200344    0.351831    11.00000   -1.20000
AFIX   0
C6    1    0.252914    0.232502    0.401483    11.00000    0.02958    0.03323 =
         0.03459    0.00795    0.00739    0.00275
AFIX  43
H6    2    0.246609    0.303023    0.447367    11.00000   -1.20000
AFIX   0
C7    1    0.655507    0.126821    0.274934    11.00000    0.02312    0.02686 =
         0.02539    0.00642    0.00016    0.00288
C8    1    0.691610    0.207873    0.388764    11.00000    0.03333    0.03341 =
         0.02452   -0.00557    0.00052    0.00760
AFIX  43
H8    2    0.662425    0.265621    0.429625    11.00000   -1.20000
AFIX   0
C9    1    0.770491    0.203192    0.441529    11.00000    0.03235    0.03285 =
         0.02805   -0.00263   -0.00780   -0.00329
AFIX  43
H9    2    0.794469    0.257387    0.517159    11.00000   -1.20000
AFIX   0
C10   1    0.813032    0.116527    0.379836    11.00000    0.02245    0.03947 =
         0.02098    0.00828   -0.00120    0.00576
C11   1    0.779006    0.036959    0.264885    11.00000    0.03070    0.03180 =
         0.04503   -0.00207    0.00026    0.00528
AFIX  43
H11   2    0.808423   -0.020321    0.223303    11.00000   -1.20000
AFIX   0
C12   1    0.700495    0.043266    0.211985    11.00000    0.03421    0.03598 =
         0.02937   -0.00641    0.00071   -0.00320
AFIX  43
H12   2    0.677363   -0.009703    0.132434    11.00000   -1.20000
AFIX   0
H2A   2    0.927008    0.061573    0.374775    11.00000    0.05635
H2B   2    0.916944    0.178950    0.467484    11.00000    0.06666
H2C   2    0.892894    0.068063    0.564761    11.00000    0.05307
H13   2   -0.048238   -0.167469    0.353309    11.00000    0.09441
H14   2   -0.038996   -0.106063    0.173955    11.00000    0.09083
H15   2    0.141363   -0.048387    0.120029    11.00000    0.06063
H16   2    0.088103    0.046497    0.175330    11.00000    0.02746
HKLF    4
REM  E_SnCl2_4ATP
REM R1 =  0.0536 for    2279 Fo > 4sig(Fo)  and  0.0974 for all    3443 data
REM    200 parameters refined using     12 restraints
END
;
_cod_data_source_file            Compound_1.cif
_cod_data_source_block           shelx
_cod_depositor_comments
;
The following automatic conversions were performed:

'_exptl_absorpt_correction_type' value 'Multi-scan' changed to
'multi-scan' according to
/usr/data/users/saulius/crontab/automatic-downloads/current/MDPI/lib/dictionaries/cif_core.dic
dictionary named 'cif_core.dic' version 2.4.2 from 2011-04-26.

Automatic conversion script
Id: cif_fix_values 2935 2014-11-11 08:27:57Z andrius 
;
_cod_original_sg_symbol_H-M      'P 21/c'
_cod_database_code               1518525
#BEGIN Tags that were not found in dictionaries:
_shelx_estimated_absorpt_t_min   0.578
_shelx_estimated_absorpt_t_max   0.939
_iucr_refine_reflections_details
;
   0  -1   0   -3.81    5.38
   1   1   0   35.02   11.21
   1  -1   0   55.38   13.57
   2   0   0 8768.81  115.39
   2   0   0 8943.07  117.46
  -2   0   0 8622.73  112.54
   0   0   1    9.09    8.74
   0   0  -1   42.67   11.14
   2   1   0  494.87   53.85
   2  -1   0  592.63   81.63
   1   0  -1    8.28    6.21
   1   0   1  -31.15   15.89
   0  -1   1  730.29  107.95
   0  -1  -1  759.57   98.62
   0   1   1  730.60   76.27
   0   2   0 8899.97  127.18
  -1   1   1   54.33   12.82
   1  -1  -1   66.40   20.01
   1   1  -1   33.06   13.09
   2   0  -1   24.59   16.47
   2   0  -1   27.72    9.54
   3   0   0 6553.31   99.22
   1   2   010523.24  130.66
   1   2   0 9979.58  144.58
   1  -1   1  205.78   29.06
  -1  -1  -1  211.19   27.95
  -1   1  -1  182.59   24.80
   1   1   1  219.96   32.94
   2   0   1    6.78   17.84
  -2   1   1 1372.97   50.32
   2   1  -1 1260.42   31.83
   2   1  -1 1254.74   39.22
  -3  -1   0   53.40    7.95
   3   1   0   51.16    9.32
   3  -1   0   55.33    9.99
   3   1   0   45.56   23.21
   3  -1   0   47.74   20.60
  -3   1   0   41.00    7.49
   2  -2   0 9434.68  146.32
   2   2   0 9070.35  143.65
  -2  -2   0 9226.03  108.32
   2   2   0 9069.68  107.02
   2   1   1  103.91   32.86
   3   0  -1    3.68   10.88
   0   2  -1  730.63  108.56
   0  -2  -1  676.57   72.57
   0   2   1  682.89   84.98
  -1   2   1 1469.47   41.72
   1  -2  -1 1524.21   44.71
   1   2  -1 1459.00   44.63
   1   2   1 3258.42   73.40
  -1   2  -1 3316.40   75.19
   1  -2   1 3343.66   61.79
   3   1  -1   66.54   28.81
  -3   1   1   28.30    8.73
   3   1  -1   21.30   10.91
   3  -1  -1   49.33   25.65
   4   0   016933.05  223.90
   2   2  -112036.54  174.56
   2  -2  -112243.95  176.34
  -2   2   112677.15  169.27
   3   2   0  951.79  100.97
   3  -2   0 1242.52  118.10
  -4  -1   0   95.57   12.19
   4   1   0  102.18   14.31
  -4   1   0   64.82   13.24
   4   1   0   77.47   23.38
   4  -1   0  123.40   17.92
   3   1   1 3579.28   75.87
   3  -1   1 3482.81   63.64
   0  -3   0  -11.53   14.66
   0   3   0   14.13    8.42
   2  -2   110245.53  136.68
  -2  -2  -110134.19  141.65
   2   2   1 9837.82  155.08
   2  -2   110287.70  161.69
  -1  -3   0  956.35  108.16
  -1   3   0  961.82  104.19
   1   3   0  826.06   89.60
   4   0  -1   40.25   19.23
   3   2  -1 5380.95   78.74
   3   2  -1 5370.91  104.70
  -3   2   1 5246.55   84.83
   3  -2  -1 5117.66   97.62
   4  -1  -1   -1.33   13.80
   4  -1  -1   77.05   26.73
   4   1  -1  -12.07   12.21
   4   1  -1   23.51   10.60
  -2  -3   0  916.71   94.27
   2   3   0  697.15   96.37
  -2   3   0  866.49   86.87
   2  -3   0  941.69   93.57
   2  -3   0  854.20  123.95
   2   3   0  765.66   86.65
   0   0  -216090.50  226.23
   0   0   216135.76  228.84
   1   0  -2 5842.79  108.92
  -1   0   2 5627.24  119.30
   4   0   1   95.34   33.40
   0  -3  -1  713.82  113.41
   0  -3   1  872.24  121.06
   0   3   1  746.04  117.79
   0   3  -1  780.92   81.25
   4  -2   0 5289.15  123.13
   4   2   0 5641.50  114.23
   3  -2   1 5056.68  105.26
   3   2   1 4837.74   99.85
   3  -2   1 5012.48   86.00
  -1  -3   1  232.51   33.42
   1   3  -1  260.58   32.32
   1  -3  -1  270.23   38.20
  -1   3   1  208.09   27.90
   1   0   215361.21  223.99
   0   1   2  148.12   23.69
   0  -1   2  169.95   26.16
   0  -1  -2  109.88   23.51
  -1  -1   2 1090.66  118.51
   1   1  -2 1207.70  143.63
   1  -1  -2 1170.49  130.82
  -1   1   2 1263.79  163.51
   5   0   0 4759.46   91.78
   5   0   0 4981.96  183.52
  -2   0   2   -3.20   15.13
   2   0  -2    8.71   11.14
  -1  -3  -1 3512.73   69.07
  -1   3  -1 3546.47  112.22
   1   3   1 3591.25   82.71
   4  -1   1   -9.26   25.29
   4   1   1  -28.51   23.35
   4  -1   1   24.65   13.65
   1   1   2  515.65   63.65
  -1  -1  -2  461.31   62.82
   2   3  -1  764.44  112.57
   2  -3  -1  706.35  108.77
  -2   3   1  606.41   88.59
   5  -1   0 1007.56  133.68
   5  -1   0 1076.87  109.55
   5   1   0 1098.94   42.71
   2   1  -242940.06  469.59
   2  -1  -242870.33  476.23
  -2  -1   242869.13  481.73
  -2   1   242331.18  521.86
   3  -3   0 1306.90   27.42
   3   3   0 1361.13   59.53
  -3   3   0 1328.22   30.80
   3   3   0 1230.19   52.11
  -3  -3   0 1329.83   44.89
   3  -3   0 1327.57  154.21
   4   2  -1 2287.00   66.30
   4  -2  -1 2145.56   62.04
   4   2  -1 2162.27   46.10
  -4   2   1 2184.02   55.48
   5   0  -1  -12.16   19.47
   5   0  -1  -24.17   23.01
   2   0   210035.20  161.12
   2  -3   1  886.62  134.27
  -2  -3  -1  836.81  112.56
   2   3   1  865.32  124.36
  -2   3  -1  813.86   99.24
  -3   0   2 7925.13  140.46
   3   0  -2 7797.15  131.58
   5   1  -1  162.59   30.05
   5  -1  -1  199.00   27.48
   5  -1  -1  231.30   40.89
   5   1  -1  174.38   23.80
   2  -1   2 3677.93   83.87
  -2  -1  -2 3668.17   85.15
   2   1   2 3485.36   86.92
   0   2   2 2853.90   77.32
   0  -2  -2 2848.76   73.41
   1   2  -2  880.40   93.07
  -1  -2   2 1026.99  149.96
  -1   2   2  908.60  126.81
   1  -2  -2  891.87  130.21
   3   1  -2 5695.96  113.51
   3  -1  -2 5817.89  111.31
   3   1  -2 5930.37  106.52
  -3   1   2 5668.87  143.30
   3   3  -1  467.32   57.42
  -3   3   1  377.91   61.18
   3  -3  -1  489.36   75.26
   4   2   1 8592.45  150.90
   4  -2   1 9088.08  159.67
   4  -2   1 8732.81  119.50
   1  -2   2 3442.68   79.09
   1   2   2 3333.51   87.26
   5   0   1   28.23   14.73
   5   0   1  -12.81   20.11
   5  -2   0  203.76   32.13
   5   2   0  242.68   34.86
   5  -2   0  234.35   33.68
   5   2   0  222.39   31.96
  -2   2   2 7074.26  126.54
   2   2  -2 7060.63  128.98
   2  -2  -2 7168.72  304.89
   1   4   0  -50.29   23.78
  -1   4   0   14.01   16.42
  -1  -4   0   -4.75   10.93
   1  -4   0   13.64   10.99
   4  -3   0 2076.98  146.55
   4   3   0 1959.30   70.23
   3  -3   110163.68  178.80
  -3  -3  -1 9702.14  137.08
   3  -3   1 9659.97  128.17
   3   3   1 9517.00  165.61
   5  -1   1 6326.71  296.55
   5  -1   1 6327.92  104.64
  -4   0   2 5646.09  123.29
   4   0  -2 5788.66  108.06
   4   0  -2 5445.17  119.01
   6   0   0 9145.93  161.50
   6   0   0 8776.59  144.47
  -2   4   0 7694.50  115.74
   5   2  -110338.67  135.58
  -5   2   110360.01  146.10
   5  -2  -1 9822.02  165.15
   5   2  -110362.63  176.61
   3   1   2  254.57   42.04
   3  -1   2  278.82   41.36
   2   2   2 3343.23   90.36
  -2  -2  -2 3625.31  104.07
   2  -2   2 3499.02   78.07
  -3   2   2 1244.69  120.84
   3   2  -2 1156.03  120.22
   3   2  -2 1295.54   91.92
   3  -2  -2 1176.31  135.48
   4   1  -216872.75  246.48
   4   1  -216848.28  231.05
  -4   1   216671.20  238.84
   4  -1  -216092.63  233.63
   0  -4  -1 8454.57  138.92
   0   4   1 8629.97  146.28
   0   4  -1 8273.91  133.70
   0  -4   1 8373.50  145.65
   6  -1   0  993.74  116.29
   6   1   0 1064.61   95.13
   6  -1   0  986.92  149.02
   6   1   0  898.26  107.66
   4   3  -1  453.16   65.70
  -4   3   1  329.45   57.60
   4  -3  -1  505.00   73.66
   1   4  -110921.66  170.25
  -1   4   110539.00  195.51
  -1  -4   110588.25  163.29
   1  -4  -110585.93  169.45
   6   0  -1   -3.59   18.59
   6   0  -1   33.02   24.45
  -1  -4  -115435.39  212.15
   1  -4   115244.92  230.82
  -1   4  -115310.80  205.66
   1   4   115556.91  231.82
   0   3   2  156.34   25.33
   0   3  -2  149.00   20.15
   5  -2   1 4824.34   79.23
   5  -2   1 4972.46  113.42
   5   2   1 4926.33  111.18
  -2   4   1  887.29  125.75
   2   4  -1  891.81   95.70
  -2  -4   1  970.71  116.49
   6  -1  -1  763.43  112.84
   6   1  -1  848.25  132.27
   6  -1  -1  767.18  104.09
  -1   3   2   32.21   14.83
   3  -4   0  387.76   52.89
  -3  -4   0  347.11   42.47
   3   4   0  376.64   51.29
   4  -3   1   65.68   23.50
   4   3   1  121.40   23.65
   4  -3   1  130.99   18.02
   4   0   210344.02  172.71
  -3  -2  -2 7267.69  130.27
   3  -2   2 7208.09  123.60
   3   2   2 7217.88  141.25
  -2  -4  -110135.40  148.57
  -2   4  -1 9662.07  135.75
   2   4   110195.15  180.49
   1  -3   2  287.46   42.46
   1   3   2  349.99   53.83
  -1  -3  -2  314.56   43.53
   5   3   0  159.42   34.53
   5  -3   0  135.32   38.50
   2  -3  -2   25.66   14.28
   2   3  -2   25.62   14.47
  -2   3   2   36.36   13.28
   4   2  -2  497.95   65.74
  -4   2   2  602.04   91.21
   4   2  -2  594.19   91.78
   4  -2  -2  506.06   80.81
   5   0  -2 5952.90  113.07
   6  -2   0 2229.88  117.20
   6   2   0 2138.60   76.04
   6  -2   0 2170.12   61.43
   6   0   1  -42.07   20.59
   6   0   1  -32.71   19.10
   4  -1   2 1378.42  138.03
   5  -1  -2 2869.17   77.45
   5   1  -2 2894.03   70.22
   5   1  -2 2903.78   80.04
  -5   1   2 2760.61   99.99
   3   4  -110217.06  176.09
  -3   4   1 9861.60  144.68
  -3  -4   1 9943.73  139.91
   3  -4  -1 9852.84  170.74
   6  -1   1  -16.55   16.01
   6   1   1   26.02    7.77
   6  -1   1   -1.22   23.35
   6   1   1   69.31   30.66
   5  -3  -1 3035.60  198.40
   5   3  -1 2779.22   87.14
  -2  -3  -2  280.46   37.09
   2  -3   2  279.98   37.79
   2   3   2  344.10   48.06
   6   2  -1  613.13   73.90
   6  -2  -1  792.77  105.75
   6  -2  -1  778.81  128.01
  -3   3   2 2740.92   74.66
   3   3  -2 2764.47   82.52
   3  -3  -2 2768.56   79.82
   4  -4   0  548.56   74.18
  -4   4   0  677.29   74.10
   4   4   0  610.29  128.15
  -4  -4   0  651.91   69.20
  -3  -4  -110385.41  148.69
   3  -4   110562.56  193.08
   3  -4   110460.53  140.93
   3   4   110117.46  180.69
   7   0   0 5324.76  110.39
   7   0   0 5422.13  109.87
   0  -5   0   35.70   17.54
   4  -2   2 2689.04   66.62
   4   2   2 2697.32   80.23
   7  -1   0 2915.92   68.08
   7   1   0 3035.23   87.72
   7   1   0 2934.46   79.01
   7  -1   0 2871.98  109.36
   1   0  -3   -9.50   30.85
  -1   0   3  -20.51   29.13
   5   3   1 7809.79  155.68
   5  -3   1 7797.31  105.10
   5  -3   1 7642.76  159.23
  -1  -5   0  548.58   87.82
   1   5   0  464.77   88.33
  -1   5   0  520.50   81.14
   1  -5   0  612.11   88.13
   0   0   3   19.97   10.18
   0   0  -3  -38.25   28.47
  -5   2   2 2948.41  100.59
   5   2  -2 2713.47   83.85
   5   2  -2 2608.31   61.87
   5  -2  -2 2693.16   81.61
   7   0  -1   -6.46   24.55
   7   0  -1   19.17   21.16
   4  -4  -1 2627.73   78.72
  -4  -4   1 2465.76   46.61
   4   4  -1 2812.61  292.08
   5   0   216691.17  247.13
   6  -2   1 3732.10  106.33
   6  -2   1 3783.90   87.36
   3  -3   2   -9.06   13.15
  -3  -3  -2   -1.40   19.73
   3   3   2   84.03   34.66
  -2   0   3   66.13   26.26
   2   0  -3   11.03   27.31
  -1  -1   3 1477.88  167.29
   1  -1  -3 1427.22   59.83
   1   1  -3 1225.85   57.32
  -1   1   3 1364.91  165.51
   4  -3  -2  158.12   40.44
   4   3  -2  105.98   45.85
  -4   3   2   40.58   14.08
   0   1   3 2148.51  105.84
   0  -1  -3 2006.11  211.46
   0  -1   3 1975.57  190.73
   6   0  -2 9433.41  157.21
   6   0  -2 9280.12  214.90
   7   1  -1  164.93   22.53
   7  -1  -1  158.85   27.62
   7   1  -1  139.40   20.79
   7  -1  -1  134.38   28.21
   1   0   3  -66.14   24.72
   6  -3   0  801.11   96.94
   6   3   0  706.50   76.41
  -6   3   0  772.64   79.96
   6   3   0  840.56   95.40
  -2  -5   0  371.41   41.48
   2  -5   0  452.39   61.95
   2   5   0  402.43   55.22
   5  -1   2 1390.84  136.68
   5   1   2 1387.63  146.73
  -2  -1   3   40.16   15.32
   2  -1  -3  -13.14   29.32
   2   1  -3   28.52   12.06
  -2   1   3   -4.50   31.35
   0   4  -2 1487.40  129.38
   0  -4  -2 1502.32  155.66
   0   4   2 1489.08   59.22
   1  -4  -2 5505.69  117.96
  -1   4   2 5489.84  114.86
   1   4  -2 5429.84  117.28
   6   1  -2 7866.47  155.28
   6  -1  -2 7818.54  143.41
  -6   1   2 7855.46  142.72
   4  -4   1 9954.57  129.27
   4   4   1 9526.09  180.50
   4  -4   110066.79  194.21
  -4  -4  -1 9939.38  142.01
  -1  -1  -3  226.65   32.40
   1   1   3  196.27   27.64
   0   5   1   19.61   15.35
   0  -5   1   31.99   11.18
   0   5  -1   16.08    8.41
   3   0  -3   87.80   27.87
  -3   0   3   34.90   19.20
   1  -5  -1 2535.34   74.91
  -1  -5   1 2720.36  234.61
   1   5  -1 2849.10  111.25
  -1   5   1 2807.81   74.78
  -1  -4  -2 2974.54   79.11
  -1   4  -2 3125.16   74.01
   1   4   2 3135.14   88.65
   7   2   0 2242.09   82.79
   7  -2   0 2122.52  106.39
   7  -2   0 2220.36   66.41
   6   3  -1  871.32  141.39
   6  -3  -1  969.56  140.39
   6   3  -1  935.87   98.19
  -6   3   1 1037.00  108.86
   5   4   0  238.61   34.10
   5  -4   0  120.07   23.06
  -2   4   2 1099.99   45.20
   2  -4  -2 1201.47  108.43
   2   4  -2 1122.36   58.17
   1  -5   1  212.44   38.94
  -1  -5  -1  262.67   37.10
   1   5   1  246.27   36.55
  -1   5  -1  182.66   25.97
   7   0   1    9.20   23.76
   7   0   1  -45.53   18.81
   3  -1  -3  237.47   37.31
  -3  -1   3  222.42   28.61
   3   1  -3  201.99   30.82
  -3   1   3  296.57   50.90
   1  -2  -3    9.66   16.06
  -1   2   3   -0.35   32.55
   2  -5  -1  468.00   76.13
   2   5  -1  412.16   60.88
  -2   5   1  341.28   43.40
  -2  -5   1  452.96   65.02
   3   5   0 1767.51  212.60
  -3   5   0 1951.23   81.83
  -3  -5   0 1808.42   83.62
   0   2   3 2619.88   88.69
   0  -2  -3 2481.60   77.53
   0  -2   3 2413.84  264.80
   7   2  -114175.05  187.55
   7   1   1 4453.93  111.25
   7  -1   1 4413.30  127.61
   7  -1   1 4495.55   93.95
   7   1   1 4486.80  108.44
   2  -1   3 2463.95  232.32
   2   1   3 2144.61   74.74
   5  -2   2 6544.58  116.45
   5   2   2 6332.23  136.71
  -4  -3  -2   35.31   19.78
   4  -3   2    0.63   18.86
   4  -3   2   16.84    6.41
   4   3   2    4.19   28.75
  -5   4   1 6359.79  282.74
   5  -4  -1 6360.45  298.63
  -5  -4   1 6456.91  282.33
   5   4  -1 6252.90  295.96
   2  -2  -3 3240.65  164.77
  -2  -2   3 3165.15  160.38
  -2   2   3 3283.90  359.51
  -2  -4  -2 1844.52  220.58
   2   4   2 1655.99  232.43
   2  -4   2 1583.96  281.99
  -2   5  -1   -1.06   12.48
   2   5   1   72.41   31.20
   2  -5   1  -12.15   29.41
  -2  -5  -1   11.55    6.47
   3   4  -2  -15.04   26.04
  -3   4   2   18.77    7.14
   3  -4  -2  -11.47   23.49
   5  -3  -2  129.40   21.37
   5   3  -2  125.98   29.37
  -5   3   2  128.16   12.78
   5   3  -2  168.25   19.51
   6  -2  -2 5144.03  245.14
  -6   2   2 5189.53  240.17
   6   2  -2 5459.38  259.72
  -1  -2  -3 2202.87  116.92
   1  -2   3 2346.93  268.85
   1   2   3 2336.28  128.33
  -4   0   3  -28.45   29.27
   4   0  -3   48.68   15.09
   6  -3   1 2082.43   96.69
   6   3   1 1957.25  206.52
   6  -3   1 1976.80  217.98
  -3  -5   1 3335.27  155.76
   3   5  -1 3543.35  229.05
   4  -1  -3 1089.71  128.82
   4   1  -3 1042.10   46.73
  -4   1   3 1105.53   95.98
  -4  -1   3 1024.23  114.12
   8   0   0 2505.28  255.12
   8   0   0 2621.78  178.73
   6   0   2 7897.47  361.03
  -3  -2   3 1184.18  131.11
   3   2  -3  968.27   44.83
   3  -2  -3  939.33   50.72
  -3   2   3 1164.13  119.05
   3   0   3  -11.82   27.92
   5  -4   1 6869.29  339.45
   5   4   1 7752.90  538.38
   5  -4   1 7037.38  307.03
   7   0  -2 2161.29  110.56
   7   0  -2 2245.53  128.27
   7  -2   1  879.33   75.79
   7   2   1  871.99   92.31
   7   2   1  881.03   87.98
   7  -2   1  766.22  111.13
   8   1   0 1581.11  263.38
   8  -1   0 1410.30  127.30
   8  -1   0 1359.51  169.56
   8   0  -1  -23.92   19.43
   8   0  -1  -19.07   19.45
   2  -2   3 1508.17  168.36
   2   2   3 1539.21  272.05
  -2  -2  -3 1583.54  276.40
   6  -1   2  519.02   37.76
   6   1   2  531.04   44.95
  -4  -5   0  150.94   15.43
   4  -5   0  226.61   30.12
   4   5   0  195.97   24.40
  -4   5   0  188.70   19.01
  -3   5  -1   15.12    5.47
   3   5   1   10.08   17.40
  -3  -5  -1  -24.15   14.19
   3  -1   3  169.64   27.62
   3   1   3   78.09   14.59
   3   4   2  204.69   22.65
   3  -4   2  243.37   26.43
  -3  -4  -2  251.77   25.90
   7  -3   0  757.50   36.02
   7   3   0  662.58   36.93
   7  -3   0  836.46   86.97
   7   3   0  972.41  123.10
   4   4  -2   54.86   29.84
   4  -4  -2   30.04    9.81
  -4   4   2   -5.91   14.62
   7   1  -2  378.91   42.32
   7  -1  -2  412.54   43.31
   7   1  -2  431.08   41.20
   7  -1  -2  427.73   38.47
   8  -1  -1  -19.45   16.43
   8  -1  -1   20.13   12.82
   6  -4   0 2266.38  270.54
   6   4   0 2518.11  142.70
  -1  -3   3 3723.41  184.82
  -1   3   3 3885.71  193.49
   1  -3  -3 4050.01  198.66
   0   3   3 9197.37  425.03
   0  -3   3 9668.05  440.43
  -5   0   3   46.59   13.60
   7   3  -1 2893.10  133.58
   7  -3  -1 2729.00  143.42
   7   3  -1 2549.74  136.70
  -7   3   1 2925.75  156.29
  -4   2   3 3253.42  187.67
   4  -2  -3 3067.06  160.84
   4   2  -3 3199.68  164.21
   4   2  -3 3382.72  167.50
   4  -5  -1 3058.27  200.91
  -4  -5   1 3237.39  201.40
   4   5  -1 3280.67  247.48
  -4   5   1 3207.94  150.21
   5   3   2  178.53   24.78
   5  -3   2  155.17   16.08
   5  -3   2  211.27   24.42
   2  -3  -3 2423.43  128.27
  -2   3   3 2398.97  149.10
   6   4  -1 2700.75  155.59
   6  -4  -1 2937.90  153.52
  -6   4   1 2862.35  131.72
   6  -3  -2  167.14   22.93
   6   3  -2  162.40   29.22
   6   3  -2  141.37   24.71
  -5   1   3   29.56   16.39
   5  -1  -3   -7.83   25.99
   5   1  -3    2.57   21.58
  -5  -1   3   98.67   30.63
  -1  -3  -3 3146.41  160.44
   1  -3   3 3372.57  167.50
   1   3   3 3093.47  162.00
   8   2   0 2785.17  164.81
   8  -2   0 3001.74  189.67
   8  -2   0 2724.81  129.00
   8   2   0 3093.68  315.90
   6  -2   2 2640.15  129.64
   6  -2   2 2619.10  172.94
   0  -6   0 6160.39  324.88
   0   6   0 5949.01  276.28
   3   2   3   24.81    9.21
  -3  -2  -3   11.08   25.89
   3  -2   3   50.76   11.10
   4   0   3   90.11   30.11
   0  -5   2 3886.74  191.48
   0   5  -2 3658.11  278.56
   0   5   2 3600.86  183.09
   0  -5  -2 3549.21  217.30
  -1  -5   2  884.84   72.51
  -1   5   2  802.56   44.91
   1  -5  -2  892.26  108.33
   1   5  -2  926.15   48.30
   8   0   1   21.49   28.91
   8   0   1   35.82   21.85
  -1  -6   0 2371.95  118.08
   1  -6   0 2444.12  126.72
   1   6   0 2213.38  118.30
   7   2  -2 3621.60  183.36
   7  -2  -2 3228.77  162.86
   7   2  -2 3534.22  176.91
   4  -5   1 1102.73   54.24
   4   5   1 1174.96  103.22
   4  -5   1 1110.70  127.37
  -4  -5  -1  959.30   75.64
   8   2  -1 5393.61  243.73
   8  -2  -1 5355.96  245.02
   8  -2  -1 4631.11  224.11
   8   2  -1 4583.46  223.53
  -3   3   3 3691.51  183.53
   3  -3  -3 3549.52  178.61
   3   3  -3 3384.92  170.09
   4  -4   2  100.42   20.17
   4   4   2   39.07   27.43
   4  -1   3 1395.31   60.44
   1  -5   2  881.16   92.33
   1   5   2  904.98   56.15
  -1  -5  -2  921.96  102.78
   5   5   0 1170.58  127.07
  -5  -5   0 1044.73   38.92
   5  -5   0 1219.26  111.58
   8  -1   1   63.03   16.03
   8   1   1   28.93   26.25
   8  -1   1  110.43   31.23
   2   5  -2 3316.13  165.29
  -2   5   2 3517.40  172.24
  -2  -5   2 3513.74  170.14
   2  -5  -2 3389.24  170.20
  -5   4   2  181.46   18.97
   5  -4  -2  181.02   32.02
   5   4  -2  199.37   30.54
   7  -3   1 2330.05  108.67
   7   3   1 2439.06  134.69
   7  -3   1 2379.14  256.58
   2   3   3 4773.61  234.97
   2  -3   3 4302.93  263.15
  -2  -3  -3 4671.67  225.60
  -2   6   0 6919.11  313.12
   2  -6   0 6868.51  334.02
   2   6   0 6226.15  294.85
  -2  -6   0 6979.30  314.20
   6  -4   1 4806.06  209.79
   6   4   1 4880.07  240.55
   6  -4   1 4830.51  241.38
  -5   2   3 1916.95  114.70
   5  -2  -3 2053.54  241.64
   5   2  -3 1940.57  217.70
   5   2  -3 2145.29  218.81
   7   0   2 9792.33  444.54
   0  -6   1  894.34   98.63
   0  -6  -1 1113.40   49.13
   0   6   1 1021.03   53.50
   1  -6  -1 2879.33  145.00
  -1  -6   1 2812.87  141.45
   1   6  -1 2647.27  136.18
   5  -5  -1 3425.60  174.51
  -5   5   1 3518.38  179.30
  -5  -5   1 3436.27  152.67
   5   5  -1 3466.78  177.03
   2   5   2 1869.62  107.19
   2  -5   2 1934.87  213.63
  -2  -5  -2 1809.00  178.91
   2  -5   2 1861.31  217.93
  -2   5  -2 1850.40   94.93
   6   0  -3   41.28   13.23
  -6   0   3   59.94   23.32
   3   5  -2  225.33   30.16
   1  -6   1 3855.57  234.15
  -1  -6  -1 4346.16  228.94
   1   6   1 4422.92  215.95
  -1   6  -1 4453.46  227.16
   8   0  -2 1710.44   96.14
   8   0  -2 1632.42  279.59
   4   3  -3 2482.00  133.56
  -4   3   3 2312.90  135.64
   4  -3  -3 2248.24  122.90
   7   1   2 1882.96  108.27
   7  -1   2 1985.21  133.04
   7  -1   2 1843.76   98.97
   4   2   3 1857.15  223.34
   4  -2   3 1786.32  236.03
   9   0   0 1909.43  224.65
   9   0   0 1811.26  195.83
   7   4   0 1205.03  139.35
   7  -4   0 1114.11  112.07
  -2   6   1 1871.23   99.20
   2  -6  -1 1950.79  199.61
  -2  -6   1 1868.15  199.10
   2   6  -1 2081.50  125.87
   6  -1  -3 1510.21  190.10
   6   1  -3 1368.06   54.91
  -6   1   3 1511.49  157.57
   6   1  -3 1517.56  164.29
   8  -2   111369.47  640.22
   8   2   111998.00 1627.45
   8   2   111907.33 1619.53
   8  -2   111734.56  520.15
   3  -6   0 3940.12  274.54
   3   6   0 3426.80  175.92
  -3  -6   0 4386.74  229.85
  -3   6   0 3948.01  196.88
   8  -1  -2 2865.17  145.14
   8  -1  -2 2864.88  147.69
   8   1  -2 2898.32  153.51
   8  -3   0   44.51    8.42
   8   3   0   28.76    9.36
   8  -3   0   95.82   21.73
   6  -3   2 2517.19  317.09
   6   3   2 2855.57  152.30
   6  -3   2 2480.52  129.02
   3   3   3 2862.49  158.39
   3  -3   3 2500.17  269.55
  -3  -3  -3 2613.09  270.88
   9   0  -1  -28.42   17.88
   9  -1   0 1658.94  305.42
   9   1   0 1481.08  181.25
   9   1   0 1499.28  156.14
   9  -1   0 1480.92   51.16
  -2   6  -1 8642.14  386.44
  -2  -6  -1 8890.01  398.57
   2  -6   1 8404.12  390.49
   2   6   1 9334.49  431.78
   5   0   3   35.39   18.99
  -1  -4   3  511.09   65.64
  -1   4   3  570.38   60.79
   1   4  -3  615.99   95.91
   5  -5   1  453.16   47.04
   5   5   1  414.62   43.36
   5  -5   1  540.62   56.83
  -5  -5  -1  544.33   46.20
   0  -4   3 6496.27  306.50
   0   4   3 6367.78  302.22
   0  -4  -3 6408.17  301.87
   7   3  -2   70.20   28.05
   7   3  -2   74.45   12.57
   7  -3  -2   94.01   37.45
  -7   3   2  122.89   10.72
   7   4  -1 9156.58  425.78
  -7   4   1 9704.54  426.67
   7  -4  -1 9598.66  443.10
   8   3  -1 1261.67   60.84
   8   3  -1 1189.23   68.29
   8  -3  -1 1174.32  113.46
  -8   3   1 1226.75   50.90
   5  -4   2    0.11   30.98
   5   4   2  -55.43   32.99
   5  -4   2   34.61    9.66
   9   1  -1  134.19   19.48
   9  -1  -1  225.88   33.10
   9  -1  -1  119.97   21.22
   9   1  -1  177.02   26.64
   3  -5   2  164.82   20.03
  -3  -5  -2  110.83   15.24
   3   5   2  119.05   28.85
   3  -5   2  152.73   17.46
   2  -4  -3  405.98   46.00
   2   4  -3  413.50   51.57
  -2   4   3  339.26   36.72
   5  -1   3  143.12   15.51
   4   5  -2 3413.13  173.29
   4  -5  -2 3198.32  165.98
  -4   5   2 3554.94  171.21
  -6   4   2   87.71    9.72
   6  -4  -2   77.24   31.45
   6   4  -2   59.25   16.41
  -3   6   1  705.21   77.75
   3   6  -1  772.15   96.26
   3  -6  -1  759.73   83.62
  -3  -6   1  697.34   61.52
   1   4   3  441.92   75.34
   1  -4   3  368.99   46.08
  -1  -4  -3  374.31   45.14
   7  -2   2 2459.46  122.96
   7   2   2 2530.16  289.05
   7  -2   2 2660.18  309.26
   6   5   0   53.51   15.70
   6  -5   0   27.39   17.18
   6  -2  -3 2421.12  130.19
  -6   2   3 2685.08  159.38
   6   2  -3 2513.86  313.30
   8  -2  -2 2176.09  122.15
   8   2  -2 2274.19  126.02
   5  -3  -3 5697.20  272.71
   5   3  -3 5528.16  266.55
  -5   3   3 5745.45  309.56
  -4   6   0 7898.63  349.10
  -4  -6   0 7604.60  345.82
   4   6   0 8310.28  474.69
   4  -6   0 7318.97  352.38
  -3   6  -1 4363.43  199.76
   3  -6   1 4396.94  498.99
  -3  -6  -1 4595.93  212.60
   3   6   1 4607.48  230.99
   3   4  -3  567.30   52.49
  -3   4   3  422.75   38.02
   3  -4  -3  413.86   38.32
   9   2   0 2834.68  180.91
   9  -2   0 2589.51  124.84
   9   2   0 2776.69  151.35
   9  -2   0 2776.69  158.24
   6   5  -1 2635.75  145.45
  -6   5   1 3108.13  143.19
   6  -5  -1 2871.53  153.90
   7   4   1 2918.72  223.40
   7  -4   1 2969.05  182.62
  -2  -4  -3  411.34   38.22
   2  -4   3  393.37   37.55
   2   4   3  371.97   44.81
  -1   0   4  791.13   70.03
   1   0  -4  812.52   87.86
   9   2  -117355.41 2350.38
   9  -2  -117131.68 2323.35
   9   2  -115312.46 2079.07
   9  -2  -115288.90 2075.42
   9   0   1  -89.38   23.42
   9   0   1   -6.25   20.67
   4  -3   3 2920.96  146.44
   4   3   3 2686.57  147.89
  -7   0   3   42.10   16.88
   7   0  -3  -42.31   24.58
   5  -2   3  410.02   41.06
   0   0   4 1478.66  180.46
   0   0  -4 1334.84   70.08
   8   3   1   87.21   14.32
   8  -3   1   90.26   14.61
   2   0  -4  398.63   35.01
  -2   0   4  522.42   58.55
   4   6  -1   18.11   30.13
  -4  -6   1    9.71    4.56
  -4   6   1   41.73   11.09
   4  -6  -1   72.77   30.88
  -1   1   410431.81  497.73
  -1  -1   4 9961.53  555.77
   1  -1  -4 8567.91  398.28
   4  -5   2 1082.76  112.08
   4   5   2 1240.56  119.24
  -4  -5  -2 1067.28   44.13
   4  -5   2 1069.39  133.50
   9   1   1   -8.31   17.82
   9  -1   1   36.89   14.08
   9  -1   1  -22.96   16.55
   9   1   1  -13.86   23.05
   7   1  -3 1571.24  279.24
   7  -1  -3 1574.67  222.89
  -7   1   3 1464.69  163.00
   0  -1  -4 8214.07  384.34
   0   1   4 8370.03  549.09
  -5   5   2  122.83   12.30
   5  -5  -2  154.54   19.11
  -2   1   4 3645.25  387.73
   2  -1  -4 3728.21  191.83
   2   1  -4 3869.92  428.81
  -2  -1   4 3834.24  203.62
   8   0   2  166.61   18.94
   8   0   2  168.63   14.72
   1   0   4 1605.31  260.91
   4  -4  -3 8849.95  411.79
   4   4  -3 8774.83  406.17
  -4   4   3 8560.96  393.76
   6  -5   1  -23.64   35.62
   6   5   1   28.59   39.50
  -3   0   4 2506.85  276.60
   3   0  -4 2236.31  126.10
   0  -6  -2 2432.26  263.68
   0   6   2 2736.21  233.24
   0  -6   2 2456.74  249.09
   1  -6  -2 4240.56  206.73
  -1  -6   2 4411.69  214.90
   1   6  -2 4223.03  204.46
  -1   6   2 4424.54  216.14
   6   0   3  -16.71   18.97
   9   0  -2  606.84   61.48
  -4   6  -1  862.57   28.74
   4   6   1  772.92   52.51
   4  -6   1  970.89   83.85
  -4  -6  -1  854.64   36.55
   8  -1   2 2415.17  168.35
   8  -1   2 2274.18  235.42
   8   1   2 2450.04  278.61
   1   1   4 9303.94  433.51
  -1  -1  -4 8939.90  414.74
   8   4   0  397.64   44.24
   8  -4   0  380.07   32.27
   7  -3   2 2211.29  246.22
   7  -3   2 2165.09  107.88
   6   4   2   93.31   23.66
   6  -4   2   76.13   18.59
   6  -4   2   98.35   14.87
   3   4   3  550.04   51.54
  -3  -4  -3  457.72   48.11
   3  -4   3  446.84   61.45
  -3   1   4 4337.58  225.14
   3  -1  -4 4435.88  149.11
   3   1  -4 4469.55  147.37
  -3  -1   4 4382.51  192.87
   1  -6   2 4826.92  156.91
  -1   6  -2 4620.61  159.10
  -1  -6  -2 4968.62  150.78
   1   6   2 4891.18  160.07
   6   3  -3 2059.94  204.00
   6   3  -3 2044.63  103.74
   6  -3  -3 2098.96  291.02
  -6   3   3 1991.31   89.25
  -5   6   0 3595.07   89.10
  -5  -6   0 3777.17  125.16
   5   6   0 3817.53  391.66
   6   1   3 1765.75  196.30
   6  -1   3 1883.27  179.31
   2  -6  -2 2530.28  289.48
   2   6  -2 2308.57   93.66
  -2  -6   2 2621.91  190.31
   7  -4  -2   30.61   15.30
  -7   4   2   40.69   11.45
   9  -1  -2  983.97   60.48
   9   1  -2 1039.96   94.51
   9  -1  -2 1019.64  125.34
   9   1  -2 1242.23   67.84
   8   3  -2   37.94    7.74
  -8   3   2   42.21   13.41
   8   3  -2   32.40   29.16
   8   4  -1 4505.11  153.41
   8  -4  -1 4524.49  151.96
  -8   4   1 4722.52  144.02
  -1   2   4 1113.43  195.26
   1  -2  -4 1084.30   63.81
   0  -7   0   22.37   17.62
   0   7   0   31.54   22.24
   9  -2   1 5766.27  157.84
   9  -2   1 5957.86  190.43
   9   2   1 6247.05  247.84
   9   2   1 5571.57  180.16
   7   2  -3 1079.58  139.23
   7  -2  -3 1113.99  164.29
   7   2  -3 1266.61   70.05
  -7   2   3 1172.36  116.37
   9   3   0  415.69   77.12
   9  -3   0  258.81   50.90
   9  -3   0  179.00   28.32
   9   3   0  216.66   46.66
   7   5   0  222.87   42.92
   7  -5   0  216.90   36.77
   0  -2   4  281.30   54.10
   0   2   4  240.16   55.29
   0  -2  -4  187.88   38.04
  -1  -7   0   30.80    8.71
   1  -7   0   30.68   14.00
  -1   7   0   27.46   12.26
  -2   2   4 3297.97  147.51
   2  -2  -4 3463.46  126.95
  -2  -2   4 3463.16  362.08
  10   0   0 6724.96  229.53
  -4   0   4  242.06   47.32
   4   0  -4  234.71   48.08
  -9   3   1   23.30    6.46
   9  -3  -1  -21.63   30.12
   9   3  -1   41.84   13.52
  -5  -6   1    7.40    3.40
   5   6  -1  -23.44   28.10
  -5   6   1    9.57    6.02
   5  -6  -1   35.83   11.70
   2  -1   4 3135.66  340.89
   2   1   4 3242.81  126.16
  -2  -6  -2  509.70   83.78
   2  -6   2  511.67   93.48
  -2   6  -2  514.89   75.90
   2   6   2  578.86   91.32
  10   0  -1  -32.21   19.76
   5   3   3 1243.48  138.63
   5  -3   3 1094.86   81.54
   1  -5  -3 6686.11  196.83
  -1   5   3 6518.89  195.17
   1   5  -3 6542.63  191.74
   3  -6  -2 3614.38  126.89
   3   6  -2 3609.34  129.49
  -3   6   2 3796.96  120.89
  -3  -6   2 3717.57  115.81
   0  -5   3 3826.02  152.95
   0  -5  -3 3769.11  246.68
   0   5   3 3940.03  138.75
   5   4  -3  954.46  118.98
   5  -4  -3  989.60  106.98
  -7   5   1 2064.05   62.05
   7   5  -1 1825.55   94.27
   7  -5  -1 2224.14  298.30
  10  -1   0  -10.52   17.15
  10  -1   0  -18.44   31.96
  10   1   0   10.63    9.86
   8   2   2  405.76   83.60
   8  -2   2  437.67   65.75
   8  -2   2  432.05   73.48
   4   1  -4 2225.31   92.65
  -4  -1   4 2114.88  268.10
  -4   1   4 2085.33  218.43
   4  -1  -4 2262.99   95.55
   1   2   4  192.58   63.09
  -1  -2  -4   66.69   33.18
   1  -2   4  167.71   28.97
   2  -7   0   30.88   11.42
   2   7   0   52.82   16.01
  -2  -7   0   -8.71   12.53
   5  -5   2  363.99   58.75
   5  -5   2  296.32   51.18
   5   5   2  406.01   74.35
  -5  -5  -2  310.35   49.43
   3  -2  -4  659.13  102.86
  -3  -2   4  484.50   97.97
  -3   2   4  422.48   83.00
  -2   5   3 5923.82  181.14
   2  -5  -3 5384.09  171.09
   2   5  -3 5795.21  179.56
  10   1  -1  924.41   88.65
  10  -1  -1 1015.74   52.55
  10   1  -1  982.61  111.50
  10  -1  -1  810.96  175.02
   6  -2   3 1823.39  169.71
   6   2   3 2068.23  234.78
   6   5  -2 1492.75  143.58
  -6   5   2 1513.84   60.11
   6  -5  -2 1350.14  205.72
   9   2  -2  303.98   50.97
   9   2  -2  232.57   47.94
  -9   2   2  209.64   37.36
   9  -2  -2  247.28   48.02
  -1  -5  -3 3216.56  114.34
   1  -5   3 3100.22  108.50
   1   5   3 3264.48  121.97
   0  -7  -1   87.95   22.93
   0   7  -1   72.26   17.60
   0  -7   1  134.17   24.61
   8   0  -3    3.52   12.06
  -1  -7   1  252.83   44.13
  -1   7   1  177.20   28.35
   1  -7  -1  226.30   40.36
   4  -4   3 2290.69   83.79
  -4  -4  -3 2342.67  208.44
   4   4   3 2458.78  106.72
   5   6   1 1533.08   83.81
  -5  -6  -1 1291.74   47.82
   8   4   1 4535.66  161.70
   8   4   1 5089.57  137.13
   8  -4   1 4971.83  183.26
   3   0   4   -9.33   34.80
  -1   7  -1  719.21  135.86
   1  -7   1  702.60  122.58
   1   7   1  766.37  117.47
  -1  -7  -1  708.43  120.30
  -8   1   3   27.07   12.73
   8   1  -3  -24.98   28.36
   8  -1  -3   -6.05   19.71
   8   1  -3   55.07   15.46
   3   5  -3 5819.57  197.05
  -3   5   3 5835.39  176.33
   2   2   4  152.82   31.46
   2  -2   4  105.53   25.54
   3   6   2 6579.05  204.51
   3  -6   2 6687.00  213.20
  -3  -6  -2 6611.67  182.33
   3  -6   2 6952.70  184.00
  -5   0   4  142.03   29.92
   5   0  -4   98.23   20.64
   2   7  -1   10.46   18.65
  -2  -7   1   37.13    9.25
   2  -7  -1   28.74   11.06
  -3   7   0   -8.82   14.38
  -3  -7   0   29.91   13.42
   3  -7   0   -1.69   20.80
   4   6  -2 1648.28  166.27
  -4  -6   2 1363.75  134.30
  -4   6   2 1415.07   64.31
   3  -1   4 7051.25  209.32
  10   2   0 3230.62  147.52
  10  -2   0 2930.13  354.78
  10  -2   0 2747.65   87.16
  10   2   0 3270.26  394.61
   7  -5   1   85.06   27.80
   7   5   1  104.95   30.84
  -4   2   4  224.39   40.44
   4   2  -4  221.30   39.14
  -4  -2   4  263.79   44.86
   4  -2  -4  234.46   42.01
   2   5   3 1568.97  206.02
   2  -5   3 1395.24  140.57
  -2  -5  -3 1530.90   69.58
   6   6   0 8047.89  242.53
   6  -6   0 7769.71  234.19
  -1  -3   4  943.06  102.28
  -1   3   4  992.55   67.74
   1  -3  -4  922.51  268.50
   9   3   1  564.54  108.69
   9  -3   1  498.80   88.19
   9  -3   1  676.37  123.24
   9   3   1  636.37  102.21
   7   3  -3 3932.96  172.12
   7  -3  -3 3825.53  133.45
   7   3  -3 3844.27  139.23
   2   7   1  261.89   57.94
  -2   7  -1  216.40   36.63
   2  -7   1  298.28   48.06
  -2  -7  -1  244.20   41.72
  10   2  -1 1655.26   89.85
  10  -2  -1 1900.48  190.63
  10   2  -1 1775.08   64.51
  10  -2  -1 1827.70  249.28
  -5  -1   4 4081.68  427.11
   5   1  -4 3831.68  133.27
   5  -1  -4 3865.73  136.96
  -5   1   4 3934.80  157.92
   0   3   4  821.08  134.01
   0  -3   4  680.75  123.76
   7   0   3   69.80   26.97
   2  -3  -4  928.34   98.32
  -2   3   4 1003.17  103.20
  10   0   1  -50.04   22.59
   7  -4   2 1333.86  160.35
   7  -4   2 1152.78   68.13
   7   4   2 1396.59   82.37
   6   6  -1  962.84   67.37
   6  -6  -1 1170.47  124.46
  -6   6   1  820.43  141.23
   6  -4  -3 1949.13  110.34
   6   4  -3 1868.54  209.30
  -6   4   3 1961.99  131.38
   8   4  -2  399.32   77.86
   8  -4  -2  334.56   59.65
  -8   4   2  367.72   64.63
   7  -1   3 3009.93  108.64
   7   1   3 3086.11  118.84
   9   0   2 3505.41  238.51
   9   0   2 3786.62  129.43
   3  -7  -1   14.84   22.96
  -3  -7   1    3.20    4.27
   3   7  -1   33.16   17.48
  -3   7   1  -17.76   16.52
   8   3   2 1275.91  175.39
   8  -3   2 1198.25   51.09
   8  -3   2 1188.70  103.84
  10  -1   1  -10.33   19.83
  10   1   1  -19.71   25.09
  10  -1   1   -2.60   29.20
  10   1   1   30.19   14.14
   1  -3   4  998.38  127.11
  -1  -3  -4  934.98   62.33
   1   3   4  949.80   73.02
   4   5  -3 2461.57  275.94
   4  -5  -3 2150.85  113.31
   8  -2  -3 1200.19   65.53
   8   2  -3 1374.46  108.73
   3  -3  -4  172.65   46.66
  -3  -3   4  203.46   39.34
  -3   3   4   99.35   31.62
   9   4   0  199.26   36.63
   9  -4   0  151.90   28.19
   6  -3   310569.71 2845.29
   6  -3   310583.98 2851.91
   6   3   310516.67  298.73
   3   2   4   38.14   39.33
   3  -2   4   -1.22   23.82
  10   0  -2  732.86  116.81
  10   0  -2  724.24  125.62
   9  -3  -2   -0.04   28.94
   9   3  -2    3.29    8.31
  -9   3   2   30.21    9.36
   9  -1   2 2368.74  240.88
   9  -1   2 2326.92  349.97
   9   1   2 2495.86  260.84
   9   1   2 2023.44   92.09
   8  -5   0  168.01   32.47
   8   5   0  122.14   40.20
   4   0   4  754.21  115.21
   6  -5   2  -38.31   38.70
   6  -5   2    0.63    9.19
   6   5   2   84.24   63.18
   4   7   0  510.77   98.97
  -4  -7   0  460.92   79.15
  -4   7   0  548.73  110.46
   4  -7   0  640.17  107.26
   3  -7   1  182.72   33.10
  -3   7  -1  211.04   34.98
   3   7   1  156.78   40.56
  -3  -7  -1  224.81   38.06
   3  -5   3  499.94   81.78
   3   5   3  540.28   90.43
   3  -5   3  449.36   77.35
  -3  -5  -3  564.20   86.61
  -9   4   1 6122.64  170.07
   9  -4  -1 5768.36  187.51
   9   4  -1 6045.47  198.14
   4  -6   2  554.80  105.52
   4   6   2  470.13   81.95
   4  -6   2  450.71   87.29
  -4  -6  -2  444.02   74.08
   5   4   3 1650.19   95.47
   5  -4   3 1409.05  164.25
   5  -4   3 1469.86  124.15
  -5   2   4   68.18   18.05
   5  -2  -4   -9.06   17.82
   5   2  -4   12.99   11.10
  -5  -2   4   71.57   35.41
  -5   6   2 2159.10   79.56
   5   6  -2 2189.53  266.27
   5  -6  -2 2083.69   95.27
  -5  -6   2 2067.55   70.61
  10   1  -2  925.28  117.09
  10  -1  -2  960.65   96.10
  10   1  -2  913.20  251.62
  10  -1  -2  897.82  247.05
   7   5  -2  635.84  110.36
   7  -5  -2  551.41  101.02
  -7   5   2  576.18   84.66
  -8   5   1  379.90   64.71
   8   5  -1  467.90   83.19
   8  -5  -1  524.12   92.83
   6   0  -4 3473.57  384.96
  -6   0   4 3109.58  135.13
   4   1   4 2584.76  306.22
   4  -1   4 2324.36  290.15
   6  -6   1  354.69   65.37
   6   6   1  508.46   87.01
   2   3   4  276.52   61.95
  -2  -3  -4  402.80   70.91
   2  -3   4  358.87   61.70
   7   2   3 1191.58   77.82
   7  -2   3 1105.56  134.37
  10   3   0  161.27   25.81
  10   3   0  140.70   34.93
  10  -3   0   88.59   16.87
  10  -3   0  212.66   39.60
  -4   3   4   50.26   16.30
   4  -3  -4   62.82   38.67
  10   2   1 5703.07  187.77
  10  -2   1 5659.92  158.81
  10  -2   1 5727.06  233.75
  10   2   1 5800.99  231.90
  -4  -7   1  948.54   68.51
   4   7  -1  987.13  151.25
  -4   7   1  795.99  153.09
   4  -7  -1  965.92  120.79
   6   1  -4 1011.78  117.84
   6  -1  -4  959.69  131.74
  -6   1   4  802.80  129.32
  -6  -1   4  804.54  136.84
  10  -3  -1 1709.11  179.57
  10  -3  -1 1319.28  106.92
  10   3  -1 1533.80   78.47
  10   3  -1 1679.43  206.44
   5   5  -3 3866.58  166.97
   5  -5  -3 3895.71  143.25
  -5   5   3 3656.86  122.92
   9  -2   2 1701.01  174.03
   9   2   2 1907.03  243.97
   9  -2   2 2099.88  261.20
   9   0  -3  -42.06   24.91
  11   0   0 7654.59  217.53
  11   0   0 8042.04  365.33
   0  -7  -2 2261.99   92.13
   0   7   2 2270.30  105.03
   0  -7   2 2293.26  258.06
   0   7  -2 2288.65   88.21
   7  -6   0 2225.52  217.33
   7   6   0 2275.69  250.72
  -1  -7   2  499.63   90.05
   1  -7  -2  484.39   80.76
   1   7  -2  560.53   86.10
  -1   7   2  505.68   96.25
  11   0  -1   34.46   14.79
  11   0  -1  -48.26   23.38
  10  -2  -2  450.31   80.30
  10  -2  -2  511.15   84.40
  10   2  -2  475.82   79.16
  10   2  -2  496.42   95.90
  -4   7  -1  134.97   21.87
   4  -7   1  151.61   29.04
  -4  -7  -1  205.03   37.27
   4   7   1  136.59   32.76
   9   1  -3 1773.91  162.47
   9  -1  -3 1608.33  224.87
   9   1  -3 1757.12  231.59
  -9   1   3 1957.85  182.84
   4   2   4   38.08   23.85
   4  -2   4   10.28   10.37
   8   3  -3 1466.84  194.21
   8   3  -3  998.95   48.83
   8  -3  -3 1145.42   66.85
  -8   3   3 1163.11   97.32
  -1   4   4   65.75   18.59
   9  -4   1 1769.74  144.13
   9   4   1 1914.26  106.29
  11   1   0  787.89  149.39
  11  -1   0  814.90  138.40
  11   1   0  949.31   75.35
   4  -5   3 1347.82  137.27
   4   5   3 1280.76   79.86
  -4  -5  -3 1323.74  144.57
  -7   4   3  130.74   26.58
   7  -4  -3  163.68   44.36
   7   4  -3   97.95   29.20
  -1   7  -2  685.57  129.83
  -1  -7  -2  727.79  118.57
   1   7   2  757.78  135.77
   1  -7   2  876.47  145.30
   1   6  -3 1481.39  177.56
   1  -6  -3 1747.64  179.49
  -1   6   3 1711.81   85.73
  -1  -6   3 1477.66  162.32
   0  -4  -4   39.45   40.58
   0  -4   4  -32.46   27.68
   0   4   4   51.41   23.46
   5   7   0  568.99  107.64
   5  -7   0  524.73  101.99
  -5   7   0  422.37   74.33
  -5  -7   0  395.67   63.13
   8  -5   1   10.28   31.15
   8   5   1  -14.33   39.56
  -2   7   2 1190.82  147.43
   2   7  -2 1295.26   70.05
   2  -7  -2 1416.17  153.76
  -2  -7   2 1370.19  119.59
  11  -1  -1   98.45   34.44
  11   1  -1  117.98   25.24
  11   1  -1  108.55   23.01
   0   6   3  110.67   33.31
   0  -6  -3   81.36   19.40
   0  -6   3   77.95   14.63
   3   3   4  429.66   74.75
   3  -3   4  356.54   60.80
  -3  -3  -4  338.71   60.01
  -2  -4   4   26.88   39.07
   2  -4  -4  -59.83   31.05
  -2   4   4   51.89   31.74
   7   6  -1  445.69   83.19
   7  -6  -1  574.21   94.44
  -7   6   1  449.98   81.02
  -6  -2   4  191.70   36.78
  -6   2   4   93.55   24.92
   6  -2  -4  161.06   29.88
   5   6   2 4432.10  167.85
  -5  -6  -2 4356.57  358.38
  -2   6   3  609.96   94.01
   2   6  -3  598.74  102.95
   2  -6  -3  477.39   79.63
   5   0   4   -3.55   26.07
   5  -3  -4  -14.93   33.37
  -5   3   4  -23.71   25.37
  -5  -3   4   79.92   28.61
   6  -6  -2 1723.05  255.05
   6   6  -2 1808.50  223.90
  -6   6   2 1617.67   70.26
   8   0   3    8.45   14.54
  -1  -6  -3  246.69   71.17
   1  -6   3  227.78   66.30
   1   6   3  234.31   80.03
   1  -6   3  307.00   93.96
   8  -4   2  136.69   53.98
   8   4   2  159.23   74.13
  -1  -4  -4  555.32   58.57
   1   4   4  619.85   72.55
   1  -4   4  601.52   74.68
  -5  -7   1  339.32   98.65
   5   7  -1  413.14  121.16
   5  -7  -1  470.39   76.65
  -5   7   1  349.44  103.61
  -3   4   4  541.92   62.54
  -3  -4   4  447.42   65.77
   3  -4  -4  560.90   69.88
  -2  -7  -2 3293.73  382.94
   2  -7   2 3381.70  444.25
  -2   7  -2 3104.42  214.34
   2   7   2 3544.43  344.05
   5  -1   4 3782.14  258.79
   5   1   4 3653.07  254.57
   6  -4   3 4507.22  297.11
   6   4   3 5119.03  345.96
   6  -4   3 5295.99  420.40
   7   0  -4   90.79   27.61
  -7   0   4  -40.81   31.35
   3   7  -2  469.91   54.91
  -3   7   2  664.02   60.50
  -3  -7   2  487.70   59.52
   3  -7  -2  584.49   77.67
   9  -4  -2  -22.13   32.01
  -9   4   2   60.61   20.78
   9   4  -2  107.09   33.08
   9   4  -2   46.85   13.64
   7  -3   3 2210.94  284.13
   7  -3   3 2142.09  149.29
   8   1   3 1057.87   89.45
   8  -1   3 1096.01  135.81
   9   2  -3  478.70   57.07
  -9   2   3  522.93   64.02
   9  -2  -3  514.53   78.12
   9   2  -3  328.14  106.37
  10   3   1   15.52    7.68
  10   3   1   48.57   43.27
  10  -3   1   93.07   34.88
   7  -5   2   -0.75    3.38
   7   5   2   77.80   46.19
   7  -5   2  -13.54   29.04
   3  -6  -3   64.80   26.50
  -3   6   3   69.11   22.42
   0   8   0 2639.55  330.15
   0  -8   0 2696.88  332.66
  11   2   0 4161.60  286.53
  11  -2   0 3573.82  235.29
  11  -2   0 4014.27  285.57
  11   2   0 3788.72  266.65
   6   5  -3  796.89   83.04
  -6   5   3  788.95   67.39
   6  -5  -3  756.48  121.19
  -7   1   4 2982.97  217.80
  -7  -1   4 3256.63  253.21
   7  -1  -4 3049.08  218.45
  -1  -8   0 1642.86  154.80
  -1   8   0 1539.22  223.59
   1   8   0 1817.11  230.87
   1  -8   0 1661.26  129.80
  11  -2  -1 5371.47  347.87
  11   2  -1 5203.06  335.87
  11   2  -1 5200.43  347.60
  11  -2  -1 5160.50  343.89
   8  -5  -2 3846.73  266.51
  -8   5   2 3384.62  238.67
   8   5  -2 3973.65  417.28
   9  -3   2  241.28   70.67
   9   3   2  349.97  106.56
   9  -3   2  400.13  115.78
   7  -6   1    4.31   22.33
   7   6   1   70.02   43.71
   2  -6   3   87.73   39.97
   2  -6   3   97.26   31.58
  -2  -6  -3   23.89   14.28
   2   6   3  104.25   55.97
   2  -4   4  398.89  113.33
   2   4   4  400.59  117.66
  -2  -4  -4  458.62   57.10
   9  -5   0  661.26   89.85
   9   5   0  513.82   57.52
   5   7   1   96.40   49.66
   5  -7   1   96.67   44.64
   5  -7   1   72.88   21.85
  11   0   1   32.94   18.08
  11   0   1   -3.38   24.75
  10   0   2   55.99   20.99
  10   3  -2  346.88   99.71
  10   3  -2  360.66  102.40
  10  -3  -2  529.82   56.91
 -10   3   2  437.10   46.35
  10  -4   0  138.56   43.12
   4   4  -4  750.85   97.91
  -4   4   4  556.09   65.61
   4  -4  -4  614.14  107.91
   4   3   4  -28.34   33.72
   4  -3   4  111.46   34.63
   2  -8   0 1785.32  225.44
  -2  -8   0 1702.94  208.07
  -2   8   0 1903.78  133.17
   9   5  -1  775.45  104.56
   9  -5  -1  779.81  115.41
   3   7   2 1329.73  111.06
  -3   7  -2 1056.39  125.17
  -3  -7  -2 1300.61  147.34
   3  -7   2 1150.81  124.46
   5  -2   4  128.95   44.59
  10  -4  -1 3739.83  295.70
 -10   4   1 3883.60  264.91
   5  -5   3  115.10   38.82
   5   5   3   -2.77   38.76
   5  -5   3   72.72   22.15
  -5  -5  -3  103.82   36.23
  11   1   1   34.78   13.41
  11  -1   1   67.47   36.47
  11   1   1   47.24   21.97
  10  -1   2  153.28   46.89
  10   1   2  170.55   54.04
  10  -1   2   56.35   21.84
  10   1   2  165.81   47.53
   4  -7  -2 1100.69  138.73
  -4  -7   2  860.61   98.84
   4   7  -2  866.54   82.66
  -4   7   2 1013.17   81.24
  11   0  -2  278.45   82.17
  11   0  -2  298.37   86.08
   8   2   3 1700.01  206.81
   8  -2   3 1734.63  205.60
   8  -2   3 1675.92  166.89
   4   6  -3  610.50   77.65
  -4   6   3  478.68   45.55
   0  -8  -1   60.29   26.54
   0   8   1   79.82   35.53
   0   8  -1   96.88   27.70
   0  -8   1   63.83   23.73
   6   7   0  477.66   78.50
   6   3  -4   -1.34   19.40
   6  -3  -4   92.18   41.97
   6   3  -4  -33.90   34.81
  -6   3   4   -8.21   25.33
   1  -8  -1 2960.16  205.79
  -1   8   1 2761.08  193.01
  -1  -8   1 2908.25  269.33
   1   8  -1 2777.52  193.15
   7  -2  -4   -5.73   28.99
   7   2  -4    5.14   11.47
   7   2  -4    1.75   20.63
  -7   2   4  -18.92   26.77
  -7  -2   4  -91.55   37.21
  11  -1  -2  354.04  102.84
  11   1  -2  187.50   53.29
  11   1  -2  178.78   57.80
  -1  -8  -1  372.61  105.95
   1  -8   1  586.01   68.31
  -1   8  -1  388.54  115.91
   8  -6   0 4936.18  336.52
   8   6   0 4984.00  341.18
   6   6   2  273.13   92.41
   6  -6   2  293.19   86.13
   6  -6   2  261.33   77.16
  -6  -6  -2  228.86   65.40
   8  -4  -3  435.85   62.14
   8   4  -3  299.85   92.88
  -8   4   3  453.09   51.94
   3   6   3  291.08   89.45
   3  -6   3  308.34   96.82
   3  -6   3  269.22   78.70
  -3  -6  -3  367.24  107.35
   2  -8  -1  559.18   57.03
  -2   8   1  386.07  109.30
  -2  -8   1  470.49   50.98
  -6   7   1  166.57   48.57
   6   7  -1  197.60   66.11
  -3   8   0 1388.44  182.50
  -3  -8   0 1135.49  161.05
   3   8   0 1168.33  138.22
   3  -8   0 1315.93  183.11
  10   0  -3  -42.98   27.13
  10   0  -3   -3.92   25.51
  -3  -4  -4  334.17  102.32
   3   4   4  255.83   81.49
   3  -4   4  215.49   65.50
  -7   6   2   36.47   18.82
  -7  -6   2   63.09   20.27
   7   6  -2   60.00   30.53
   7  -6  -2   91.14   29.71
   6   0   4  627.81   83.29
   9   3  -3 4460.95  297.06
   9  -3  -3 4830.02  356.84
  -9   3   3 4277.75  411.35
   9   3  -3 4451.65  549.21
   8   6  -1  895.00   93.17
   8  -6  -1 1065.22  177.76
  11   3   0   41.44   13.28
  11   3   0    1.85   16.36
  11  -3   0   52.83   23.93
  11  -3   0   51.01   18.92
   2  -8   1  110.84   33.57
   2   8   1  173.48   50.64
  -2  -8  -1  179.25   53.67
  -2   8  -1   83.24   25.06
   5  -4  -4  233.63   77.35
   5   4  -4  295.24   90.04
  -5   4   4  208.44   59.94
  11   2   1 6277.87  407.96
  11   2   1 5901.80  396.24
  11  -2   1 6614.34 1747.48
  11   3  -1  657.03   82.29
  11  -3  -1  697.56   83.07
  11   3  -1  953.67  128.18
  10  -1  -3  895.98  110.69
  10   1  -3  853.76   86.16
  10   1  -3  760.01   79.63
  10   2   2  245.95   69.87
  10  -2   2  214.76   65.58
  10  -2   2  305.03   87.63
  10   2   2  152.37   53.83
   6   1   4   10.66   22.61
   6  -1   4    8.52   25.65
   1  -5  -4 2956.26  211.92
  -1   5   4 2935.81  385.45
  -1  -5   4 2992.03  236.47
   8   0  -4 1115.80  160.66
  -8   0   4 1033.72  141.10
  -4  -7  -2 2808.90  284.39
   4  -7   2 2800.13  411.50
   4   7   2 3097.42  222.73
   9   5   1  147.35   43.04
   9  -5   1  301.77   89.50
   9   5   1  215.31   74.51
  -7   5   3  681.01  106.65
   7  -5  -3  798.27   88.70
   7   5  -3  668.62   70.16
   1   0  -5   23.32   31.88
  -1   0   5   40.71   21.97
   0   5   4  390.76  113.47
   0  -5   4  399.47  114.69
   0  -5  -4  365.69  107.59
   5   7  -2  605.19   64.44
  -5   7   2  553.52   82.34
   5  -7  -2  683.57   71.40
  -5  -7   2  527.17   65.91
  11   2  -2  -12.13   15.31
  11   2  -2   61.79   37.85
  11  -2  -2   -3.35   18.59
   7  -4   3 2740.00  203.27
   7   4   3 2995.78  215.21
   7  -4   3 3272.19  373.19
  -2   5   4 1469.42  178.28
  -2  -5   4 1551.64  179.01
   2  -5  -4 1531.33  177.65
   5  -6  -3  139.18   49.83
  -5   6   3  200.52   56.26
   5   6  -3  133.21   56.19
   3   8  -1 2877.96  203.20
   3  -8  -1 3102.06  408.66
  -3   8   1 2571.26  185.79
   2   0  -5    7.69   31.60
  -2   0   5  -43.04   36.88
  10  -4   1 7008.09 1854.93
  10   4   1 5975.83  406.60
  10   4   1 6236.81  451.65
   0   0   5   32.37   22.63
  -8   1   4 5152.39  352.81
  -8  -1   4 5714.49  442.93
   8  -1  -4 5335.82  363.96
   6   7   1  488.54   74.44
  -6  -7  -1  278.46   80.12
   5   3   4   85.27   42.16
   5  -3   4   46.31   28.48
  -1   1   5   34.62   25.47
  -1  -1   5   26.04   11.99
   1  -1  -5   48.26   21.62
  12   0   0 3566.49  244.43
  12   0   0 3667.03  295.32
   9  -4   2  220.01   64.14
   9  -4   2  236.09   69.84
  -2  -1   5  418.10  120.06
  -2   1   5  393.17  113.29
   2  -1  -5  502.75   74.30
   8  -3   3 4276.04  283.31
   8   3   3 4266.01  409.27
   8  -3   3 4418.42  306.19
  12   0  -1  -44.17   22.60
  12   0  -1   23.52   11.16
   8  -5   2   16.60    9.24
   8  -5   2   64.47   30.58
   8   5   2   12.91   17.34
  -1  -5  -4 1947.60  201.08
   1   5   4 1736.86  218.43
   1  -5   4 1989.44  246.46
   9   0   3  -40.60   28.72
   0   1   5  518.65   81.93
   0  -1  -5  488.94   61.50
   4  -8   0 4384.91  299.27
  -4   8   0 4398.53  302.47
  -4  -8   0 3959.71  335.24
   4   8   0 4203.02  287.35
   3  -8   1  146.41   53.09
   3   8   1  173.68   59.56
  -3   8  -1  179.06   52.59
  -3  -8  -1  138.50   40.30
  -3   0   5   53.76   30.19
   3   0  -5   98.14   38.88
   4  -6   3  534.41   73.85
  -4  -6  -3  453.62   49.88
   4  -6   3  377.64  107.60
   4   6   3  354.22  110.48
  -3   5   4 4677.78  314.93
   3   5  -4 4766.13  322.10
  -3  -5   4 4751.80  475.16
   8  -6   1   60.58   26.97
   8   6   1  106.75   46.43
   6  -5   3  391.55  108.18
   6   5   3  546.48   76.86
   7   3  -4  480.57   47.80
   7   3  -4  599.77   74.19
   7  -3  -4  534.92   67.19
 -10   2   3  539.49   59.29
  10  -2  -3  420.77  117.43
  10   2  -3  511.02   85.51
  10   2  -3  492.23   57.14
   1   0   5   71.18   34.88
  12   1   0  287.48   81.24
  12  -1   0  228.54   70.58
  12   1   0  281.70   84.81
  12  -1   0  297.49   86.82
  10  -4  -2   44.64   23.88
  10   4  -2   94.37   35.33
 -10   4   2   34.35   13.60
  10   4  -2    1.62    7.53
   9   5  -2  708.77   81.14
   9  -5  -2  632.69   74.68
  -9   5   2  522.11   60.15
   6   2   4    6.06   36.88
   6  -2   4   55.46   31.31
  12   1  -1  372.40  110.60
  12  -1  -1  335.19  105.81
  12   1  -1  451.36   56.72
  12  -1  -1  324.09   94.82
   9   1   3  789.00   78.11
   9  -1   3  868.55  118.20
   9  -1   3  941.45  105.35
   4   4   4 1125.02   99.47
   4  -4   4 1334.48  145.27
  -4  -4  -4 1300.41  158.43
   3   1  -5   -1.58   10.67
  -3  -1   5   19.55   21.58
   3  -1  -5  -20.66   32.30
  -3   1   5  -14.17   20.10
   7   7   0   43.05   28.68
   7  -7   0   14.87   18.64
   1   1   5  372.97  107.74
   1  -1   5  375.86  113.40
   4   8  -1  442.67   52.46
  -4  -8   1  357.38  108.72
  -4   8   1  299.23   93.77
   4  -8  -1  482.36   60.00
   6  -4  -4  234.40   66.71
   6   4  -4  218.02   64.09
   8  -2  -4  242.55   71.21
   8   2  -4  276.72   83.07
  -8   2   4  149.01   44.91
   8   2  -4  410.36  116.82
   2   5   4  338.19  102.87
   2  -5   4  386.57  113.12
  -2  -5  -4  390.34  113.45
  -1  -2   5  367.84  106.16
  -1   2   5  176.61   62.14
   1  -2  -5  344.08  102.79
  -1  -7   3  576.28   66.95
   1   7  -3  622.22   62.24
   1  -7  -3  553.23   61.49
   4   0  -5  -22.34   30.31
  -4   0   5 -106.53   37.91
  11  -3   1   15.16   10.98
  11   3   1   25.78   18.92
  11  -3   1   21.45   33.20
  11   3   1  -19.65   14.33
  10  -3   2  119.97   40.04
  10   3   2   56.83   24.33
  10   3   2   41.00   20.63
   0  -7   3  705.86   97.26
   0  -7  -3  746.13   83.70
   0   7  -3  664.44   64.73
   0   7   3  523.12   63.31
   7   7  -1  761.14   88.78
   7  -7  -1  610.45   78.24
  -2  -2   5  117.94   38.91
  -2   2   5  308.22   93.56
   2  -2  -5  229.22   75.95
  10   5   0   94.69   29.76
  10  -5   0   83.00   33.70
   4   5  -4 1429.80  114.73
  -4   5   4 1566.74  122.05
   4  -5  -4 1662.48  129.90
   7   6   2 3556.51  252.95
   7  -6   2 3298.44  439.00
   0   2   5  378.08  112.78
   0  -2   5  209.48   61.73
   0  -2  -5  276.81   83.29
   5  -7   2 1984.91  222.41
   5  -7   2 1799.94  143.39
   5   7   2 1897.55  197.29
   2   0   5  -39.47   35.19
   2  -7  -3  808.77   75.13
  -2   7   3  930.87  118.88
  -2  -7   3  954.81   97.59
  10   5  -1  180.73   53.21
  10  -5  -1  263.38   78.09
   0  -8  -2  535.17   63.74
   0  -8   2  384.69  119.90
   0   8  -2  478.03   49.52
   0   8   2  497.60   57.81
  -4   1   5 1382.49  179.97
   4   1  -5 1412.98  169.60
   4  -1  -5 1422.23  116.57
  -4  -1   5 1316.12  160.86
  -6   6   3   68.43   20.88
   6   6  -3   93.33   45.60
   6  -6  -3   60.45   21.41
   1  -8  -2  650.74   81.29
  -1   8   2  585.47   76.93
  -1  -8   2  571.90   59.06
   1   8  -2  535.97   54.31
  11  -3  -2   29.15   29.30
  11   3  -2  -26.42   34.79
 -11   3   2  114.43   36.21
  11   3  -2   51.07   18.78
  -6   7   2 1780.71  138.75
  -6  -7   2 1725.03  132.12
   6   7  -2 1831.84  227.62
  12   2   0 4674.31  317.88
  12   2   0 4393.71  187.54
  -8   6   2 3586.92  234.84
   8   6  -2 3402.09  282.72
   8  -6  -2 3297.49  438.76
   4  -8   1   76.65   25.43
   4   8   1   99.54   33.20
  -4   8  -1   49.46   14.18
  -4  -8  -1   77.72   23.69
   1  -7   3   47.18   16.91
  -1   7  -3   55.54   18.44
   1   7   3   37.38   32.77
  -1  -7  -3  106.79   39.33
  12  -2  -1  964.54   66.31
  12  -2  -1 1021.26   54.76
  12   2  -1  933.42  101.33
  12   2  -1  918.47  121.74
  -9   4   3   30.77   10.85
   9   4  -3  -19.64   12.56
   9  -4  -3   -7.86   21.42
   9   4  -3   62.20   39.06
   9  -2   3 2029.14  333.73
   9   2   3 2097.61  229.74
   9  -2   3 2032.51  189.02
   7   0   4  338.30  101.84
  -3   2   5   62.46   35.47
   3  -2  -5   -7.16   31.46
  -3  -2   5   38.76   17.67
  11  -4   0  651.46   76.58
  11   4   0  458.56   46.23
   2  -1   5  886.70  119.77
   2   1   5 1209.38   79.36
   9   6   0 2744.67  317.90
   9  -6   0 2678.13  282.55
  -1  -8  -2 1561.86   74.41
   1  -8   2 1661.71  187.56
  -1   8  -2 1353.58  180.85
  11   0   2  940.72  109.21
  11   0   2 1075.79  159.67
  -5  -8   0 1889.29   69.80
   5  -8   0 2081.06  262.21
  -5   8   0 1998.30   94.49
   5   8   0 1864.26  271.69
  -2   8   2  961.96   57.81
   2  -8  -2  962.66   61.60
   2   8  -2 1102.77   68.38
  -2  -8   2  912.53   89.25
 -11   4   1 2990.36  136.96
  11   4  -1 3437.80  353.36
  11  -4  -1 3059.09  122.71
   1   2   5   94.15   47.99
  -1  -2  -5   19.17   14.39
   1  -2   5   22.79   13.19
  -8   5   3  384.45  111.31
   8  -5  -3  400.41   95.83
   8   5  -3  355.65  103.89
   7  -1   4 1221.62   69.27
   7   1   4 1471.67   86.85
   3   7  -3   54.39   25.28
   3  -7  -3  -18.65   27.42
  -3   7   3   81.56   27.05
  -3  -7   3   57.20   23.25
  12   0   1   63.36   23.76
  12   0   1   32.49   24.21
   9   6  -1  241.42   78.74
   9  -6  -1  249.46   70.98
   5   6   3 1683.69  196.77
  -5  -6  -3 1452.29   67.26
  11   1   2  988.29  104.66
  11  -1   2 1260.37  128.63
  11   1   2 1145.85  118.70
  11  -1   2  935.23   79.18
  10  -3  -3 2619.16  345.96
  10   3  -3 2267.27  136.68
 -10   3   3 2480.93  100.74
  12   0  -2  569.50   71.24
  12   0  -2  585.35   49.41
   3  -5   4 1884.37  175.32
   3   5   4 1745.54   92.89
  -3  -5  -4 1915.27   89.63
  -9   0   4  454.15   48.46
   6  -3   4  403.54  102.41
   5   0  -5   89.24   39.70
  -5   0   5   -9.25   40.72
   7   7   1  227.33   77.76
   7  -7   1  244.83   72.67
  -2  -7  -3  144.60   47.18
   2  -7   3  255.22   74.46
   2  -7   3  207.90   57.85
   2   7   3  182.49   54.34
  12  -1   1  -33.68   33.53
  12   1   1   33.08   11.56
  12  -1   1   52.70   19.77
  12   1   1   52.90   21.71
  -5  -8   1 1396.92  158.68
   5   8  -1 1733.71  237.13
  -5   8   1 1874.32   92.09
   5  -8  -1 1930.54  244.67
  -2   8  -2  238.87   68.51
   2   8   2  276.38   83.40
  -2  -8  -2  280.24   79.83
   2  -8   2  381.19  107.90
  11   0  -3  -13.55   28.38
  11   0  -3   52.86   35.80
   5  -4   4  332.03   91.38
   5   4   4  297.59   91.42
   5  -5  -4 2147.84  102.91
  -5   5   4 2050.91  220.71
   5   5  -4 2193.90  104.95
   4  -2  -5   29.24   34.69
  -4   2   5   -2.34   38.38
  -4  -2   5    6.33   23.56
  -3   8   2 1601.05   75.77
   3  -8  -2 1668.19  167.77
  12  -1  -2  964.24  112.04
  12   1  -2  830.68   94.01
  12  -1  -2  917.05  108.21
  12   1  -2  839.97   58.71
   9  -1  -4 4479.79  167.18
  -9  -1   4 4193.71  507.25
  -9   1   4 4235.77  451.37
   9   1  -4 4288.12  134.13
   8  -4   3 1605.02  162.32
   3   0   5   13.09   24.06
  -5   1   5  104.05   36.04
   5  -1  -5   80.68   39.95
  -5  -1   5   62.78   30.54
   5   1  -5   99.77   30.60
   8  -3  -4  503.16   58.55
  -8   3   4  622.21   89.82
   8   3  -4  589.49   49.44
   8   3  -4  463.20   52.92
   2  -2   5  205.89   57.86
   2   2   5  158.78   58.75
  11  -1  -3 2641.92  320.65
  11   1  -3 2669.63  293.11
 -11   1   3 2374.01  312.63
  11   1  -3 2464.47  122.52
   1  -3  -5   80.38   37.46
  -1  -3   5  134.61   45.94
  -1   3   5  194.59   66.24
  -7   4   4  487.43   54.37
   7   4  -4  311.17   91.95
   7  -4  -4  420.60   49.36
   7  -5   3  305.83   87.14
   7   5   3  397.72  112.47
   7  -5   3  270.37   75.41
  -2  -3   5 3721.91  378.70
   2  -3  -5 3779.26  149.24
  -2   3   5 3615.35  386.27
   3  -1   5  401.11   91.26
  10  -5   1  270.93   76.72
  10   5   1  123.80   63.35
  -4  -7   3  100.31   33.19
   4  -7  -3  189.70   63.15
   4   7  -3  183.72   63.29
  -4   7   3   91.13   36.32
   0  -3   5 2362.49  240.40
   0   3   5 2573.34  116.18
   7   2   4  120.87   48.90
   7  -2   4  115.00   42.77
  -5  -8  -1  503.30   35.05
   5   8   1  601.67   85.63
   5  -8   1  547.75   70.97
  11   2   2  118.38   38.96
  11   2   2   32.04   38.85
  11  -2   2   79.19   25.79
  12  -3   0  224.55   64.20
  12  -3   0  161.27   45.67
  12   3   0  158.06   47.98
  12   3   0  146.73   53.95
   9  -5   2   74.20   27.64
   9   5   2   56.22   26.78
  12  -3  -1 2408.65  101.86
  12   3  -1 2049.73  136.77
  12  -3  -1 2546.76  110.65
  12   3  -1 2428.41  106.02
   8  -7   0  353.12  106.76
   8   7   0  254.38   70.51
   9  -3   3 3370.46  422.48
   9   3   3 3951.04  363.72
   6  -7   2 1573.92  167.71
  -6  -7  -2 1462.03  127.80
   6   7   2 1486.58  120.42
  -1  -6   4  251.17   75.12
  -1   6   4  319.53   89.14
   1  -6  -4  264.41   76.32
   0   9   0    2.76   14.90
   0  -9   0   42.06   16.21
  -3  -7  -3  130.60   37.23
   3  -7   3   95.07   32.91
   3   7   3  112.13   42.98
   3  -7   3   64.12   21.26
   3  -3  -5  896.86   74.79
  -3   3   5  800.38   82.33
  12  -2   1 4788.46  160.52
  12   2   1 5041.22  377.90
  12   2   1 4840.41  166.76
   9  -6   1   38.08   20.82
   9   6   1  -31.75   42.03
   3  -8   2 2251.28  293.44
  -3   8  -2 1789.35  207.56
  -3  -8  -2 2067.56  104.36
   3   8   2 2146.50  227.73
   7  -6  -3   78.14   28.14
  -7   6   3   23.20   19.39
   7   6  -3   -9.63   34.53
   0   6   4  132.28   57.93
   0  -6   4   32.89   19.43
   0  -6  -4   64.99   36.46
  11   4   1 2005.99  187.22
  11  -4   1 2131.84  228.61
  11   4   1 2069.68  116.87
  -1  -9   0  142.31   42.13
   1  -9   0  194.67   52.99
  -1   9   0  126.97   40.47
   1   9   0  161.58   46.55
  10  -4   2  363.43  110.94
  10   4   2  400.91   99.22
  10  -4   2  259.80   81.69
   4   8  -2 1602.19  190.32
  -4   8   2 1850.35  248.04
   4  -8  -2 1863.05  213.16
  -4  -8   2 1767.52  188.89
   1  -3   5 2049.05  190.85
   1   3   5 2537.96  293.38
  -1  -3  -5 2179.20  101.79
  12  -2  -2  769.82   60.18
  12   2  -2  626.17   60.63
  12   2  -2  699.03   49.72
  10  -5  -2  722.23   62.78
 -10   5   2  698.21   88.85
  10   5  -2  686.82   71.13
   7  -7  -2  803.66  103.72
   7   7  -2  723.18   86.91
  -7   7   2  783.67   68.13
   9   2  -4    4.66   22.77
   9  -2  -4   -8.26   14.46
  -2   6   4    8.91   14.67
   2   6  -4  -13.96   26.26
   2  -6  -4  -36.98   29.23
  -2  -6   4   -9.17   31.45
   5  -2  -5   41.55   26.32
  -5  -2   5   30.72   15.08
   5   2  -5   63.54   28.43
  -5   2   5   22.99   26.18
   8   7  -1  352.73  105.92
   8  -7  -1  379.28  108.72
   6  -8   0 4454.58  344.81
   6   8   0 5018.50  563.85
   4   5   4  295.31   88.04
  -4  -5  -4  364.37  101.62
   4  -5   4  358.91  100.46
  10   0   3   59.73   40.60
  -6   0   5  -11.07   40.84
   6   0  -5   10.28   27.91
  11  -2  -3  464.88   46.63
  11   2  -3  398.79   94.91
  11   2  -3  397.97  114.86
 -11   2   3  367.92  104.87
 -11   4   2   37.19   13.97
  11  -4  -2   53.83   26.02
  11   4  -2   63.87   23.13
  11   4  -2  141.15   40.34
   8   6   2 2162.62  250.66
   8  -6   2 1713.64  277.31
   3  -2   5   72.65   28.94
   3   2   5   64.33   27.10
   1   6   4   18.52   34.94
   1  -6   4   84.50   27.76
  -1  -6  -4   82.27   40.83
  -6   5   4  868.88  138.22
   6  -5  -4 1013.61  121.56
   6   5  -4  982.45  149.06
  10   1   3  641.37   89.91
  10  -1   3  618.84   71.77
  10  -1   3  528.32   46.25
  -2   9   0  109.13   34.82
   2   9   0  154.33   45.34
   2  -9   0  153.78   60.19
   6   1  -5 1348.35  160.48
  -6   1   5 1162.21  129.27
   6  -1  -5 1259.92  171.22
  -6  -1   5 1207.88  154.33
   3   6  -4  272.48   80.91
   3  -6  -4  346.58  106.36
   4   0   5   31.18   34.39
  -4  -3   5 2448.89  342.33
  -4   3   5 2193.49  226.66
   4  -3  -5 2698.50  352.90
   6  -8  -1  351.12  102.44
   6   8  -1  341.37   99.88
  -6   8   1  216.82   63.15
  -6  -6  -3 1647.49   76.11
   6   6   3 1582.08  176.02
   6  -6   3 1569.33  167.43
   6  -6   3 1488.53  167.46
  -9   6   2 1013.33   99.11
   9  -6  -2 1101.93  141.39
   9   6  -2  979.37   71.62
  -5   7   3   52.68   27.41
   5  -7  -3   39.66   16.95
   5   7  -3   62.16   35.91
   0  -9   1  108.36   40.73
   0   9  -1   47.84   27.76
   0  -9  -1   94.72   31.18
   0   9   1   40.15   18.59
  13   0  -1  -56.33   22.86
  13   0  -1   47.60   22.83
  13   0   0 6990.52  191.84
  13   0   0 6571.43  214.23
  -1  -9   1 2668.03  270.68
   1   9  -1 3285.96  161.14
  -1   9   1 2724.99  147.93
   1  -9  -1 2608.70  302.62
  -2  -3  -5 3915.35  456.60
   2   3   5 4508.87  163.29
   2  -3   5 4263.20  158.94
   4  -1   5  719.42   95.03
   4   1   5  755.98   92.93
   8   0   4 3821.31  341.54
 -10   4   3  351.44   95.45
  10   4  -3  359.21  100.46
  10  -4  -3  501.16   55.43
  10   4  -3  381.97  114.39
  -1  -9  -1 1110.69  112.23
   1  -9   1 1128.31  102.71
  -1   9  -1 1010.59  123.01
   1   9   1 1197.00  105.49
   6   4   4  599.54   58.96
   6  -4   4  512.26   47.94
   9   5  -3 2334.42  111.60
   9  -5  -3 2169.91  309.97
  -9   5   3 2435.92  105.60
  13  -1  -1  707.21   86.39
  13   1  -1  723.97  106.23
  13  -1  -1  638.67   49.48
  13   1  -1  615.63   55.47
  13  -1   0   85.97   35.83
  13  -1   0   63.91   30.33
  13   1   0   71.28   30.15
  13   1   0   61.68   30.78
   7  -3   4  140.18   51.64
   7   3   4  137.34   43.72
   4  -8   2 1086.32  119.29
  11  -5   0   28.81   22.15
   2   6   4   32.67   41.30
   2  -6   4   64.71   24.50
  -2  -6  -4   59.67   40.22
   4  -7   3  907.49   77.45
   4   7   3 1145.37  107.56
   4  -7   3 1119.56  106.21
  -4  -7  -3 1006.27   60.97
   8   1   4  265.36   78.72
   8  -1   4  302.83   84.42
   2   9  -1  632.81   68.94
   2  -9  -1  586.87   52.49
  -2   9   1  431.58   39.39
  11   3   2  262.41   81.46
  11  -3   2  224.24   64.33
  11  -3   2  238.87   67.73
  11   3   2  302.62   81.99
   8   7   1  423.20   58.97
   8  -7   1  293.01   84.87
  -3   9   0  206.54   61.34
  -3  -9   0  186.14   54.96
   3  -9   0  218.72   66.99
  11   5  -1   16.56   21.66
  11  -5  -1   24.57   15.33
  -5  -8   2 2465.79  149.17
   5   8  -2 2573.98  306.32
   5  -8  -2 2455.28  105.19
  -5   8   2 2326.61  256.43
  10  -6   0 2733.27  275.90
  10   6   0 2758.00  157.00
   4   6  -4  -36.81   30.98
  -4   6   4  -32.57   30.66
  10  -2   3 1919.06  184.82
  10  -2   3 2153.98  306.87
  10   2   3 2068.01  192.08
   8  -4  -4   83.09   37.38
  -8   4   4   39.73   19.03
   8   4  -4  107.99   39.11
   6  -8   1 1400.91  181.59
   6   8   1 1457.47   99.84
  12   3   1  134.13   38.18
  12   3   1  116.56   40.39
  12  -3   1   17.53   13.10
  12  -3   1   53.24   34.03
  -6  -2   5  -22.34   35.12
  -6   2   5   34.10   20.41
   6  -2  -5   81.87   33.08
 -10   0   4  186.65   57.64
  10   0  -4  140.93   47.37
   2  -9   1  -51.89   31.03
  -2   9  -1  -22.45   17.92
  -2  -9  -1   -1.56   24.31
   2   9   1   30.70   41.69
  -1  -4   5  117.42   37.03
  -1   4   5  -30.19   38.46
  10  -6  -1  293.94   84.48
  10   6  -1  237.06   72.34
  12  -3  -2  391.06  117.76
  12   3  -2  328.19   93.05
 -12   3   2  220.02   63.11
  12   3  -2  179.08   52.90
   9   3  -4  469.97   50.12
   9  -3  -4  498.26   50.96
  -9   3   4  497.62   49.87
   9   3  -4  435.55   50.96
   2  -4  -5  552.92   77.86
  -2  -4   5  485.09   56.14
  -2   4   5  487.74   53.58
   5  -3  -5 1725.45  206.43
  -5   3   5 1420.62  172.57
  -5  -3   5 1554.06  182.92
   0  -4   5   49.65   24.76
   0   4   5  -63.20   38.71
   0  -4  -5   23.45   35.00
 -10  -1   4 2609.45  354.02
  10   1  -4 2933.37  341.65
  10   1  -4 2892.40  327.71
  11   3  -3 8655.91 1836.54
 -11   3   3 8726.98 1860.55
  11  -3  -3 8463.43  227.85
  11   3  -3 8579.14  197.21
   5  -5   4 2147.70  270.03
   5  -5   4 2003.19  227.32
  -5  -5  -4 2197.83   96.14
   5   5   4 2078.60  257.94
   4  -2   5  708.90  104.12
   7   0  -5  -40.57   27.40
  -7   0   5   -2.52   37.30
  12  -4   0    9.93   40.04
  12   4   0   -6.30   36.98
   3  -9  -1 1520.59  185.03
  -3   9   1 1576.32   71.39
   3   9  -1 1515.08  191.79
   8  -5   3 2158.46  314.12
   8   5   3 2202.72  225.30
   8  -5   3 1927.05  163.58
 -12   4   1  301.75   89.60
  12   4  -1  314.51   95.02
  12  -4  -1  394.31  108.42
   3   3   5 3128.30  173.25
   3  -3   5 3242.44  316.58
   9  -4   3  879.77   62.84
   9   4   3  864.86   68.96
   9  -4   3 1042.09   82.26
   7  -7   2 1208.28  154.88
   7   7   2 1078.47  136.99
  13   2  -1  684.50  117.52
  13  -2  -1  838.29  111.63
  13   2  -1  866.52   93.93
   8   6  -3   48.72   39.11
   8  -6  -3  148.54   35.02
  -8   6   3  170.80   46.21
  13   2   0 1207.56  110.10
  13  -2   0 1443.25  183.64
  13   2   0  980.83  145.18
  13  -2   0  923.79  124.67
   3  -4  -5  147.64   46.70
  -3  -4   5   80.20   29.68
  12   0   2  127.91   42.01
  12   0   2   48.51   37.01
   8  -2   4 1204.22  115.56
   8   2   4 1196.10  148.78
   7  -8   0 3721.03  286.39
   7   8   0 4324.44  478.49
  -6  -7   3   27.42   11.56
   6  -7  -3   46.02   14.28
   6   7  -3  161.42   61.21
  -7  -1   5 1007.38  138.41
  -7   1   5 1202.82  149.84
   7  -1  -5 1193.84  146.22
   7  -5  -4 1574.54  134.99
   7   5  -4 1612.38  197.47
  -7   5   4 1776.38  147.24
  -1  -4  -5  522.23   63.23
   1   4   5  486.05  167.77
   1  -4   5  533.30   77.04
   3  -6   4   21.07   17.14
   3  -6   4   98.79   41.44
   3   6   4  111.25   50.82
  -3  -6  -4  105.84   43.61
   8  -7  -2 3545.25  477.39
   8   7  -2 3786.52  524.26
  -8   7   2 3568.58  258.23
   5   0   5  -20.81   20.85
   4  -9   0   14.93   17.91
  -4   9   0   25.73   11.43
  -4  -9   0    8.17   10.08
   4   9   0   -0.04   20.83
   3  -9   1   56.89   30.63
  -3   9  -1   95.23   27.84
  -3  -9  -1   57.49   14.57
  12   0  -3   -2.66   12.65
  12   0  -3   55.97   19.20
   9   7   0  556.89   73.57
   9  -7   0  653.73   93.06
  12  -1   2   78.72   38.44
  12   1   2   61.74   26.76
  12  -1   2   29.46   18.27
  12   1   2  104.78   48.85
   5   6  -4  120.00   33.90
  -5   6   4  215.18   63.77
   5  -6  -4  308.23   71.79
  -1   8   3   32.36   14.02
  -1  -8   3   17.71   13.84
   1   8  -3   89.08   28.85
   1  -8  -3   28.18   34.77
  13   0  -2  266.26   69.29
  13   0  -2  269.20   73.34
   0   8  -3  222.87   50.65
   0  -8   3  172.31   40.80
   0  -8  -3  125.73   41.48
   7   8  -1  413.47   99.24
  13   0   1   62.75   18.66
  13   0   1  -35.32   27.46
   5   1   5  363.36   86.76
   5  -1   5  245.15   66.57
  -5  -8  -2  759.42   66.64
   5   8   2  671.56   93.06
   5  -8   2  510.79   68.12
   5  -8   2  689.73   81.10
  12  -1  -3  447.58  113.02
  12  -1  -3  437.99  105.15
  12   1  -3  441.22  107.65
  12   1  -3  525.37   63.12
   9   7  -1   67.76   44.66
   9  -7  -1  154.93   54.97
  10   2  -4    1.45   17.99
 -10   2   4   19.13   20.64
  10  -2  -4    4.73   11.92
  10   2  -4   49.38   17.66
  -2  -8   3  954.19  120.76
   2  -8  -3  913.66   88.14
  -2   8   3 1257.87  161.42
   2   8  -3  979.49  119.83
   5  -7   3  100.57   32.37
  -5  -7  -3   60.50   31.78
   5   7   3  121.19   52.73
   5  -7   3   12.94   10.84
  -4   4   5  261.30   63.75
   4  -4  -5  131.19   40.26
  11  -5   1  215.80   58.73
  13   1  -2 1140.88  103.87
  13   1  -2 1137.41  117.31
  13  -1  -2 1270.29  204.57
  13  -1  -2 1094.74  137.83
  10  -5   2   60.70   24.67
   6   8  -2 2457.49  406.44
   6  -8  -2 2454.43  383.41
  -6   8   2 1956.91  266.62
   7   6   3  730.25   89.38
   7  -6   3  553.60   88.58
   7  -6   3  815.55  111.65
   1  -8   3  509.33   73.91
   1   8   3  429.54  103.88
  -1  -8  -3  356.91   95.33
  -1   8  -3  495.45   54.17
  13  -1   1   46.64   17.27
  13   1   1    2.98   12.38
  13   1   1   50.80   18.11
  10  -6   1   99.37   32.63
  10   6   1   60.58   48.77
  -4  -9   1  106.90   30.02
   4  -9  -1  222.09   54.49
  -4   9   1  216.60   54.66
  10  -3   3 5164.47  408.50
  10  -3   3 4879.44  353.76
  10   3   3 5307.76  397.03
  -6  -3   5 4708.15  356.04
  -6   3   5 4745.79  597.85
   6  -3  -5 4678.16  351.48
  -2  -4  -5   59.67   31.23
   2  -4   5   41.08   20.75
   2   4   5  144.55   47.29
  -7   2   5   80.86   23.94
   7   2  -5   53.36   31.95
   7  -2  -5   87.87   29.72
  11   5  -2  170.26   42.48
 -11   5   2  149.56   37.28
  11  -5  -2  226.46   68.67
   9   6   2 2654.60  219.54
   9  -6   2 2215.52  296.18
   7  -4   4   38.67   14.81
   7   4   4  132.17   41.55
   7  -4   4   25.33   29.51
  -3  -8   3  227.66   53.04
  -3   8   3  201.57   58.26
   3  -8  -3  244.51   57.12
  12  -2   2  612.15   78.10
  12   2   2  709.34  113.36
  12   2   2  615.95   86.17
  12  -2   2  562.80   73.73
   4   3   5 2844.31  228.78
   4  -3   5 2712.64  302.32
   0   9  -2    1.27   18.95
   0   9   2   79.38   26.72
   0  -9  -2   59.72   18.96
   0  -9   2   25.10   17.87
  11  -4   2  142.51   42.58
  11   4   2  162.48   38.13
  11   4   2  162.24   61.30
  -1   9   2   31.45   15.24
  -1  -9   2   38.16   18.84
   1  -9  -2   48.02   20.22
   1   9  -2  -21.66   23.38
 -10   6   2 2001.95  149.45
  10   6  -2 1805.09  154.46
  10  -6  -2 1956.25  162.60
  -4  -9  -1  702.50   69.41
   4  -9   1  577.79   80.61
  -4   9  -1  666.74   58.53
   4   9   1  694.59   78.37
   7  -8   1  976.76  149.97
   7   8   1  833.90   93.36
   2  -8   3 2611.41  355.73
  -2  -8  -3 2308.00  299.59
   2   8   3 2351.59  266.17
  13  -3  -1  844.45  116.42
  13  -3  -1  714.51   95.02
  13   3  -1  639.35   90.36
  13   3  -1 1015.04  121.94
   4  -6   4  770.37   80.53
   4   6   4  569.65   71.84
   4  -6   4  677.45   78.59
  -4  -6  -4  610.27   68.12
   5   2   5  167.99   61.87
   5  -2   5  240.01   74.90
  13   3   0   38.41   13.37
  13   3   0   93.85   26.76
  13  -3   0   37.47   17.67
  13  -3   0  104.89   28.54
  12   2  -3  219.53   62.16
  12   2  -3  198.84   46.83
 -12   2   3  305.85   70.57
  11   0   3  -25.79   31.87
  11   0   3  -39.22   30.79
  12   4   1 6716.36  497.00
  12  -4   1 7053.30 2306.24
  12   4   1 6404.13  522.58
  -1   9  -2  505.11   54.34
   1   9   2  507.75   63.63
   1  -9   2  364.06   87.98
  -1  -9  -2  474.25  160.54
   8   3   4  419.88   99.92
   8  -3   4  421.70  118.25
   8  -3   4  347.39   85.96
   5  -9   0   50.08   22.11
   5   9   0  -68.82   37.01
  -5  -9   0   -3.56   10.98
   2   9  -2  334.50   83.96
  -2   9   2  385.49   90.48
   2  -9  -2  356.17   88.39
  13   2  -2  -12.22   16.99
  13  -2  -2   30.29   12.88
  13  -2  -2   25.13   27.96
  13   2  -2  -59.40   33.51
 -10   5   3 1246.85  148.77
  10  -5  -3 1387.25  124.02
  10   5  -3 1149.26  109.93
  12  -4  -2  485.69  167.07
 -12   4   2  403.20  101.78
  12   4  -2  582.24   82.30
   9   4  -4   24.38   18.66
   9   4  -4  -71.37   36.87
  -9   4   4  -41.91   24.41
   9  -4  -4  -43.00   36.49
   6   5   4  533.84   76.06
   6  -5   4  410.60  101.20
   9   0   4   51.16   45.00
  13  -2   1 1655.72  214.28
  13   2   1 2039.22  177.31
  13   2   1 1959.68  291.12
  -5   4   5  388.94   95.41
  -5  -4   5  406.14  100.93
   5  -4  -5  389.13   92.91
  -8   0   5  -22.63   37.09
   8   0  -5   82.03   30.62
   6  -6  -4   64.52   19.41
   6   6  -4    5.33   34.39
  -6   6   4  -18.78   28.37
  -1  -7   4 4066.40  538.59
  -1   7   4 3991.29  322.53
  -1  -7   4 3383.78  426.99
   1  -7  -4 3983.30  509.61
  11   1   3   13.45   19.15
  11  -1   3  -36.60   32.86
  11  -1   3   -4.28   31.06
  11   1   3   13.03   43.16
   9  -7   1  519.88   64.30
   9   7   1  614.42   81.32
  -7   7   3  231.28   58.97
  -7  -7   3  199.61   47.62
   7   7  -3  331.11   84.02
   7  -7  -3  262.51   62.45
  11  -4  -3  262.02   78.01
  11   4  -3  196.85   47.60
 -11   4   3  251.73   60.65
   0  -7   4  673.57   77.72
   0  -7  -4  631.42   92.81
   0  -7   4  716.79   96.57
   0   7   4  852.91   91.47
   2   7  -4  578.15   70.76
   2  -7  -4  582.37   67.29
   9  -1   4  922.33  121.65
   9   1   4  948.19   93.23
   3   4   5  212.26   47.73
   3  -4   5  280.00   66.79
  -3  -4  -5  185.99   50.12
  -8  -1   5  561.03   57.72
   8   1  -5  477.47  163.87
   8  -1  -5  475.53  163.23
  -8   1   5  475.92  163.91
   4   8  -3    9.56   32.30
   4  -8  -3   81.32   26.34
  -4   8   3   54.59   18.38
  -4  -8   3  -10.08   19.87
   8  -5  -4  396.95   95.57
  -8   5   4  572.91   89.66
   8   5  -4  513.62   63.40
 -10   3   4  925.47  109.28
  10   3  -4 1093.79   94.30
  10  -3  -4 1128.69  109.61
   5   9  -1  146.00   54.56
  -5   9   1   92.90   32.90
   5  -9  -1  197.12   48.04
  -2  -9  -2  331.23   77.67
  -2   9  -2  454.36  108.40
   2  -9   2  467.11  115.18
   1  -5  -5  891.37  154.83
  -1  -5   5  900.27  118.55
  -1   5   5  870.06   89.40
  -3  -9   2  498.32   54.54
  -3   9   2  537.11   68.12
   3   9  -2  575.33   89.32
   3  -9  -2  433.64  106.89
   6   0   5  -39.49   32.08
  -2  -5   5 1925.12  263.17
  -2   5   5 2218.71  187.53
  11   0  -4  262.29   70.11
 -11   0   4  172.27   50.29
   8   7   2 1168.83  119.93
   8  -7   2 1121.31  123.65
   9   6  -3  533.26   72.41
  -9   6   3  443.30  113.51
   9  -6  -3  516.33   63.21
   1  -7   4 3287.69  427.99
   1  -7   4 3213.12  402.58
   1   7   4 3148.98  246.28
  -1  -7  -4 3214.09  250.14
   8  -8   0 2411.85  197.94
   8   8   0 3056.68  462.89
   0  -5   5  856.45  106.47
   0  -5  -5  701.45   79.35
   0   5   5  696.82   78.88
   6  -8   2 1063.23  157.45
   6   8   2  989.55  108.72
  -6  -8  -2  949.21   87.87
   3  -8   3  541.27   66.34
  -3  -8  -3  449.85  104.37
   3  -8   3  458.36  117.18
   3   8   3  413.85  111.45
  11   6   0 2770.14  380.45
  11  -6   0 2593.54  394.74
  -3   7   4 1763.48  150.82
   3  -7  -4 1857.05  225.91
   3   7  -4 1798.76  214.33
   7  -3  -5 2294.86  317.85
  -7   3   5 1899.89  274.91
  -7  -3   5 2287.64  250.57
   7   3  -5 2392.89  191.98
   6  -7   3  127.17   28.81
   6   7   3  181.49   61.79
   6  -7   3  111.94   32.86
   6   1   5  385.56   94.99
   6  -1   5  313.99   74.76
  11  -6  -1   59.96   28.03
  11   6  -1  -40.41   38.65
  12  -5   0  562.21   78.21
  12   5   0  513.70   69.90
   7   8  -2 1287.44  163.33
  -7   8   2 1177.67   96.23
   9   7  -2  954.44  107.39
   9  -7  -2  970.44  131.73
  11   1  -4 1951.53  247.69
  11  -1  -4 1863.84  231.42
  11   1  -4 2219.96  262.09
 -11   1   4 1789.03  216.90
  12  -5  -1  192.10   62.84
   9  -5   3  351.80   96.41
   9   5   3  333.79   78.88
   9  -5   3  305.45   73.95
   8  -8  -1  -31.73   33.24
   8   8  -1  157.86   50.28
   3  -5  -5 2169.62  278.08
  -3   5   5 2331.25  190.80
  -3  -5   5 2242.73  310.32
  11  -2   3 1792.42  287.68
  11   2   3 1822.20  255.01
  11   2   3 1685.50  227.59
  14   0  -1    4.92   11.51
  14   0  -1   35.32   15.07
  12  -3   2   -4.16   37.84
  12   3   2   -0.06   18.99
  12   3   2  -37.26   40.46
  12  -3   2  -20.34   17.71
  -5  -9  -1   16.03   17.62
   5   9   1  -27.62   43.10
   5  -9   1  -65.23   32.90
  14   0   0 1126.27   99.53
  14   0   0 1009.09  134.01
  -1  -5  -5 1902.59  159.65
   1   5   5 2201.83  317.40
   1  -5   5 1951.72  237.99
   9  -2   4  679.86   86.29
   9  -2   4  643.00   88.27
   9   2   4  745.18  104.10
   8  -2  -5  154.64   42.95
  -8   2   5  146.20   39.84
   8   2  -5   70.10   25.49
  -8  -2   5   93.01   32.39
   5  -3   5 3207.19  250.98
   5   3   5 3168.62  252.18
  10  -4   3 1104.31  122.72
  10   4   3 1115.42  150.94
  10  -4   3  797.33   87.82
  12   3  -3 2954.57  232.72
 -12   3   3 3525.07  269.39
  12  -3  -3 3664.94  293.39
  12   3  -3 3264.05  260.96
  -6  -4   5  254.78   61.36
   6  -4  -5  204.03   55.30
  14   1  -1 1150.56  177.11
  14   1  -1  934.49  133.33
  14  -1  -1  920.45   85.82
   2  -7   4 1045.69  121.10
   2   7   4 1078.34  167.06
  -2  -7  -4 1031.82  126.51
   2  -7   4 1099.51  131.36
   3  -9   2  566.20   69.01
   3   9   2  639.33   83.81
  -3   9  -2  498.84   60.03
  -5  -6  -4  801.48   85.67
   5   6   4  738.34   82.89
  14   1   0 1006.02  148.80
  14  -1   0 1439.85  179.64
  14   1   0 1241.79  110.58
 -13   3   2 1733.15  239.81
  13   3  -2 1944.92  234.11
  13  -3  -2 1676.26  258.13
  -4  -9   2  382.72   95.57
  -4   9   2  444.11  108.75
   4  -9  -2  543.99   74.01
  -5   8   3  318.51   85.78
   5   8  -3  453.21  108.18
  -5  -8   3  296.29   69.72
   5  -8  -3  228.38   52.92
  10  -7   0   46.25   15.97
  10   7   0   69.08   26.25
   8   6   3  674.16   94.16
   8  -6   3  534.91   84.49
  13  -3   1   16.81   12.00
  13   3   1   16.35    9.81
  13  -3   1   54.14   23.84
  13   3   1   91.33   32.39
   4  -7  -4 1891.99  214.70
   4   7  -4 1714.16  229.54
  -4   7   4 1786.10  148.90
   6   9   0   65.82   22.10
   6  -9   0  106.96   34.41
  10   7  -1  300.23   71.99
  10  -7  -1  148.99   50.95
   4   4   5  487.26  169.52
   4  -4   5  630.92   76.70
  -4  -5   5  862.35  112.83
  -4   5   5 1022.91  100.84
   4  -5  -5 1008.56  127.08
   7  -6  -4  247.67   74.60
   7   6  -4  437.36  101.15
  -7   6   4  130.40   40.94
   6   2   5  232.06   67.42
   6  -2   5  142.13   43.37
  11  -2  -4   91.41   32.03
 -11   2   4   56.23   24.15
  11   2  -4  155.37   50.45
  11   2  -4   32.82   25.21
  13   4  -1 2569.70  333.80
  13  -4  -1 2102.35  205.67
  13  -4   0  676.39  101.58
  13   4   0  515.30   78.74
   0 -10   0  599.37   77.19
   0  10   0  579.63   75.02
  -2  -5  -5 2501.72  300.77
   2  -5   5 2738.87  401.86
   2   5   5 2769.08  374.66
   4   8   3  149.26   55.06
   4  -8   3   50.90   28.42
   4  -8   3   65.75   23.89
   8  -4   4  135.68   50.59
   8  -4   4   60.33   22.92
   6  -9  -1  -18.01   29.19
   6   9  -1   73.40   33.68
   8   8   1 1876.55  190.21
   1  10   0  415.39  299.81
   1 -10   0  261.63   91.00
  -1  10   0  274.74   98.29
  13   0  -3   -1.07   22.71
  13   0  -3  -65.42   36.19
  -8   7   3    3.92    9.76
   8  -7  -3  -24.06   36.39
   8   7  -3  -85.66   34.59
   7  -5   4 1248.80  142.64
   7  -5   4 1021.79  152.73
   7   5   4 1467.16  198.65
  -9   0   5   42.00   25.62
  14   2  -1 1025.78  119.20
  14   2  -1  552.05  100.59
  14  -2  -1  770.97  142.01
  14  -2  -1  692.36   73.24
  13   0   2 4068.69  570.33
  13   0   2 4597.59  433.62
  -1   0   6 1687.40  250.68
  11   5   2 1171.01  205.12
  11   5   2 1487.23  158.22
  11  -5   2 1124.08  153.52
  14  -2   0  123.56   42.27
  14   2   0  155.14   55.14
  14  -2   0  197.55   68.25
  14   2   0  254.65   90.02
   2   0  -6 2473.29  241.45
  -2   0   6 1989.95  320.82
  11   6   1   33.18   33.09
  11  -6   1   41.26   22.71
  10   6   2 1774.90  187.17
  10  -6   2 1621.00  217.00
   3   7   4 2609.28  379.18
  -3  -7  -4 2594.21  245.76
   3  -7   4 2498.07  315.76
  13  -1  -3 2565.09  338.26
  13   1  -3 2038.65  285.42
  13  -1  -3 2193.79  207.34
  13   1  -3 2357.77  344.44
   2  10   0   48.75   29.35
  -2  10   0   23.52   14.90
  -2 -10   0  107.17   37.10
   2 -10   0  132.43   58.13
  11  -3   3  583.50   70.44
  11   3   3  708.87  102.03
  11  -3   3  594.96   80.87
  12  -5   1   25.66   23.51
  12   5   1  131.00   71.30
  -4  -9  -2  471.74   66.17
   4  -9   2  440.12   57.94
   4  -9   2  461.32   78.29
   9   1  -5  452.65   65.76
  -9   1   5  527.42   67.65
  -9  -1   5  478.44   57.97
   9  -1  -5  596.95  102.18
   0   0   6  -46.99   33.58
 -10   4   4  108.94   39.84
  10  -4  -4  103.26   40.34
  10   4  -4  150.72   51.97
  10   4  -4  263.45   91.93
  13   1   2  329.96  115.02
  13  -1   2  374.93  128.10
  13   1   2  169.08   69.40
  -1   1   6  876.94  172.48
   1  -1  -6 1060.25  146.56
   5   7  -4 2776.19  263.97
  -5   7   4 2740.93  272.23
  -2  -1   6  952.31  138.68
   2  -1  -6 1003.43  111.06
  -2   1   6 1130.90  169.92
  14   0  -2 2370.67  221.22
  14   0  -2 2616.78  245.99
  12  -5  -2   88.39   52.64
 -12   5   2  112.28   39.56
  -5  -9   2  143.06   50.32
   5   9  -2   80.95   28.98
   5  -9  -2  289.95  103.70
  -5   9   2  182.18   63.24
   3   0  -6 1942.20  192.21
  -3   0   6 2153.59  279.22
  11  -6  -2   65.58   47.93
  11   6  -2  115.50   62.38
  -9   5   4  209.97   71.00
   9  -5  -4  153.01   53.44
   9   5  -4  195.29   67.47
   9   3   4   16.56   24.50
   9  -3   4   96.78   43.79
  -5  -5   5  369.34  132.10
   5  -5  -5  384.41  278.42
  -8  -3   5 5148.40 3682.58
   8  -3  -5 5042.26 3644.59
   8   3  -5 4872.48  444.78
   7   8   2 3533.65  334.96
   7  -8   2 3701.14  513.21
  -7  -8  -2 3512.42  312.40
   0 -10   1 3172.21  469.01
   0 -10  -1 3535.34  421.42
   0  10  -1 3735.32  342.75
   0  10   1 3112.29  288.68
   6  -9   1   -9.58   33.03
   6   9   1   17.63   49.64
   7   0   5  -83.18   34.91
   0  -1   6 1322.09  184.61
   0   1   6 1521.72  219.05
   1 -10  -1 5451.49 3896.09
  -1  10   1 4615.03  431.79
   1  10  -1 5005.72  470.95
  11   5  -3  987.04  112.45
  11  -5  -3 1182.67  165.49
 -11   5   3 1205.26  152.29
  14   0   1   13.00   13.42
  14   0   1   12.51   18.83
   6   8  -3  702.38  103.09
  -6   8   3  569.98   76.37
   6  -8  -3  556.57   81.25
  -6  -8   3  469.92   80.05
  -7  -4   5  683.97   91.32
  -7   4   5  732.19  106.74
   7  -4  -5  568.21   95.89
  14   1  -2 2880.94  271.41
  14  -1  -2 2463.62  234.63
  14  -1  -2 2495.43  371.56
  14   1  -2 2553.38  234.88
  -3  -1   6 1925.53  236.89
   3  -1  -6 1645.41  166.94
  -3   1   6 1542.08  248.74
  -1  10  -1 2230.86  213.42
   1 -10   1 2229.59  324.12
   1  10   1 1979.86  262.88
   8   8  -2 1135.89  122.88
   8  -8  -2 1136.76  132.16
   7   7   3  -34.80   39.48
   7  -7   3   49.66   29.37
  -3  -5  -5 2548.93  358.92
   3   5   5 2648.20  254.56
   3  -5   5 2219.77  290.66
  10  -7   1  242.69   89.63
  10   7   1  312.98  109.05
  10   0   4 1204.49  169.41
   7   1   5 1276.79  137.53
   7  -1   5 1332.01  165.82
   9  -8   0 2851.50  274.35
   9   8   0 3272.25  461.04
  12  -4   2  104.80   46.34
  12   4   2  103.26   36.91
  12   4   2  169.51   60.77
  14   1   1  553.82   65.14
  14  -1   1  468.56   58.00
  14   1   1  717.69  102.94
  14  -1   1  776.47  120.88
  -2  10   1 1972.14  328.09
  -2 -10   1 1872.94  262.34
   2 -10  -1 1810.26  276.51
   2  10  -1 2367.84  223.45
  -3 -10   0  136.85   49.98
   3 -10   0  161.66   69.26
  -3  10   0  147.19   54.36
   3  10   0  169.22   59.00
   6  -3   5 2344.07  296.58
 -10   6   3  260.90   89.33
  10   6  -3  286.59  104.56
  10  -6  -3  256.62   91.13
   9   7   2 1350.90  151.26
   9  -7   2 1407.49  191.12
   6  -6   4  120.53   44.49
   6  -6   4  131.65   50.46
   6   6   4  200.01   81.96
  11  -3  -4  616.07   84.89
 -11   3   4  767.87   99.84
  11   3  -4  710.44   83.85
  11   3  -4  721.01   88.80
   4   0  -6  610.44   78.86
  -4   0   6  647.60  100.74
  13   2  -3  168.98   57.68
 -13   2   3  255.00   86.52
  13   2  -3  272.90   94.99
  13  -2  -3  200.75   69.74
   5  -4   5  129.37   63.73
   5   4   5    2.97   42.64
   1  -1   6  411.81  297.77
   1   1   6  245.10   98.44
  10  -1   4 1866.75  181.92
  10   1   4 1862.14  265.60
  10  -1   4 1783.19  241.70
  12   4  -3  165.43   56.91
  12  -4  -3  107.01   60.36
  12   4  -3  129.82   61.96
 -12   4   3  194.36   66.20
   9   8  -1   40.37   20.33
   9  -8  -1   40.27   27.11
   9  -2  -5  -10.25   40.46
  -9  -2   5   88.58   33.73
   9   2  -5  -26.46   26.38
  12   0   3   42.49   17.95
  12   0   3   46.98   25.23
  13   2   2 1506.96  233.24
  13  -2   2 1414.15  138.10
  13   2   2 1402.09  170.31
  -1  -2   6  293.58  104.33
   1  -2  -6  244.65   84.12
  -1   2   6  289.21   99.49
  -2  10  -1 1293.34  160.26
  -2 -10  -1 1404.45  188.20
   2  10   1 1657.50  169.22
   2 -10   1 1558.59  240.47
   5   8   3   -2.75   40.62
   5  -8   3   14.24   17.26
   5  -8   3   28.55   15.03
   7   9   0  285.41   99.80
   7  -9   0  292.64  102.46
  -2   2   6  201.36   69.92
   2  -2  -6  236.68   84.77
 -13   4   2  239.05   83.14
  13  -4  -2  259.77   96.45
  13   4  -2  226.53   83.61
  10   7  -2 1864.80  268.09
  10  -7  -2 2105.86  206.47
   4   1  -6 2152.65  210.02
  -4   1   6 2288.15  355.14
   4  -1  -6 2162.51  289.12
  -4  -1   6 2019.90  317.71
  13   4   1 2315.23  321.04
  13  -4   1 2282.92  277.32
   4  -7   4  980.38  157.91
   4   7   4 1036.19  116.05
   4  -7   4  943.85  112.18
  -4  -7  -4  938.15  139.62
   8   6  -4  206.84   72.94
   8  -6  -4  296.53  101.47
  -8   6   4  100.38   40.93
  14   3  -1 1163.05  176.76
  14  -3  -1  837.73  119.93
  14   3  -1  740.55  124.13
   0   2   6   27.12   41.25
   0  -2   6   -0.49   29.29
   0  -2  -6  115.90   48.05
  12  -1   3 1142.98  168.36
  12  -1   3 1279.83  163.35
  12   1   3 1047.59  142.01
  12   1   3 1292.84  139.49
  12   0  -4   -4.74   29.28
 -12   0   4   30.96   20.28
  -1  -6   5   54.89   32.02
  -1   6   5   34.47   44.19
   1  -6  -5   31.00   33.60
  -1  -9   3  349.49  122.47
   1   9  -3  235.49   85.56
   1  -9  -3  279.17  104.71
  -1   9   3  331.98  120.90
  14  -3   0   72.84   29.18
  14   3   0   58.63   24.58
  14   3   0  126.38   59.12
  14   2  -2  188.78   75.21
  14   2  -2  110.00   41.91
  14  -2  -2   51.55   33.43
  14  -2  -2  107.08   46.53
   0   9   3  777.14   95.80
   0  -9   3  805.95  116.37
   0   9  -3  702.79   89.59
   0  -9  -3  757.82  106.57
   3  -2  -6 2381.17  233.25
  -3  -2   6 2106.71  408.46
  -3   2   6 2326.83  251.55
   7   9  -1  548.51   68.04
   7  -9  -1  571.08   82.80
   3  10  -1 3866.02  518.35
   3 -10  -1 4562.72  416.56
  -3 -10   1 3688.20  377.94
  -3  10   1 4085.03  396.37
   2  -6  -5    9.59   20.16
  -2   6   5  117.79   55.78
  -2  -6   5   80.99   33.97
   2   0   6   29.04   42.40
  -6   7   4 1856.37  296.83
   6  -7  -4 1857.34  184.59
   6   7  -4 1962.98  249.99
   0   6   5  125.40   49.27
   0  -6   5   93.80   39.22
   0  -6  -5  126.45   54.15
  10  -5   3 2643.77  384.79
   5  -9   2  368.80  125.59
  -5  -9  -2  392.03  282.18
   5   9   2  500.52   75.05
   7   2   5  130.95   59.12
   7  -2   5  123.00   56.83
   6  -5  -5 2517.09  348.81
  -6   5   5 2516.16  246.39
  -2   9   3  987.59  155.80
   2  -9  -3 1061.48  122.18
   2   9  -3 1017.15  149.87
  12   1  -4 1763.79  176.25
  12   1  -4 1764.16  245.48
  12  -1  -4 1678.39  166.72
 -12   1   4 1765.21  292.87
  14   2   1 2615.75  309.77
  14  -2   1 2930.05  311.82
  14   2   1 2961.32  495.30
  14  -2   1 3205.43  460.95
   6  -9  -2  415.91  303.42
   6   9  -2  405.75  294.07
  -6   9   2  240.10   81.23
  12   6   0 1320.94  143.67
  12  -6   0 1601.99  204.62
   1   9   3  768.42  140.22
   1  -9   3  727.44  103.91
  -1  -9  -3  799.18  111.35
  -1   9  -3  757.14  100.12
  12   6  -1   41.77   26.55
  12  -6  -1   94.54   51.65
   2  -1   6 1460.92  231.97
   9  -6   3   -9.37   21.22
   9   6   3  -41.73   43.71
  -5   0   6 1440.65  200.01
   5   0  -6 1512.75  207.44
   1   2   6  264.92  110.34
   1  -2   6  178.48   62.49
  -4 -10   0   29.39   15.09
   4  10   0   44.07   23.39
   4 -10   0   94.98   49.39
  -4  10   0   20.84   19.70
   3 -10   1 1500.82  200.71
  -3 -10  -1 1149.17  162.80
  -3  10  -1 1345.67  128.12
   3  10   1 1113.21  157.83
  10   2   4  380.12  276.26
  10  -2   4  347.24  128.23
  10  -2   4  525.35   92.90
  -3  -6   5  684.41   89.09
  -3   6   5  578.42   77.75
   3  -6  -5  516.26   72.22
   4  -5   5 3783.56  460.08
   4   5   5 3758.41  668.64
  -4  -5  -5 4106.99  438.99
  -1  -6  -5  192.69   73.66
   1  -6   5  268.90   98.51
   1   6   5  276.97  103.15
  -4  -2   6  295.83  103.97
   4  -2  -6  298.49  109.15
  -4   2   6  176.77   62.13
  -9   7   3  336.65  115.35
   9   7  -3  284.03  104.39
   9  -7  -3  294.22  107.15
  -5  -1   6 2109.66  356.29
  -5   1   6 2442.25  299.92
   5  -1  -6 2733.83  377.93
   5   1  -6 2404.94  234.80
  13  -5  -1   69.06   55.74
  13   5  -1  115.04   57.19
  13   5   0  376.58  129.45
  13  -5   0  379.83  275.86
   1   8  -4   44.84   26.73
  -1   8   4  -18.87   32.83
  -1  -8   4    2.54   18.79
  -1  -8   4    4.15   20.85
   1  -8  -4  155.04   57.29
  -3   9   3 2016.22  194.00
   3   9  -3 2019.70  194.87
  -3  -9   3 1877.23  280.94
   3  -9  -3 2083.09  201.54
  11  -4   3 1130.09  137.67
  11   4   3 1505.55  191.85
  11  -4   3 1404.32  186.16
   9   8   1  192.60   74.83
   9  -8   1  460.41   81.37
  11   7   0  358.69  126.24
  11  -7   0  451.07   70.85
  12   2   3 1099.94  146.14
  12  -2   3  944.56  140.45
  12   2   3  764.56   93.87
  12  -2   3 1235.84  190.64
  -7   8   3   56.40   30.79
   7   8  -3   81.61   51.21
   8  -5   4  375.44  125.91
   8   5   4  165.88   58.74
   8  -5   4  258.52   90.23
   0  -8   4  -24.45   36.47
   0  -8  -4  -42.24   37.39
   0  -8   4   24.18   17.66
  10   0  -5    1.60   23.00
 -10   0   5  -12.27   40.61
  11   7  -1  211.87   88.38
  11  -7  -1  137.71   52.65
  -2  -8   4   37.39   25.71
   2   8  -4   48.54   38.69
  -2   8   4   44.89   21.30
   2  -8  -4   97.18   38.92
   9   4   4  355.62  123.95
   9  -4   4  322.81  111.32
   9  -4   4  365.57  127.40
   7  -9   1   27.37   25.82
   7   9   1   29.48   29.73
  -8  -4   5   25.48   20.97
   8  -4  -5  211.30   83.08
  -8   4   5   64.12   34.52
  13   3  -3 4816.86  491.18
  13   3  -3 4642.75  423.37
 -13   3   3 5066.70 3620.86
  -2  -9  -3 1235.68  177.72
   2  -9   3 1234.03  159.82
   2  -9   3 1202.68  200.36
  -2   9  -3 1111.22  158.20
  -4  10   1 1760.90  200.79
  -4 -10   1 1699.85  258.35
   4 -10  -1 2286.55  310.50
   4  10  -1 2287.97  293.18
   9   3  -5 1812.19  243.33
  -9   3   5 2016.38  304.79
  -9  -3   5 1856.18  260.10
   9  -3  -5 2078.09  302.48
  13  -3   2   89.41   33.86
  13   3   2   81.15   34.17
  13  -3   2   95.16   35.62
  13   3   2  156.76   55.06
  12   2  -4   86.45   47.14
 -12   2   4  -37.24   30.11
  12   2  -4   13.66   15.55
  -1  -3   6   57.88   29.05
  -1   3   6    3.78   41.55
   1  -3  -6   99.26   39.03
  -4   6   5 1555.08  183.64
  -4  -6   5 1558.81  248.99
  -2  -3   6  163.68   63.53
   2  -3  -6   50.19   24.71
  -2   3   6  127.78   71.25
  10   1  -5  843.31   95.55
 -10   1   5  801.88  107.14
 -10  -1   5 1049.72  122.53
   3   0   6  205.52   93.00
   8   8   2 1336.32  174.72
   2   2   6   42.38   31.45
   2  -2   6   73.83   32.13
   1  -8   4  125.39   40.40
   1  -8   4   78.43   41.80
   1   8   4  105.17   39.81
  -1  -8  -4   39.28   26.61
   0  -3   6  -44.41   31.74
   0  -3  -6   67.05   59.49
  10  -5  -4  459.47   91.09
  10   5  -4  492.91  105.82
 -10   5   4  382.26   79.42
   2  -6   5  158.71   40.97
  -2  -6  -5  384.20   83.96
   2   6   5  393.22   93.84
   3   8  -4  685.20   97.97
  -3   8   4  691.48   97.08
   3  -8  -4  773.24  116.99
  -5  -7  -4 4001.96  582.65
   5  -7   4 3213.29  465.94
   5  -7   4 3722.74  709.77
   5   7   4 4229.42  493.92
  15   0  -1  -45.31   24.20
  15   0  -1   14.02   17.70
   0  10   2   -5.51   34.56
   0 -10   2  -60.14   30.57
   0 -10  -2   -0.09   26.99
   0  10  -2  -25.99   19.85
  -1  10   2  -35.28   28.81
   1  10  -2   46.70   41.34
   1 -10  -2   39.23   32.79
  -6  -8  -3   42.62   34.58
   6   8   3    4.76   39.93
   6  -8   3   88.79   60.75
 -14   3   2 1257.48  227.10
  14   3  -2 1541.78  189.89
  14   3  -2 1214.18  172.77
   6   4   5  346.34   83.44
   6  -4   5  366.32   82.06
   3  -3  -6  106.09   29.24
  -3   3   6  -29.08   35.98
   9   8  -2 1911.88  290.79
   9  -8  -2 1886.67  276.89
   3   1   6  723.24  107.44
   3  -1   6  740.64  104.64
   8   0   5  -40.59   37.07
  11   4  -4   43.15   36.16
  11  -4  -4   37.51   35.46
 -11   4   4  -19.86   22.30
  -4 -10  -1 1876.68  281.85
   4 -10   1 2312.73  343.09
   8  -7   3   86.37   32.95
   8   7   3  139.04   50.14
   4   9  -3  661.09  103.01
  -4   9   3  884.74  171.61
   4  -9  -3 1050.12  139.61
  -4  -9   3  776.26  111.78
  15   0   0 1375.81  218.37
   5  -2  -6   55.28   54.86
  -5   2   6  201.92   47.81
  -6   0   6  466.94   97.04
   6   0  -6  442.68   96.98
   7   6   4  -77.35   40.77
   7  -6   4    9.95   21.30
   7  -6   4   28.48   51.95
   7  -3   5 1967.31  288.54
   7   3   5 1972.26  244.00
  15   1  -1  254.07   58.72
  15  -1  -1  173.14   41.17
  15  -1  -1  318.08   73.11
  15   1  -1  222.39   51.59
   1 -10   2  -65.89   31.00
   1  10   2    4.59   44.36
  -1  10  -2  112.74   40.12
  -1 -10  -2   47.22   45.41
  14   3   1  -29.09   22.23
  14   3   1   -2.26   17.79
  11   6   2 2888.46  357.86
  11  -6   2 3078.18  528.01
  -7  -5   5 1064.61  162.06
   7  -5  -5  887.61  138.95
   7   5  -5 1091.41  148.95
  -7   5   5  960.33  130.25
   5 -10   0  308.66   72.00
  -2  10   2   10.35   14.11
   2  10  -2   67.73   56.72
   2 -10  -2   50.92   45.94
  -2 -10   2   90.52   25.11
  -7   7   4 3001.01  348.58
   7  -7  -4 3382.10  526.97
   7   7  -4 3192.39  500.63
   8   1   5  866.00  120.81
   8  -1   5  920.64  146.37
  15   1   0  117.42   30.93
  15   1   0   34.26   30.76
  15  -1   0   88.15   26.85
  15  -1   0   91.44   26.26
   8   9   0   66.25   49.38
   8  -9   0  -34.11   43.22
   6  -9   2  140.42   38.28
  -6  -9  -2   55.86   44.79
   6   9   2   45.33   58.28
  -6  -1   6 1428.18  244.78
  -6   1   6 1436.46  216.55
   6  -1  -6 1523.72  247.47
   6   1  -6 1705.73  246.84
   1  -3   6  209.66   47.07
   1   3   6   64.06   49.30
  10  -3   4   14.45   29.47
  10   3   4  176.60   49.66
  10  -3   4  200.00   48.11
   3   9   3 1246.96  162.82
   3  -9   3 1210.93  179.55
   3  -9   3 1252.21  205.54
  12  -6   1 1649.35  245.14
  14  -4  -1 1383.21  245.12
  14   4  -1 1469.88  187.31
   2  -8   4  -42.86   33.23
   2   8   4   12.45   43.68
  -2  -8  -4   -6.65   34.97
  12   5   2  550.87  225.96
  12  -5   2  681.80  109.17
  12   5   2  596.01  235.11
  14   4   0  -41.87   33.33
  14  -4   0  -70.39   36.48
 -10  -2   5   64.59   52.36
 -10   2   5   78.37   58.58
  10  -2  -5  -48.66   34.12
  10   2  -5    6.38   26.06
  14   0  -3  -12.53   23.54
  14   0  -3   54.22   50.12
  12  -6  -2 1822.20  224.61
  12   6  -2 2132.36  307.89
  -7   9   2   96.59   25.70
   7   9  -2  143.05   52.55
   7  -9  -2  162.98   40.93
   9  -6  -4  361.94   83.83
   9   6  -4  315.81   68.22
  -9   6   4  272.73   63.71
  -4  -3   6  446.38   97.30
  -4   3   6  412.09   86.32
   4  -3  -6  407.89   90.18
  10   8   0 5030.25 1981.58
  10  -8   0 4336.58  506.34
  -5   6   5  410.15   86.56
  -5  -6   5  401.22   89.50
   5  -6  -5  386.64   78.07
  -4  -8   4  242.49   57.66
   4  -8  -4  285.59   63.31
  -4   8   4  225.47   46.57
   8  -9  -1  357.23   83.04
   8   9  -1  336.13   68.87
   5   5   5 1383.44  223.70
   5  -5   5 1126.12  175.80
  12  -5  -3 1794.05  263.84
  12   5  -3 1451.15  182.38
 -12   5   3 1520.74  227.96
  12  -3   3 1633.08  246.32
  12   3   3 1355.87  218.30
  12   3   3 1126.08  171.37
  12  -3   3 1166.67  173.56
  -5  10   1 1589.05  320.13
   5 -10  -1 2396.23  383.96
  -2 -10  -2  808.83  117.58
  -2  10  -2  805.67  131.67
   2  10   2  800.40  112.20
   2 -10   2  801.59  123.79
  11  -6  -3   42.26   52.06
  11   6  -3   31.23   48.70
 -11   6   3   21.13   18.54
  10  -8  -1  -34.21   41.67
  10   8  -1  -59.57   41.72
  11  -7   1  -12.80   35.33
  11   7   1  118.10   59.39
  -3 -10   2   26.60   22.37
   3  10  -2   51.01   40.89
   3 -10  -2   56.74   43.09
  -3  10   2   35.13   29.49
  13   5  -2   49.85   41.51
  13  -5  -2   53.32   59.44
  10  -7   2  932.74  144.89
  10   7   2 1018.94  160.67
  14   1  -3  469.74   99.84
  14  -1  -3  507.21  109.53
  14   1  -3  581.21  225.61
  14  -1  -3  504.60  102.99
   3  -2   6  -84.57   32.13
   3   2   6   -8.44   39.61
  13   5   1   88.51   34.09
   3   6   5   24.85   42.99
  -3  -6  -5   40.78   31.68
   3  -6   5   26.42   29.22
  14   0   2 4442.01  518.99
 -12   3   4  481.68   97.29
  12   3  -4  349.62   90.54
  12   3  -4  449.54   91.27
  12  -3  -4  376.57   82.24
  15  -2  -1  773.04  130.46
  15   2  -1  585.43  242.53
  15   2  -1  968.74  148.28
  15  -2  -1  796.40  150.48
  11   0   4  105.33   43.00
  11   0   4  309.47   70.89
   4   0   6  450.43   98.85
  11  -7  -2 1005.76  135.26
  11   7  -2 1445.29  202.32
  -5  -9   3 1998.25  291.42
   5  -9  -3 2462.53  381.60
  -5   9   3 2186.68  354.99
   8  -2   5  166.56   54.92
   8   2   5  281.91   63.35
   2   3   6   41.54   34.57
   2  -3   6   25.63   23.19
  15   2   0  621.53   82.00
  15  -2   0  549.26  228.84
  15   2   0  744.40  121.41
  15  -2   0  581.03  237.58
  -6  -2   6   56.52   47.98
  -6   2   6  110.06   33.28
   6  -2  -6   67.00   60.28
   8  -8  -3  256.31   55.23
  -8   8   3  243.39   54.82
   8   8  -3  243.12   62.72
  14  -1   2  469.40   99.20
  14   1   2  301.06   70.55
  14  -1   2  385.65   91.41
  14   1   2  453.34  105.23
  11   1   4 3781.74  580.29
  11  -1   4 3880.30  543.60
  11  -1   4 3643.04  596.83
   5  10   1 2746.89  420.48
   5 -10   1 3104.34  460.27
   4  -1   6 3074.06  363.49
   4   1   6 3165.03  514.33
  15   0  -2  439.82   91.56
  15   0  -2  391.80   76.46
   3  -8   4  102.46   28.50
   3  -8   4   44.66   35.92
   3   8   4   11.73   48.56
  -3  -8  -4   -4.49   30.50
  13  -4  -3  429.09   96.62
  13   4  -3  398.22   89.66
 -13   4   3  340.43   81.84
   5  -3  -6  419.92   98.65
  -5   3   6  571.68  225.26
  -5  -3   6  483.25  103.57
  -7   0   6  938.28  133.13
   7   0  -6 1014.87  134.29
   9   4  -5   85.27   41.36
  -9   4   5   23.81   23.89
   9  -4  -5   76.95   55.72
  13   4   2  -35.60   36.17
  13   4   2   49.97   37.39
  13  -4   2  -35.83   44.10
   4  -9   3 1800.21  275.96
  -4  -9  -3 1624.66  195.37
   4   9   3 1909.81  347.76
   4  -9   3 1353.91  206.76
   3  10   2   23.93   45.32
   3 -10   2  177.10   42.88
  -3 -10  -2   78.05   59.69
  -3  10  -2   67.75   50.49
  -1   4   6  -20.88   36.21
  -1  -4   6    5.36   15.53
   5  -8  -4   69.73   66.31
  -5  -8   4   85.53   20.55
   5   8  -4   57.18   47.88
  -5   8   4   87.19   27.97
   2  -4  -6  315.13   77.89
  -2   4   6  352.59   82.35
  -2  -4   6  315.04   65.94
   8   9   1   17.61   26.87
   8  -9   1  100.99   30.78
  15   1  -2 2286.83  274.94
  15   1  -2 1842.02  301.19
  15  -1  -2 2135.20  253.87
 -10   7   3   18.80   15.44
  10   7  -3  -28.73   37.40
  -4  10   2   55.95   45.69
   4  10  -2   53.71   47.25
   4 -10  -2  -13.02   29.66
  -4 -10   2   23.42   18.39
 -14   2   3    8.93   14.62
  14   2  -3   63.73   48.90
  14  -2  -3  -21.84   36.23
  14   2  -3   41.49   36.05
   6  -7   4 2469.07  388.06
   6   7   4 3388.78  400.81
   6  -7   4 3244.06  539.75
  13   0  -4  605.01  237.02
 -13   0   4  426.64   93.07
   6 -10   0  -29.44   28.41
   6  10   0  -40.57   36.77
  10   6   3   60.91   51.33
  10  -6   3  166.81   37.41
  15   0   1   19.77   20.33
  11   5   3  617.78  105.12
  11  -5   3  425.84   87.24
   7  -1  -6 1551.42  195.28
  -7  -1   6 1516.56  221.48
  -7   1   6 1525.09  224.91
   6   6  -5  156.77   36.92
  -6   6   5  114.71   43.69
  -6  -6   5  185.16   55.61
   6  -6  -5  204.16   49.97
   0  -4  -6   -0.53   37.33
   0   4   6   80.04   61.56
   0  -4   6   35.70   30.37
  13   0   3  -54.83   33.25
  13   0   3   29.14   39.59
 -10  -3   5 2414.67  376.31
 -10   3   5 2662.73  381.85
  10  -3  -5 2444.67  366.78
  10   3  -5 2429.01  429.62
 -14   4   2  345.37   73.99
  14  -4  -2  410.64  107.42
  14   4  -2  514.39  102.02
  -3   4   6  -18.46   42.20
   3  -4  -6   -4.52   44.24
  -3  -4   6  -11.97   40.00
   7   8   3   48.07   38.96
   7  -8   3   36.61   34.78
   9  -5   4  426.55   98.06
   9  -5   4  645.31   85.80
  13   1  -4  496.93  108.71
  13   1  -4  539.81  214.43
 -13   1   4  550.72  219.19
  13  -1  -4  517.88  115.09
  11   0  -5   50.75   52.51
 -11   0   5  -10.83   37.41
   8   5  -5 1889.12  310.25
  -8   5   5 2065.12  302.66
   8  -5  -5 1870.46  228.88
  10   8   1 1054.63  146.74
  10  -8   1  785.82  110.57
  15   1   1   26.97   28.37
  15  -1   1   36.22   34.30
  15  -1   1   73.26   58.94
  15   1   1   79.10   60.35
  14  -2   2 1563.19  224.51
  14   2   2 1312.48  176.75
  14   2   2 1421.51  199.25
  14  -2   2  927.10  149.63
   8  -7  -4 2102.74  351.73
   8   7  -4 1836.91  295.74
  -8   7   4 2243.65  266.38
  13  -1   3  150.19   43.00
  13   1   3   71.15   57.55
  13   1   3  115.18   33.10
  13  -1   3   76.09   63.20
  -1  -7   5   99.99   30.29
   1  -7  -5   29.24   25.62
  -1   7   5  106.27   42.13
  -4  -6  -5  -20.04   41.37
   4   6   5  -80.68   42.95
  11   2   4  143.52   30.94
  11  -2   4   89.27   25.02
  14   4   1 4798.92 1828.74
  14  -4   1 4695.11  564.51
   6  10  -1   78.29   60.19
   6 -10  -1  139.64   43.49
   4  -2   6   38.66   46.07
   3   3   6   56.16   57.26
   3  -3   6   15.60   19.07
   9   8   2 2047.69  254.19
   9  -8   2 2413.97  377.01
   2  -7  -5   76.40   59.56
  -2  -7   5   78.52   61.64
  11   1  -5  557.38  217.08
 -11  -1   5  380.42   89.42
  11  -1  -5  400.73   81.90
   7  -9   2  814.37  124.60
   7   9   2  879.96  137.01
   0  -7   5   10.07   25.50
   0   7   5  126.40   60.99
   0  -7  -5  120.05   43.52
  13  -6  -1  285.28   65.01
  -1  -4  -6  107.87   32.02
   1   4   6   43.15   54.17
   1  -4   6   61.54   47.83
  13   6   0 1762.08  263.40
  13  -6   0 1520.10  250.91
  10   4   4  261.91   71.99
  10  -4   4  176.27   39.54
  10  -4   4  177.81   40.39
  15  -3  -1  423.53   84.39
  15   3  -1  742.20  102.98
  15  -3  -1  843.19  129.07
   8  -6   4  563.25  238.40
   8   6   4  338.32  100.35
   8  -6   4  337.57   84.01
   6  -9  -3 1021.11  135.31
   6   9  -3  677.42   95.99
  -6   9   3  866.80  117.25
  15   2  -2  572.24  224.62
  15  -2  -2  517.79  104.25
  15  -2  -2  581.63  244.47
  15   2  -2  437.67  102.85
   6   5   5  122.55   35.75
  12  -7   0  798.48  124.28
  12   7   0 1033.93  167.28
  10  -8  -2 2180.35  388.66
  10   8  -2 2233.84  347.92
   8   9  -2  254.40   68.97
   8  -9  -2  303.10   71.88
   8   3   5 1715.48  278.12
   8  -3   5 1777.45  215.62
  11  -5  -4  199.22   54.16
 -11   5   4  140.01   30.76
  11   5  -4  116.42   54.46
  -4  -4   6  316.61   65.05
   4  -4  -6  374.13   86.88
  -4   4   6  247.22   67.38
  12   7  -1  641.91  110.09
  12  -7  -1  699.60  102.51
  15   3   0   23.02   24.44
  15  -3   0  -44.01   37.23
   9   7   3  286.01   79.70
   9  -7   3  247.56   70.56
   4  -8   4   88.81   25.33
  -4  -8  -4  147.29   46.03
   4  -8   4  143.09   29.80
   4   8   4  153.39   42.01
  -6   3   6  522.73  108.40
  -6  -3   6  450.98   91.79
   6  -3  -6  553.27  215.46
   0  11   0    4.89   26.16
   3  -7  -5   85.81   26.68
  -3  -7   5  103.53   26.53
  -7  -2   6   49.91   43.10
  -7   2   6   28.72   38.10
   7  -2  -6  -78.82   35.85
   7   2  -6  -58.72   33.38
  -4 -10  -2  204.39   46.35
   4 -10   2  271.30   61.96
  12   4   3  349.79   77.81
  12  -4   3  357.14   78.89
  12   4   3  369.20   82.69
   9   0   5  -68.44   39.81
   5   0   6   19.99   29.03
   9   9   0   62.66   63.35
   1 -11   0  144.28   37.26
  -1  11   0  142.84   42.81
   1  11   0  114.34   38.88
  -1 -11   0  129.20   36.47
   1   7   5  -32.63   41.41
   1  -7   5   86.56   23.52
  -1  -7  -5   14.75   33.39
  -5  10   2  224.57   53.35
   5  10  -2  200.22   41.96
   5 -10  -2  328.23   68.92
 -13   2   4  300.79  119.95
  13   2  -4  367.30   66.68
  13  -2  -4  353.46   69.67
  13   2  -4  265.09  110.72
   6   8  -4   67.32   46.61
  -6  -8   4   30.91   17.85
   6  -8  -4   30.19   42.56
  -6   8   4   42.38   32.56
  15   2   1 1232.61  181.04
  15  -2   1 1229.66  196.60
  15  -2   1 1080.53  169.30
  15   2   1 1375.46  212.75
   6  10   1 2626.35  433.52
   6 -10   1 1995.90  307.23
   9   9  -1   85.84   47.32
  14  -5  -1 1008.51  187.45
  14   5  -1  865.95  151.03
 -10   6   4  355.33   53.70
  10   6  -4  303.35  123.69
  10  -6  -4  359.51   72.77
  12  -4  -4  -84.06   39.37
 -12   4   4    0.51   27.80
  12   4  -4   98.05   43.00
   9  -1   5  664.17  105.25
   9   1   5  653.31   92.22
  13   2   3 1295.14  238.24
  13  -2   3 1084.27  191.81
  13   2   3 1131.65  188.99
   5   1   6 1960.63  340.68
   5  -1   6 1558.45  251.38
  -5  -9  -3  326.73  328.44
   5   9   3  359.62   73.78
  14   5   0   16.69   44.11
  14  -5   0  -56.85   43.27
  14   3  -3  495.30   81.04
 -14   3   3  395.80   65.76
  14   3  -3  425.71   77.05
  14  -3  -3  539.36   85.98
 -11  -2   5   72.47   37.88
  11   2  -5  142.92   62.23
  11  -2  -5  100.57   42.30
 -11   2   5   66.78   42.88
   2   4   6  -25.60   43.93
   2  -4   6   46.79   29.76
  -2  -4  -6   58.92   34.63
   2  11   0   69.05   32.71
  -2 -11   0   15.16   12.95
   2 -11   0  -12.22   30.76
  -2  11   0   34.67   19.48
   8   0  -6  -53.35   32.47
  -8   0   6   28.96   22.98
   4  -7  -5  175.98   71.94
  -4   7   5  146.30   73.14
  -4  -7   5  157.52   66.68
  -7   6   5  275.25  117.19
   7   6  -5  294.17  119.23
   7  -6  -5  263.80  105.41
  -9   8   3   97.70   44.71
   9  -8  -3  112.99   51.49
   9   8  -3  202.02   89.12
  -5   4   6  194.22   79.73
   5  -4  -6  177.31   88.85
   0 -11   1  554.88   92.77
   0  11   1  567.05   94.24
   0  11  -1  502.43   82.27
  14   3   2  518.05   92.75
  14   3   2  392.26   81.61
  -1  11   1 1641.70  226.30
   1  11  -1 1525.49  190.47
   1 -11  -1 1474.37  232.37
  -1 -11   1 1695.63  209.60
  11  -8   0 2979.44  507.46
  11   8   0 3874.31 3866.48
  -2  -7  -5  109.24   58.37
   2  -7   5  347.53   57.21
   2  -7   5  319.56  320.30
   2   7   5  321.64  323.81
  -8  -1   6   85.15   41.68
   8   1  -6   88.74   39.90
   8  -1  -6  156.88   74.91
  -8   1   6  113.62   49.97
  12  -6   2  818.98  128.85
  12   6   2  820.46  138.62
  11  -3   4  462.32   75.75
  11  -3   4  652.98  102.29
  11   3   4  513.20   90.85
   7 -10   0  120.50   52.35
   7  10   0   85.82   58.50
   4   3   6   99.57   47.79
   4  -3   6   -8.47   38.06
  11   8  -1  931.26  135.52
  11  -8  -1  683.85  107.98
   1  11   1  290.32  122.75
  -1 -11  -1  103.91   42.91
  -1  11  -1   87.49   37.20
   1 -11   1  110.00   43.94
   5  -6   5   32.76   20.42
   5   6   5  -11.61   48.51
   5  -6   5   63.55   32.53
   7  -7   4 1979.34  237.67
   7   7   4 2031.17  337.46
  12   6  -3  137.25   72.53
 -12   6   3   97.57   38.88
  12  -6  -3   65.93   44.26
   9  -2   5  534.67   82.80
   9   2   5  621.71   99.90
   5   2   6  149.66   64.09
   5  -2   6   -3.88   35.71
   1 -10  -3  827.06  120.79
  -1 -10   3  712.33  114.06
   1  10  -3  736.34  109.00
  -1  10   3  641.10  115.71
  -2  11   1  739.90  133.68
   2 -11  -1  705.48  122.58
  -2 -11   1  655.08  118.53
   2  11  -1  702.94  131.72
  11   7   2  185.95   92.15
  11  -7   2  152.73   65.47
  10   4  -5  273.68  114.59
 -10   4   5   -9.95   33.63
  10  -4  -5   11.77   24.24
  15   3  -2   73.70   46.11
 -15   3   2   57.86   25.87
  15  -3  -2   20.04   40.80
  -3 -11   0   91.57   37.98
   3  11   0   18.28   15.64
   3 -11   0   54.27   28.16
  -3  11   0   58.48   27.78
  13  -6  -2  431.96   82.25
   0 -10  -3 2346.92  287.25
   0  10  -3 2228.00  270.97
   0 -10   3 1930.12  299.16
   0  10   3 2532.57  313.45
   7 -10  -1  912.21  151.69
   7  10  -1  904.50  138.17
  13   6   1  833.22  136.33
  13  -6   1  931.59  138.36
  13   5  -3  500.12   83.88
  13  -5  -3  747.05  112.62
 -13   5   3  547.19   76.20
  -1   9   4  291.08  117.78
  -1  -9   4  250.02   99.82
   1  -9  -4  164.46   75.09
   1   9  -4  250.59   99.00
  -5 -10  -2   -8.19   19.51
   5 -10   2   76.06   43.97
   5  10   2  112.40   52.46
  -7   3   6  266.01  105.15
  -7  -3   6  368.56   59.24
   7  -3  -6  188.36   75.03
  12  -7   1   -5.75   43.62
  12   7   1  -54.31   55.76
   9  -5  -5 1431.04  222.06
   9   5  -5 1394.95  182.81
  -9   5   5 1029.58  139.95
   9   9   1  951.63  139.98
  13   5   2  896.91  133.36
  13  -5   2  974.81  187.34
  -2 -10   3  543.57   88.48
   2  10  -3  632.35  103.86
  -2  10   3  666.21  126.51
   2 -10  -3  736.84  105.01
   7   9  -3 2310.37  285.32
  -7   9   3 1921.17  299.96
   7  -9  -3 2400.77  383.42
  -1  -5   6  911.19  131.67
   1  -5  -6 1098.78  150.11
  -1   5   6 1026.35  149.13
   5  -8   4   43.73   22.61
  -5  -8  -4   42.02   21.05
   5   8   4   98.35   44.48
   5  -8   4   95.75   44.60
  -2 -11  -1  -30.97   20.91
   2 -11   1  -15.28   32.65
  -2  11  -1  -16.18   23.13
   2  11   1  -42.55   39.07
   0  -9   4  835.19  124.64
   0  -9   4  568.21   97.49
   0  -9  -4  698.99   98.67
   0   9   4  605.94  113.23
  -2  -5   6  575.41   91.65
  -2   5   6  620.21   92.58
  16   0  -1  -44.17   27.10
  12  -7  -2 2938.39  361.36
  12   7  -2 2898.32  356.59
   6 -10  -2  110.09   56.77
  -9   7   4  771.41  123.18
   9  -7  -4  997.26  145.02
   9   7  -4  885.98  137.23
   2  -9  -4  362.28   63.06
   2   9  -4  321.22  322.31
  -2   9   4  371.97   75.34
   3   4   6  121.35   68.25
   3  -4   6  158.91   64.98
   8   8   3  -33.41   47.17
   1  10   3  976.78  143.38
  -1 -10  -3  802.22  134.18
   1 -10   3  870.84  136.99
  -1  10  -3  928.06  124.13
 -13   3   4  154.25   62.90
  13   3  -4  222.43   93.10
  13   3  -4  149.83   73.78
   5   7  -5   66.88   35.09
  -5  -7   5  143.12   59.91
  -5   7   5  -34.20   40.10
  15   3   1   47.85   22.77
  15   3   1  -18.92   18.36
  15  -3   1   10.08   21.23
   0   5   6 1258.20  224.97
   0  -5  -6 1329.71  234.46
   0  -5   6 1136.04  190.90
  -8  -2   6   -1.54   40.27
  -8   2   6  163.12   68.98
   8   2  -6   93.80   54.47
   8  -2  -6   91.16   56.03
  16   0   0 1257.22  199.99
  16   0   0 1185.61  236.18
  13   3   3  420.45   63.69
  13   3   3  508.24   85.37
  13  -3   3  210.82   89.08
  13  -3   3  426.44   81.63
  15   0  -3   38.74   22.83
  15   0  -3  -19.76   32.61
  11  -7  -3   42.53   47.51
  11   7  -3  -92.01   42.86
  15   4  -1  732.48  123.53
  16  -1  -1  156.39   62.44
  16  -1  -1  128.59   56.53
  16   1  -1   86.33   44.75
  16   1  -1   13.11   16.27
  -7   8   4  191.38   75.59
   7   8  -4  212.31   89.75
  -7  -8   4  111.81   45.67
  14   5  -2  249.34  103.28
  14  -5  -2  149.18   73.95
   3  -5  -6  535.50   90.49
  -3   5   6  851.00  119.49
  -3  -5   6  642.20  100.72
   3  11  -1  331.54   60.63
  -3  11   1  414.75   65.18
   3 -11  -1  378.80   65.99
  -3 -11   1  301.87  127.68
   8   4   5  252.79  112.19
   8  -4   5  119.44   48.57
   8  -4   5  111.74   48.81
  12   0   4  -48.08   41.09
  12   0   4  -55.43   35.61
   8  -9   2 1003.00  153.34
   8   9   2 1380.19  187.62
  11  -3  -5 1280.37  192.49
 -11   3   5 1316.93  187.77
 -11  -3   5 1130.84  169.87
  11   3  -5 1072.27  153.88
   3  -7   5  383.15   64.68
   3   7   5  497.10   78.25
  -3  -7  -5  446.15   79.33
   1  -9   4  468.13   74.55
  -1  -9  -4  595.86   93.96
   1  -9   4  571.67   82.79
  15   4   0  655.39  101.70
  -6   4   6    1.10   17.44
   6  -4  -6   54.77   34.06
  -6  -4   6   84.77   36.80
  -3  10   3   75.86   38.20
   3 -10  -3  -13.75   30.79
   3  10  -3    1.72   35.57
  -3 -10   3  -47.33   25.92
   6   0   6  147.40   59.70
   7   5   5  577.24  100.22
   7  -5   5  470.19   77.09
   7  -5   5  450.95   81.06
  -3   9   4  184.20   79.73
  -3  -9   4  267.66  105.36
   3   9  -4  361.59   66.83
   3  -9  -4  383.00   64.93
  16  -1   0   71.83   41.64
  16  -1   0   46.77   24.87
  16   1   0   69.04   30.78
  16   1   0   57.53   28.15
  15   1  -3  201.11   88.19
  15  -1  -3  120.98   55.95
  15  -1  -3  142.83   63.37
  15   1  -3  132.44   62.04
  14   5   1  101.30   48.73
  14  -5   1   93.80   49.98
   6   9   3 1793.63  304.91
   6  -9   3 1351.42  232.12
  -6  -9  -3 1253.36  201.50
   9   9  -2  921.39  129.93
  12   1   4 2346.95  430.60
  12   1   4 2336.27  329.23
   7 -10   1  830.25  128.16
   7  10   1  913.96  133.09
  -2  10  -3 1966.49  352.15
  -2 -10  -3 2092.90  324.05
   2 -10   3 2465.88  431.85
   2  10   3 2370.04  420.44
   1  -5   6  403.20   68.01
  -1  -5  -6  410.12   69.66
   1   5   6  395.77   91.58
   4 -11   0  307.63  126.58
   4  11   0  207.21   85.28
   3 -11   1   -0.15   40.15
  -3 -11  -1   20.91   11.75
   3  11   1  109.59   51.35
  -3  11  -1   40.58   33.11
  10  -5   4  208.13   87.64
  10   5   4  176.04   75.28
  11  -6   3   35.76   30.20
   6   1   6 3531.99  553.49
   6  -1   6 3802.49 3811.47
  12   0  -5  119.81   49.20
  11  -8   1   53.75   32.95
  11   8   1 -119.69   47.16
  10  -8   2 3012.95  470.19
  10   8   2 2764.07  489.19
 -14   4   3  280.71  112.75
  14  -4  -3  312.02  126.43
  14   4  -3  232.75  101.85
   9   6   4   -0.06   51.87
   9  -6   4  -34.36   45.40
  -4  -5   6  307.26  124.97
   4  -5  -6  407.58   87.56
  -4   5   6  238.31  102.01
   8   6  -5  149.54   70.87
  -8   6   5   73.67   43.08
   8  -6  -5  101.82   51.09
  15   0   2 1779.03  321.45
  15   0   2 1735.02  306.93
 -12  -1   5  504.89   79.68
 -12   1   5  462.85   76.71
  12   1  -5  363.18   62.24
  12  -1  -5  497.57   77.45
  12   5   3  710.68  115.74
  12  -5   3  590.06   80.67
  -2  -9  -4  619.04  101.92
   2   9   4  664.74  104.70
   2  -9   4  538.91   90.49
   2  -9   4  555.40   92.68
   9   3   5 2172.92  343.49
   9  -3   5 2409.66  369.59
   5  -3   6  440.99   86.09
 -14   0   4  649.76  111.01
  14   0  -4  903.77  139.20
  14   0  -4  649.67  101.24
   9   0  -6   -0.72   34.51
  -9   0   6  129.05   62.14
  16  -2  -1  197.30   84.21
  16   2  -1   99.35   44.59
  16  -2  -1   69.82   33.56
  16   2  -1  100.86   45.93
  11   8  -2  393.38   77.11
  11  -8  -2  349.03   68.69
  10  -9   0  381.59   67.97
  10   9   0  335.62   80.43
  -4  -9   4  362.88   53.65
  -4   9   4  390.34   64.73
   4   9  -4  347.41   64.19
   4  -9  -4  454.17   80.15
  -4  10   3   25.95   34.76
  -4 -10   3   35.54   19.79
   4 -10  -3  199.53   84.54
   4  10  -3   65.19   45.46
  15  -1   2 1135.42  193.66
  15   1   2  810.21  146.63
  15   1   2  772.93  145.33
  15  -1   2  683.10  105.69
   4 -11  -1  188.93   82.33
   4  11  -1   46.26   43.52
  -4  11   1  150.40   60.87
  10  -7   3   -2.26   47.26
  10   7   3  -17.57   59.02
  14   4   2  123.28   49.41
  14   4   2  225.61   98.78
  14  -4   2  208.15   83.09
   6  -7  -5  -29.53   40.96
   6   7  -5  -15.65   38.80
  -6   7   5  -25.01   32.78
 -12   5   4  212.78   81.96
  12   5  -4  232.50   93.65
  12  -5  -4  325.84  326.90
  16  -2   0  278.24  109.31
  16   2   0  189.19   75.76
  16  -2   0  226.25   91.37
  16   2   0  226.02   96.65
  14  -1  -4  893.98  140.13
  14   1  -4  841.22  118.26
 -14   1   4  737.61  117.54
  14   1  -4  740.97  132.71
  15   2  -3   31.00   21.37
  15   2  -3   61.42   27.37
  15  -2  -3   46.15   43.40
 -15   2   3   66.39   39.67
   9   1  -6  663.91  107.28
  -9   1   6  778.27  130.70
  -9  -1   6  696.60  124.54
   9  -1  -6  743.79  116.49
  10  -9  -1  766.05  149.11
  10   9  -1  710.84  109.64
  11   4   4   69.51   40.73
  11  -4   4   91.03   39.97
  11  -4   4   33.19   19.58
  16   0  -2 3995.63 3987.19
   4  -4   6  -13.54   41.69
   4   4   6  -66.04   51.42
   6  -6   5  119.79   48.19
   6   6   5  108.55   54.32
  12  -2   4  508.94   77.76
  12   2   4  491.09   80.14
  12  -2   4  608.49   89.05
  11  -6  -4   69.74   33.30
  11   6  -4   81.74   42.24
 -11   6   4  141.62   70.16
   2  -5   6 1180.20  189.35
  -2  -5  -6 1374.85  213.39
   2   5   6 1286.85  201.89
  10   0   5  102.93   44.24
   8 -10   0  115.30   79.24
   8  10   0   -8.76   43.22
   6  10   2  322.79  327.17
   6 -10   2  423.66   75.50
   3 -10   3  726.15  118.86
  -3 -10  -3  614.88  110.57
   3 -10   3  565.45   98.61
   6   2   6   95.89   44.00
   6  -2   6  137.47   67.50
  -8  -3   6   -5.31   43.09
   8  -3  -6   46.63   26.38
  14   0   3   38.10   22.05
   4  -7   5   24.22   39.56
  -4  -7  -5  -23.55   40.03
   4  -7   5   18.06   14.35
   4   7   5  -44.66   40.28
   0  11  -2  362.22   59.00
   0 -11   2  332.85   59.84
   0  11   2  310.94  123.38
  16   1  -2  657.89  102.62
  16  -1  -2  419.77   62.80
  16   1  -2  464.82   87.75
  16  -1  -2  618.18  104.62
   1 -11  -2   80.26   34.95
  -1 -11   2  122.76   52.87
  -1  11   2  113.54   54.36
   1  11  -2  130.99   68.04
  15   4  -2  -31.83   34.94
  10  -8  -3  607.24   99.40
  10   8  -3  820.45  126.82
   7 -10  -2  -12.63   40.09
   7  10  -2  -31.49   37.71
   6   8   4   76.38   52.61
   6  -8   4   33.93   17.74
  -6  -8  -4   53.13   55.72
   6  -8   4  -44.94   52.85
   4  11   1  110.40   47.74
  -4 -11  -1   51.59   53.45
   4 -11   1  108.14   56.92
  10   1   5   14.38   39.50
  10  -1   5  -15.67   37.13
   5  -5  -6  155.00   66.90
  -5  -5   6   96.10   48.71
   8 -10  -1  310.95  117.49
   8  10  -1  276.05  100.50
  13   7  -1   -6.03   54.45
  13  -7  -1  118.31   46.27
  -8   9   3  620.45  134.79
   8   9  -3  725.54  123.46
   8  -9  -3  936.40  152.60
  13   7   0  298.27  109.33
  13  -7   0  383.82  314.73
 -12  -2   5    7.92   22.53
 -12   2   5   13.55   30.80
  12  -2  -5   45.76   47.70
  12   2  -5  -45.10   27.55
  -7  -4   6  219.61   81.37
   7  -4  -6  254.19  104.30
  14  -6  -1  148.82   59.58
  14   6  -1  141.09   63.23
  -1 -11  -2   88.16   52.93
  -1  11  -2   75.52   47.12
   1 -11   2  -18.75   27.39
   1  11   2    2.61   17.97
  14   1   3  -91.13   38.62
  14   1   3   24.45   28.96
  14  -1   3   66.39   56.95
  14  -1   3   15.23   33.41
   8   7   4 1485.69  244.84
   8  -7   4 1656.90  317.19
  14  -6   0 1520.76  275.51
  14   6   0 1545.79  230.50
   5  11   0   58.73   76.54
   5 -11   0   -1.97   32.06
  -2  11   2   60.64   66.30
  -2 -11   2   82.54   33.76
   2  11  -2  -13.91   24.30
   2 -11  -2  -48.73   33.26
   3  -9   4  474.37   82.12
   3   9   4  408.78   67.70
   3  -9   4  328.17  119.91
  16   0   1  -41.45   32.89
  16   0   1   -6.37   27.82
 -13   4   4    5.34   19.06
  13  -4  -4   68.20   67.27
  13   4  -4   15.36   19.61
  13   4  -4  120.02   51.73
  15  -2   2  919.80  160.14
  15   2   2 1260.18  237.72
  15  -2   2 1539.44  236.05
  15   2   2 1499.62  261.42
  15   4   1 1796.97  310.63
  15  -4   1 1578.15  267.01
   8   8  -4   10.28   23.21
   8  -8  -4  119.11   56.72
  -8   8   4   49.40   54.25
  13  -4   3  374.41  303.02
  13   4   3  335.10  130.24
  13   4   3  292.45  115.63
  14   2  -4   34.60   38.07
 -14   2   4   22.25   24.72
  14  -2  -4   -4.32   35.10
  14   2  -4   84.81   47.96
   9  -2  -6  120.53   48.88
   9   2  -6  171.66   61.32
  -9  -2   6  198.76   72.84
  -9   2   6  130.29   51.73
  -1   8   5   -3.22   36.22
  -1  -8   5   53.44   61.07
  -1  -8   5    3.84   21.24
   1  -8  -5   62.79   65.08
   5  -9  -4  261.28  101.46
  -5  -9   4  137.08   51.57
  -5   9   4  263.54  101.22
 -10   5   5  921.09  148.98
  10  -5  -5  964.60  177.32
  10   5  -5 1005.84  155.64
   5  10  -3   17.72   39.60
   5 -10  -3   27.25   30.60
  -5  10   3   40.06   51.17
  16   1   1   31.16   32.77
  16  -1   1  112.75   49.21
  16  -1   1  140.05   55.40
  -2  -8   5   56.65   60.33
  -2  -8   5  -50.90   30.70
   2  -8  -5  -72.09   31.72
  -2   8   5  -24.81   35.06
 -11   4   5   48.73   52.36
  11  -4  -5   98.86   40.79
  11   4  -5   54.96   61.77
  11   4  -5  160.10   78.69
   0  -8   5  400.45  324.87
   0  -8  -5  489.92   85.43
   0  -8   5  456.88   97.48
   0   8   5  539.10   87.11
  10   7  -4 1632.55  312.36
  10  -7  -4 1823.45  336.05
 -10   7   4 1870.57  261.89
   5 -11  -1   94.40   47.94
   5  11  -1   57.12   64.16
   2  11   2  223.89   96.38
  -2 -11  -2  218.22   81.35
   2 -11   2  291.28  106.58
  -2  11  -2  167.64   63.30
  16   2  -2 1096.88  166.90
  16  -2  -2 1139.99  164.68
  16  -2  -2  925.41  163.41
  16   2  -2  718.70  133.25
  16   3  -1 2474.43  421.79
  16  -3  -1 2686.93 2144.98
  -3  11   2  322.88  118.14
  -3 -11   2  298.16  110.10
   3 -11  -2  279.57  102.32
   3  11  -2  317.82  121.27
  12  -8   0 1877.36  348.47
  12   8   0 1888.79  356.82
  -7  -9  -3   67.21   59.41
   7  -9   3   -0.89   53.79
   7   9   3   57.44   61.14
   3   5   6  712.89  127.95
  -3  -5  -6  729.53  116.64
   3  -5   6  750.50  144.77
  12  -8  -1  651.23  128.52
  12   8  -1  601.81  120.40
  10  -9   1  -14.49   45.97
  10   9   1  169.31   70.04
  10   2   5  144.01   65.83
   9  -8   3  285.38  108.89
   9   8   3  421.91   92.26
   7   0   6  106.25   54.44
   3  -8  -5   43.92   48.03
  -3   8   5   -6.19   40.97
  -3  -8   5   -9.83   34.65
   4 -10   3 1311.08  236.48
  -4 -10  -3 1213.37  177.40
   4  10   3  890.05  141.08
  16  -3   0  100.71   43.58
  16   3   0   16.15   41.62
 -15   3   3 1487.61  279.79
  15  -3  -3 1841.90  267.39
  15   3  -3 1755.82  253.93
  15   5  -1  214.08   78.41
  15  -5  -1  170.11   63.82
  14   2   3  186.75   73.81
  14  -2   3  161.53   67.71
  14   2   3   37.74   62.35
  14  -2   3  216.49   86.18
   7  -7  -5  376.99  304.53
   7   7  -5  227.95   93.35
  -7   7   5  263.64   99.09
   8  10   1 2236.65  369.19
   8 -10   1 2285.07  423.24
   1  -8   5   58.69   59.54
   1  -8   5   26.16   31.93
  -1  -8  -5   67.22   64.58
   1   8   5   96.11   43.85
   9   9   2  548.18   87.66
   8  -5   5  156.78   58.01
   8   5   5  217.92   84.75
   8  -5   5  191.09   75.06
  12  -3   4  810.81  145.72
  12   3   4  768.64  124.55
  12  -3   4 1082.07  197.54
  13   6  -3  162.53   80.77
  13  -6  -3  148.20   69.63
  15   5   0  -22.57   45.18
  15  -5   0   80.70   38.80
   7   1   6  486.52   87.49
   7  -1   6  391.16  316.86
  -6   5   6   40.02   55.68
   6  -5  -6  -39.12   42.58
   6  -3   6  566.42  101.73
   6   3   6  392.21  319.30
   9  -6  -5   12.99   44.90
   9   6  -5   35.27   36.46
  -9   6   5   18.53   33.00
  13   6   2 1673.42  249.65
  13  -6   2 1537.47  260.20
   9  -4   5  163.93   62.07
   9   4   5   88.51   43.80
   9  -4   5  271.14  103.13
   5  -4   6   50.69   64.66
   5   4   6   52.32   77.35
  -1  -6   6  122.81   54.00
  -1   6   6  160.46   70.10
   1  -6  -6  128.29   69.08
  12  -7   2    6.25   29.41
  12   7   2  130.13   82.20
   5  11   1  165.90   67.58
   5 -11   1   63.17   66.52
  -2  -6   6  -36.07   31.06
  -2   6   6  -20.19   38.52
   2  -6  -6    0.52   43.70
  10   9  -2  616.77  104.35
  10  -9  -2  377.37  304.05
  16   2   1 1735.35  297.54
  16  -2   1 1778.79  328.07
  16   2   1 1399.45  274.80
  16  -2   1 1303.44  231.44
  -2   0   7   26.29   39.82
  -1   0   7  -25.20   49.66
   4   9   4  708.68  116.46
   4  -9   4  550.79  113.21
  -4  -9  -4  815.34  125.13
   4  -9   4  579.09  116.69
   5  -7   5    6.97   16.32
  -5  -7  -5   45.61   53.96
   5  -7   5  -72.95   52.06
   5   7   5    0.03   44.50
  12  -7  -3   57.77   71.13
  12   7  -3   74.98   56.89
  12   3  -5 1583.27  288.94
  12   3  -5 1552.03  257.48
 -12   3   5 1427.42  236.05
 -12  -3   5 1641.21  284.10
  12  -3  -5 1716.51  304.22
   0  -6   6   55.27   59.06
   0  -6  -6  -28.81   35.46
   0   6   6  -71.11   43.04
   3  11   2   79.73   42.31
  -3 -11  -2   65.88   70.80
   3 -11   2   76.22   40.74
  -3  11  -2   57.02   58.46
 -10   0   6  425.55   72.64
  10   0  -6  395.76  321.90
  -4   8   5   24.67   44.84
   4  -8  -5   45.08   64.21
  -4  -8   5   75.87   32.68
  14  -6  -2  905.88  142.74
  14   6  -2 1030.17  170.51
  13  -7  -2 1005.82  155.53
  13   7  -2 1921.38  336.56
   4 -11  -2  -22.89   32.10
  -4  11   2   27.65   34.15
   4  11  -2   23.43   31.35
  14  -5  -3  356.55  130.33
  14   5  -3  410.17   83.11
 -14   5   3  307.38  115.96
   3  -6  -6  667.87  113.44
  -3   6   6  691.34  113.89
  -3  -6   6  813.98  151.09
  13  -7   1   -6.17   39.96
  -3   0   7   35.44   46.76
  -2   1   7 -106.30   46.63
   2  -1  -7 -111.95   42.58
  -2  -1   7  -28.39   50.59
   7  10   2  -18.26   47.37
   7 -10   2 -143.84   44.41
  15   3   2  -16.77   26.72
  15  -3   2  -66.54   41.19
  15   3   2   50.17   52.88
   6 -11   0   68.81   59.04
  -1   1   7  153.20   62.04
  -6  -9   4  344.77  127.91
   6   9  -4  440.07   76.65
  -6   9   4  417.82   85.28
   6  -9  -4  586.25  104.70
   0   0   7   43.91   68.08
   7  -6   5   11.93   25.13
   7   6   5  108.88   59.11
   7  -6   5   -7.13   26.66
   2  -8   5   97.30   42.55
   2   8   5  355.54  137.46
  -2  -8  -5  252.28  105.59
   2  -8   5  122.68   45.03
   8  -4  -6  195.34   74.09
  -8   4   6  122.90   48.70
  -8  -4   6  194.55   82.31
  14   3  -4  134.21   67.05
 -14   3   4   76.55   34.98
  14  -3  -4   70.96   37.70
  14   3  -4   75.50   37.11
   9  -3  -6  163.70   64.26
  -9   3   6   57.78   61.80
  -9  -3   6  167.44   72.47
   9   3  -6   80.53   48.22
  14  -6   1  216.17   79.17
  14   6   1  265.56  101.38
 -10  -1   6   93.74   41.41
 -10   1   6   13.79   23.27
  10   1  -6   -7.59   21.67
  -6  10   3   -9.85   26.86
   6  10  -3   15.06   38.67
   6 -10  -3   76.53   34.77
   8  10  -2   51.77   56.91
   8 -10  -2   -6.37   51.65
  -3  -1   7  238.92   98.19
  -3   1   7  346.70  132.69
   3  -1  -7  252.47   97.07
   7   2   6  340.19  123.81
   7  -2   6  214.30   90.07
  -1  -6  -6  595.83  100.62
   1   6   6  575.26  111.47
   1  -6   6  687.34  120.53
   0   1   7  122.32   75.89
   0  -1   7   -0.62   46.66
   7   8   4    6.32   21.85
   7  -8   4  138.89   59.44
  14  -5   2  163.11   69.79
  14   5   2   75.04   40.57
  10   6   4  482.88   88.16
  10  -6   4  452.27   85.98
   9 -10   0   85.16   40.43
   9  10   0  -36.12   43.76
  11  -5   4   70.14   32.99
  11   5   4  291.79  110.03
 -13   0   5   38.51   42.47
  13   0  -5  -76.68   27.45
   6  11  -1  272.58  105.21
   6 -11  -1  364.73  292.94
  11  -8   2 2040.09  402.09
  11   8   2 1701.89  251.43
  16   3  -2   91.80   49.00
  16  -3  -2  118.57   56.46
 -16   3   2   49.83   53.21
   4   5   6  582.60  108.01
   4  -5   6  466.76   90.67
   4   0  -7  118.89   60.61
  -4   0   7  -15.45   38.19
  -4  -6   6  -42.12   44.26
   9  -9  -3  932.34  171.82
   9   9  -3 1310.38  195.58
  10  -3   5  937.98  180.08
  10  -3   5  627.86  101.57
  10   3   5  648.63  132.34
  13   0   4   65.69   71.87
  13   0   4  -37.12   30.91
   1   0   7   23.30   33.77
  12  -8   1  556.62  103.18
  12   8   1  448.92   79.87
   9 -10  -1  322.06  128.73
   9  10  -1  259.21  100.38
  11   9   0   59.55   73.31
  11  -9   0   83.75   43.13
  12   6   3   89.65   65.22
  12  -6   3  138.00   61.94
  -5 -10  -3  756.58  115.31
   5  10   3  761.82  145.79
   5 -10   3  677.74  115.95
  14   3   3 1066.47  183.48
  14   3   3  830.88  160.98
  13   1  -5  432.20   67.61
 -13  -1   5  170.21   73.52
  13  -1  -5  287.53  105.80
 -13   1   5  318.20  121.43
  15  -5  -2  112.62   49.65
  15   5  -2  112.97   51.28
  11   9  -1  441.44   71.94
  11  -9  -1  354.98  142.83
  12  -8  -2  590.06  107.66
  12   8  -2 1024.03  195.70
  -9   8   4  154.53   58.60
   9   8  -4  200.24   76.77
   9  -8  -4  393.62  316.04
  -4  -1   7  -22.52   47.15
   4  -1  -7   98.54   39.34
  -4   1   7  101.22   46.60
   5   8  -5   69.51   60.43
   5  -8  -5   11.36   20.96
  -5   8   5    2.78   23.38
   2  -2  -7  309.48  117.67
  -2  -2   7  341.86  126.26
  -2   2   7  368.22  299.96
   1  -2  -7  530.98  107.02
  -1  -2   7  367.57  296.83
  -1   2   7  411.32   87.56
  13   1   4 1043.78  181.89
  13   1   4 1118.46  198.41
  13  -1   4 1043.00  188.05
  13  -1   4  973.61  195.11
  16   0  -3   55.24   61.35
  16   0  -3  -35.95   31.37
  11  -7   3  132.78   55.05
  11   7   3   52.50   80.33
   1  -1   7   78.02   41.75
   1   1   7  287.20  122.77
  -7  -5   6  443.42   88.17
   7  -5  -6  501.42   90.20
  -7   5   6  485.09   82.34
   4 -11   2  386.86  312.32
  -4 -11  -2  219.35   84.95
   4  11   2  259.09  100.66
  12   6  -4  -58.39   56.93
 -12   6   4   48.00   51.23
  12  -6  -4   96.26   37.62
  11  -8  -3  152.35   74.94
  11   8  -3   55.45   72.81
  10   2  -6   39.22   42.37
  10  -2  -6  212.05   86.28
 -10  -2   6  253.59   94.30
 -10   2   6  114.77   54.21
  16  -4  -1  408.52   69.71
  16   4  -1  478.83   85.12
   5 -11  -2  -16.24   30.29
   5  11  -2  111.87   45.48
  -5  11   2    7.90   30.36
  16   3   1   77.26   38.58
  16  -3   1   -1.99   36.42
  17   0  -1  -17.27   30.15
  17   0  -1   -8.24   26.23
   9  -7   4 2428.02  415.73
   9   7   4 2577.87  427.38
 -13   5   4  244.59   93.17
  13  -5  -4  366.72  296.06
   3   8   5  271.00  101.63
  -3  -8  -5  250.09   98.70
   3  -8   5  205.08   79.63
   3  -8   5  148.96   57.14
   3  -2  -7   60.91   70.84
  -3   2   7   54.46   64.05
  -3  -2   7  206.94   89.89
   8  -7  -5   32.94   42.70
   8   7  -5  -85.74   36.52
  -8   7   5   37.45   40.73
  -2  -6  -6   12.98   34.10
   2  -6   6   58.54   64.90
   2   6   6   13.17   45.51
   0   2   7  905.64  156.32
   0  -2   7  685.11  113.75
  15   5   1  614.32  107.44
  15  -5   1  667.17  112.52
  16   1  -3   66.38   61.67
  16  -1  -3   64.40   70.83
  16   1  -3   60.78   67.56
  16  -1  -3   60.42   67.79
   6 -11   1   89.48   36.08
  16  -4   0  539.36  102.92
  16   4   0  273.88  107.33
  13  -5   3  549.26   92.92
  13   5   3  393.45  322.64
  13   5   3  573.73  107.16
 -15   4   3  235.85   86.39
  15   4  -3  362.82  294.68
  -5  -9  -4  463.23   94.19
   5   9   4  395.20  319.08
   5  -9   4  648.75  109.05
  11   0   5   33.42   35.38
  -5   0   7  133.92   57.17
   5   0  -7  -15.52   38.76
  17   0   0 1644.01  331.34
  17   0   0 1964.89  275.22
  17  -1  -1  204.23   64.26
  17  -1  -1  184.20   60.15
  17   1  -1   99.91   74.01
  12  -4   4   28.97   26.18
  12   4   4  -22.06   42.70
  12  -4   4  103.42   76.10
   8  -9   3  430.18  131.37
   8   9   3  361.28  116.38
  11   5  -5    0.34   29.35
  11  -5  -5   97.52   82.67
 -11   5   5   18.39   22.56
  15   0  -4  145.40   45.73
  15   0  -4   92.39   67.79
 -15   0   4  166.81   57.97
  -5  -6   6  710.41  124.64
  -5   6   6  606.29  102.66
   5  -6  -6  703.22  137.30
   0  12   0   26.16   40.14
   0 -12   0   89.54   70.75
   6   4   6  114.51   41.03
   6  -4   6   15.15   33.06
   2   0   7   53.98   70.28
  11  -1   5  327.99  101.24
  11  -1   5  327.10   94.81
  11   1   5  442.08  138.28
  13  -2  -5  625.03  129.05
  13   2  -5  611.75  100.89
 -13  -2   5  478.94  138.83
 -13   2   5  400.82  117.77
   7  -9  -4  597.81  121.45
  -7   9   4  570.55   95.64
   7   9  -4  621.84  121.84
   6  -7   5  -50.96   49.61
   6  -7   5   23.05   21.62
   6   7   5  -21.70   53.20
   1  12   0   14.23   18.91
  -1 -12   0   39.54   35.08
   1 -12   0   24.07   25.27
  -1  12   0   36.73   33.61
  -5   1   7  390.08  116.12
  -5  -1   7  346.90  112.95
   5  -1  -7  352.72  105.64
  17  -1   0   50.18   43.25
  17   1   0  164.07   51.12
  17  -1   0  142.14   49.45
   8   0   6  564.80  102.17
  -4   2   7  385.50  114.42
   4  -2  -7  323.92   98.33
  -4  -2   7  446.05  140.98
  11   7  -4 2252.59 1611.74
  11  -7  -4 2267.74 1599.90
 -11   7   4 2062.26  343.62
 -15   1   4  500.59   83.61
  15   1  -4  448.31  150.38
  15   1  -4  607.45  104.08
  15  -1  -4  643.28   99.79
   7   3   6  503.19  100.01
   7  -3   6  351.68  103.19
  13  -2   4   65.97   58.96
  13   2   4   68.49   57.93
  13   2   4   37.33   34.69
   1  10  -4  -17.53   27.27
  -1 -10   4   95.05   70.32
  -1  10   4  -20.83   35.73
   1 -10  -4  -38.71   36.39
   1  -2   7  451.70  141.67
   1   2   7  397.74  129.01
  12   4  -5   -1.80   23.81
  12  -4  -5  -16.94   39.79
 -12   4   5   70.79   59.62
   2  -1   7   52.54   46.59
   9 -10   1 1313.07  209.09
   9  10   1 1211.94  217.85
   7 -10  -3  119.75   46.24
  -7  10   3   49.20   46.98
   7  10  -3   47.26   55.60
   7  11   0  124.49   44.10
   7 -11   0   -1.88   34.42
   0  10   4   -0.56   22.99
   0 -10   4   18.19   18.90
   0 -10   4  -25.10   31.06
   0 -10  -4  -31.07   34.86
 -10   6   5   71.58   62.17
  10  -6  -5   43.11   37.40
  10   6  -5   86.63   86.04
   2  10  -4  197.39   65.47
   2 -10  -4  183.34   63.19
  -2  10   4  158.06   57.12
   8   1   6  524.77   91.80
   8  -1   6  490.51  351.45
  16   0   2 1497.47  250.73
  16   0   2 1549.61  287.31
  15  -4   2  -62.30   44.04
  15   4   2   98.83   75.59
  10  -8   3   62.80   63.58
  10   8   3  126.67   77.06
  -2 -12   0  658.26  104.63
   2  12   0  649.37  154.48
  -2  12   0  683.72  154.80
  16   2  -3   30.33   26.87
  16  -2  -3   19.76   35.08
  16   2  -3   -8.87   33.25
 -16   2   3   43.74   38.64
   6  -8  -5    6.46   27.71
  -6   8   5  107.92   81.34
   6   8  -5  107.84   87.73
  14  -7  -1   20.87   34.53
   9   5   5  108.87   95.76
   9  -5   5  388.06  125.98
   9  -5   5  217.54   62.55
   5   5   6  -11.30   53.22
  14  -4  -4  -21.03   38.42
  14   4  -4   75.53   66.09
 -14   4   4   15.33   21.27
  -9  -4   6  259.47   81.85
  -9   4   6  215.64   71.84
   9  -4  -6  262.88   90.93
   1  11  -3 1047.30  181.61
  -1 -11   3  809.29  143.75
  -1  11   3  936.65  198.41
   1 -11  -3 1006.29  154.39
  14  -7   0  -56.04   40.24
  11   9   1  521.28   88.57
  11  -9   1  476.87  146.14
  10   9   2   53.42   72.21
  10  -9   2   57.46   55.20
   0  11   3  991.47  177.49
   0  11  -3  978.73  155.76
   0 -11   3 1025.19  178.21
   3   6   6  911.94  145.03
   3  -6   6  674.08  110.79
  -3  -6  -6  638.39  108.55
   7 -11  -1  454.81  135.10
  17   2  -1  155.66   46.01
  17  -2  -1  212.82   65.26
  17   2  -1  182.42   55.80
  17  -2  -1  334.00   98.04
  16  -1   2  210.04   63.49
  16   1   2  266.63   80.85
  16  -1   2  267.52   80.33
   8 -10   2  234.12   83.70
   8  10   2  350.97  117.29
   1  10   4  -52.58   44.07
   1 -10   4    0.98   16.51
  -1 -10  -4  -17.60   32.30
   1 -10   4   85.34   73.00
   2  -3  -7  413.92  124.10
  -2   3   7  389.22  123.08
  -2  -3   7  399.40  121.89
   0 -12   1  491.36  350.30
   0 -12  -1  488.09  348.22
   0  12   1  538.05   92.52
   0  12  -1  439.89  131.32
   1  -3  -7  895.29  184.11
  -1   3   7  838.71  147.91
  -1  -3   7  911.55  165.41
   5 -11   2   79.29   65.39
   5  11   2   67.29   58.45
  -1  12   1  336.62  108.41
   1  12  -1  435.29  127.04
  -1 -12   1  410.90  130.33
   1 -12  -1  591.58   96.61
  -3  10   4   42.74   48.07
   3 -10  -4  -34.16   28.12
  -3 -10   4    0.00   30.34
   3  10  -4   56.83   46.44
   2  11  -3  701.50  114.72
   2 -11  -3  685.25  110.09
  -2  11   3  852.34  135.96
  -2 -11   3  751.81  151.64
  15   6  -1   41.82   67.79
  15  -6  -1  -83.50   42.11
  11  -2   5   32.53   28.81
  11   2   5  116.29   52.67
  11  -2   5   93.74   68.81
   4   8   5  104.32   81.46
   4  -8   5   64.48   54.34
   4  -8   5  -26.93   41.21
  -4  -8  -5   30.17   30.69
  17   0  -2  987.72  158.99
  17   0  -2  788.29  126.55
  10   3  -6   61.57   51.31
 -10   3   6   83.18   68.72
 -10  -3   6   23.21   32.11
  10  -3  -6   20.43   24.68
  15   0   3   18.73   27.40
  15   0   3   32.56   34.83
  16  -4  -2  357.70  119.53
  16   4  -2  299.29   91.75
   6 -10   3  625.30  116.73
  -6 -10  -3  516.99   99.18
   6  10   3  704.04  120.22
 -11   0   6  837.66  168.42
  11   0  -6  997.50  154.77
   6   0  -7 -167.18   40.03
  -6   0   7  -83.79   41.35
  11   9  -2  457.79  131.92
  11  -9  -2  433.46  131.13
   6  11  -2  221.77   65.94
   6 -11  -2  226.21   67.17
  -1 -12  -1  515.87   83.40
  -1  12  -1  398.09  120.75
   1  12   1  412.38  134.94
   1 -12   1  304.08   93.67
  -5   2   7  125.13   47.68
  -5  -2   7    1.40   27.95
   5  -2  -7   48.28   44.20
   9  10  -2   99.13   83.97
   9 -10  -2   51.91   46.84
  17  -2   0  358.58  103.87
  17   2   0  255.76   76.94
  17   2   0  252.68   79.69
   8  -6   5  -42.35   52.62
   8  -6   5   -1.95   22.92
   8   6   5  103.52   96.40
  -1  11  -3  519.85   86.06
  -1 -11  -3  399.94  129.07
   1  11   3  428.00  135.70
  -3   3   7 1090.39  167.20
   3  -3  -7 1112.99  189.53
  -3  -3   7  942.80  156.38
  15  -2  -4   18.38   34.01
  15   2  -4  -91.13   32.56
  15   2  -4   77.49   63.06
 -15   2   4    1.81   28.85
  10  -4   5  200.83   70.88
  10  -4   5  109.13   78.86
  10   4   5  171.47   81.21
  15  -6   0 1627.98  282.97
  15   6   0 1852.00  275.84
  13   8  -1  965.68  185.09
  13  -8  -1  872.42  140.02
  -6  -6   6  133.29   51.35
   6  -6  -6  167.12   54.43
  -6   6   6   52.13   58.28
   0  -3  -7  135.32   67.78
   0   3   7  128.60   70.53
   0  -3   7   88.27   79.33
  13   8   0  857.67  186.64
  13  -8   0  896.89  142.28
   2  -2   7  196.04   60.78
   2   2   7  122.87   70.40
   3   0   7   75.09   69.06
  -8  -5   6    2.13   23.20
  -8   5   6   40.99   51.09
   8  -5  -6    2.16   33.03
  14   4   3  266.18   83.08
  14   4   3  109.00   81.55
  14  -4   3  404.77  125.76
   8   8   4  239.12   81.09
  17   1  -2  945.72  146.01
  17   1  -2  894.32  137.50
  17  -1  -2  902.74  145.39
  17  -1  -2  836.51  146.57
  -2 -12   1 1086.77  190.94
  -2  12   1 1305.83  234.04
   2  12  -1 1366.07  255.85
  15  -1   3   68.46   64.73
  15   1   3    7.19   19.41
  15  -1   3   67.01   59.60
  11  -1  -6  477.22  148.59
 -11  -1   6  479.78  142.32
  11   1  -6  529.59   79.61
  -6   1   7  109.01   81.81
  -6  -1   7   84.75   73.07
   6  -1  -7   24.69   29.82
   6   1  -7   16.12   42.54
   3 -12   0  159.34   58.27
   3  12   0  201.52   68.32
   8   2   6  333.23  105.80
   8  -2   6  381.74  113.05
   3 -11  -3  573.07  102.05
  -3 -11   3  473.17  146.19
  -3  11   3  632.17  103.97
   3  11  -3  783.82  122.74
   3   1   7   33.88   38.36
   3  -1   7   46.85   46.70
   2 -10   4   21.49   26.82
   2 -10   4   63.23   55.37
   2  10   4   44.87   45.68
  -2  12  -1  305.07   92.54
  -2 -12  -1  313.23   94.01
   2  12   1  372.19  125.02
 -13   3   5  586.60   94.22
  13   3  -5  846.15  155.44
  13   3  -5  602.45  102.60
  10  -9  -3  247.34   75.78
  10   9  -3  142.66   70.58
  14  -6  -3  279.84  102.03
  16  -4   1 1765.05  314.01
  16   4   1 2014.20  335.40
  -6  -9  -4  349.08  105.58
   6  -9   4  348.80  117.20
   6   9   4  358.33  112.91
   4  -3  -7  101.04   89.90
  -4   3   7  168.89   53.15
  10  10   0   22.11   27.58
  16  -2   2  582.90  112.71
  16   2   2  716.35  119.95
  16  -2   2  983.75  146.75
  16   2   2  844.83  135.96
   7  11   1  -56.71   45.94
   7 -11   1  -21.21   39.79
   4 -10  -4  -61.12   29.12
   4  10  -4  -35.38   32.71
  -4 -10   4   69.40   58.23
  -4  10   4   99.99   73.35
  13   7  -3    4.19   52.17
  13  -7  -3  -15.13   37.25
   2  11   3  996.37  160.37
  -2  11  -3  858.18  136.86
   2 -11   3  877.50  162.37
  -2 -11  -3  914.07  163.30
  13   3   4  178.98   56.70
  13  -3   4  110.18   90.99
  13   3   4  140.57   58.98
  13  -3   4   28.57   29.65
   1  -3   7  467.68  141.28
   1   3   7  618.79  123.53
  -9   7   5  102.70   76.19
   9  -7  -5   41.95   41.07
   9   7  -5   69.03   79.64
 -10   8   4   43.82   36.83
  10  -8  -4   34.16   41.88
  10   8  -4  137.95   49.74
  13  -7   2  481.51  142.13
  17   0   1   -4.18   29.80
  17   0   1   30.28   31.80
  -1  -7   6  778.10  123.64
  -1   7   6  761.26  144.26
   1  -7  -6  763.55  131.85
  10  10  -1   45.17   42.53
  -2  -7   6  500.14   84.48
   2  -7  -6  514.60   92.95
   3  12  -1  946.42  159.64
  -3  12   1  876.12  178.71
   3 -12  -1  860.61  166.48
  16   3  -3 1848.52  265.72
 -16   3   3 1355.91  237.48
  16  -3  -3 1495.53  249.12
  14  -6   2  814.51  136.57
  14   6   2  738.28  133.64
   8   9  -4  644.69  110.79
  -8   9   4  563.98  115.35
   0  -7   6  945.19  177.32
   0   7   6  791.59  134.08
   0  -7  -6  787.94  126.58
  17   1   1   67.49   63.93
  17  -1   1   95.06   72.13
  17  -1   1  121.81   44.49
  17   1   1   64.96   56.15
  -1   9   5  950.29  159.05
   1  -9  -5  982.73  169.38
  -1  -9   5  614.50  113.34
  -1  -9   5  717.63  132.99
  11  -6   4   81.73   72.36
  11   6   4   13.54   54.15
  17  -2  -2  136.91   52.51
  17  -2  -2  333.69  103.53
  17   2  -2  294.52   94.44
  15   2   3 1609.75  274.66
  15  -2   3 1090.11  201.45
  15  -2   3 1463.64  231.92
  15   2   3 1486.88  308.31
  -4  -6  -6  177.75   63.07
   4   6   6  426.78  146.70
   7   8  -5  -27.93   41.02
  -7   8   5  -10.31   30.44
  16   5  -1  839.23  135.37
  11   2  -6  204.46   58.73
 -11   2   6  288.73   83.36
 -11  -2   6  277.56   80.94
  -6  -2   7  445.19  138.72
  -6   2   7  523.89   94.42
   6  -2  -7  456.66  151.61
  14   7  -2 1044.97  175.50
  14  -7  -2  752.17  125.42
   3  -7  -6  353.64  115.15
  -3   7   6  262.69   80.11
  -3  -7   6  158.26   49.73
  17   3  -1  411.21  127.11
  17  -3  -1  539.71   98.43
   2  -9  -5 1732.10  314.39
  -2  -9   5 2155.12  383.63
  -2   9   5 1894.62  271.90
  -4  11   3 1125.94  185.75
   4  11  -3 1070.67  159.83
   4 -11  -3 1053.93  183.80
   0   9   5 1995.81  286.90
   0  -9  -5 2209.08 1573.77
   0  -9   5 1904.95  352.40
   4 -12   0  960.11  157.52
   4  12   0  874.16  139.22
   8 -10  -3  416.00  120.45
   8  10  -3  464.51  146.99
   3  12   1  321.64   96.85
   3 -12   1  278.54   81.10
   7   7   5  295.51  103.92
   7  -7   5  135.35   48.17
   3  -2   7  521.13  101.96
  16   5   0   -9.42   45.34
  16  -5   0   -2.59   45.25
  15  -5  -3 1186.48  248.63
  15   5  -3 1090.84  179.65
  12  -8   2 1070.99  205.85
  12   8   2 1191.66  189.48
  11  -3   5 2132.64  342.22
  11   3   5 1932.56  359.72
  11  -3   5 1352.15  278.00
  14   7   1   52.48   52.57
  14  -7   1  -64.47   42.10
   7   0  -7  -24.42   41.58
  15   6  -2  201.06   61.98
  15  -6  -2   97.03   83.42
   3 -10   4   -7.79   25.77
   3 -10   4  -18.18   33.77
  -3 -10  -4   40.26   36.48
  12   9   0  115.31   52.46
  12  -9   0  113.65   89.09
   5  -3  -7 1349.90  208.00
  -5   3   7 1156.09  209.53
  -5  -3   7 1361.30  299.55
  17  -3   0  144.55   44.85
  17   3   0  107.83   80.32
  14   0  -5  -54.51   27.28
 -14   0   5   15.66   22.72
  12  -5   4  301.69   90.50
  12   5   4  399.07  132.30
  12   9  -1  277.33   90.97
  12  -9  -1  397.00  128.91
 -15   3   4   78.32   68.39
  15   3  -4  138.97   64.24
  15   3  -4  177.50   56.34
  15  -3  -4  140.37   58.19
   8 -11   0  678.91  118.29
   8  11   0  752.43  126.18
   9   9   3   40.14   61.79
   9  -9   3  209.26   65.72
   5   8   5  150.37   61.47
   5  -8   5   91.55   73.37
   5  -8   5   24.73   21.41
   6 -11   2   29.65   43.74
   1  -7   6  563.38  105.70
  -1  -7  -6  902.08  141.05
   1   7   6  663.17  113.17
  10   7   4 1462.31  221.76
  10  -7   4 1370.42  238.10
   3  11   3  907.78  159.13
  -3 -11  -3  821.31  123.18
   3 -11   3  785.30  134.62
   3  -9  -5 1500.99  272.64
  -3  -9   5 1397.10  234.75
  -3   9   5 1459.65  216.48
  -3  -9   5 1671.01  294.58
  12   8  -3  -90.45   51.02
  12  -8  -3   25.60   54.92
   6  -5   6  364.68  113.10
   6   5   6  606.44  136.65
   7  -6  -6  565.35  107.60
  -7   6   6  389.74  123.36
  -7  -6   6  635.32  123.67
   2  -3   7  -16.02   38.79
   2   3   7  -62.90   53.38
   4   0   7   35.69   62.48
   5  10  -4   88.81   66.11
   5 -10  -4   13.52   23.68
  -5  10   4   23.32   36.46
  -5 -10   4   24.18   26.15
   7  -1  -7  262.14   99.94
  -7   1   7  167.59   59.31
  -7  -1   7  230.43   88.59
  13   8  -2  155.83   79.63
  13  -8  -2  191.28   84.44
   1  -9   5  388.42  126.91
  -1  -9  -5  517.84   90.90
   1  -9   5  369.64  129.29
   7 -11  -2  154.15   69.20
   7  11  -2   59.17   46.02
   8   3   6  276.92  106.43
  14  -1  -5  368.85  121.10
 -14  -1   5  357.63  133.29
 -14   1   5  431.94  453.06
  14   1  -5  448.46  468.65
  -4  -7   6  594.88   95.68
  -4   7   6  437.91  458.97
   4  -7  -6  460.81   88.97
  13   8   1  102.29   43.66
  13  -8   1   61.32   51.53
  13  -6  -4  -25.41   38.49
 -13   6   4   69.05   52.79
  13   6  -4  -12.20   53.00
  -2  -4   7  791.71  139.98
  -2   4   7  867.28  138.56
   2  -4  -7  905.90  175.40
   8 -11  -1  306.03  114.72
   8  11  -1  366.38  121.82
   4 -12  -1  888.91  168.25
   4  12  -1  901.22  157.26
  -1   4   7 1466.48  234.28
  -1  -4   7 1305.41  230.38
  15   6   1  584.54  103.46
  15  -6   1  665.82  105.84
  12  -5  -5  113.60   45.58
  12   5  -5  181.47   83.15
 -12   5   5  147.74   47.85
  12  -7   3  129.34   49.15
  12   7   3   59.25   73.83
   4   1   7   93.31   98.83
   4  -1   7  189.48   77.94
  13  -6   3  138.95   50.74
  17   2   1  151.23   53.16
  17  -2   1   46.74   37.57
  17   2   1  252.57   85.79
 -10  -4   6  -59.34   55.24
 -10   4   6   13.52   17.92
  10  -4  -6   22.33   47.55
   9   0   6 1233.86  183.16
   7 -10   3  -37.62   54.50
   7  10   3    9.37   47.05
  16   3   2   -4.06   41.23
  16   3   2   24.84   21.30
  16  -3   2   72.66   54.71
 -11   6   5   -0.19   29.70
  11  -6  -5   45.33   50.37
  11   6  -5   64.54   71.52
  -3   4   7   59.51   63.51
   3  -4  -7  206.04   84.12
  -3  -4   7   99.54   47.02
  10  10   1  971.97  177.83
  10 -10   1  908.70  181.40
  15   5   2  693.51  121.87
  15  -5   2  647.19  121.87
   0   4   7  942.83  162.80
   0  -4   7 1132.02  209.60
   0  -4  -7  817.40  159.96
  12  -7  -4 2449.78  344.06
  12   7  -4 2523.20 2640.33
 -12   7   4 2461.45  338.25
  14  -5  -4 1155.97  190.20
 -14   5   4 1057.46  220.56
  14   5  -4 1415.86  235.36
   9  -5  -6  519.38   89.82
  -9   5   6  483.93   84.66
  -9  -5   6  525.42  112.30
  14   0   4  103.06   38.85
  14   0   4   69.46   53.64
   0  12   2   90.44   77.14
   0 -12  -2   65.56   55.60
   0 -12   2   59.02   44.29
   0  12  -2  153.79   59.77
   4   9  -5 1402.45  236.22
  -4  -9   5 1347.64  217.54
  -4  -9   5 1236.12  221.65
   4  -9  -5 1672.13  244.19
  -4   9   5 1533.85  224.22
   1 -12  -2  167.94   59.05
  -1 -12   2  157.36   52.82
   1  12  -2   96.46  108.27
  -1  12   2  -18.22   32.02
   9   1   6  458.23   88.91
   9  -1   6  331.21  115.88
   5 -11  -3 1503.86  238.03
  -5  11   3 1092.71  205.89
   5  11  -3 1503.50  219.84
   9  10   2   74.92   75.21
   9 -10   2   67.58   51.34
   4 -12   1  605.13  105.24
   4  12   1  480.42   89.67
   2   7   6 1199.93  182.81
  -2  -7  -6 1156.53  205.70
  12   0   5   53.21   60.07
  12   0   5    0.60   37.22
  -2  -9  -5  434.48  455.09
   2   9   5  506.92   93.28
   2  -9   5  339.23  118.04
   2  -9   5  291.82   96.68
  14  -1   4  804.06  136.11
  14   1   4 1029.33  164.51
  14  -1   4  961.86  146.86
  14   1   4  793.57  137.42
  -1  12  -2  343.45  115.97
  -1 -12  -2  530.78   85.85
   1  12   2  323.34  114.00
   1 -12   2  424.37  141.24
  13   4  -5  127.18   49.50
  13   4  -5  360.59  132.40
 -13   4   5  223.58   79.06
  13  -4  -5  198.21   86.17
  17   3  -2   24.48   37.06
  17  -3  -2   30.47   25.62
  -7  -2   7   37.78   37.09
   7  -2  -7   48.39   55.53
  -7   2   7   71.80   56.00
  15  -3   3  -55.91   41.87
  15   3   3  -20.35   40.45
  15   3   3  -49.76   32.12
  16   5  -2  -77.32   51.92
   5  12   0  278.10  108.37
   5 -12   0  544.47  101.36
   2 -12  -2  341.50  117.64
   2  12  -2  274.61   94.90
  -2  12   2  359.98  123.14
  -2 -12   2  249.89   87.79
  11   3  -6  -34.75   29.86
  11  -3  -6  -23.12   42.51
 -11   3   6   50.05   41.63
 -11  -3   6   42.51   37.13
  -6   3   7  274.94   92.84
   6  -3  -7  308.35  108.57
  -6  -3   7  243.24   89.33
  10  10  -2  207.50   84.39
  14  -2  -5  148.46   49.46
 -14  -2   5  -28.37   49.49
 -14   2   5  114.14   40.67
  14   2  -5  253.36   90.58
  -4   4   7  415.64  143.77
   4  -4  -7  479.17   96.11
  -4  -4   7  304.37  102.57
  10  -5   5  204.49   67.63
  10   5   5  368.47  130.11
  10  -5   5  434.52  453.72
  -5   7   6 1527.38  267.69
  -5  -7   6 1419.59  243.29
  12  -1   5  315.53  109.41
  12   1   5  375.08  123.08
   4  10   4  145.21   55.29
   4 -10   4    0.10   34.16
  -4 -10  -4  -11.52   30.21
  13   4   4  -16.94   44.41
  13   4   4   39.86   31.74
  13  -4   4   63.78   47.97
   7  -9   4  612.78  107.10
   7   9   4  680.92  128.93
  11   8   3   76.91   82.26
  11  -8   3   95.33  108.40
   1  -4   7  439.09  459.21
  -1  -4  -7  535.77  100.10
   1   4   7  684.88  123.50
   3  -3   7  452.41   83.52
   3   3   7  391.86  140.41
   4  11   3 1469.14  221.18
   4 -11   3 1171.97  211.49
  -4 -11  -3  936.76  157.96
   4   2   7  374.29  125.52
   4  -2   7  269.40   97.63
   9  -6   5    5.63   24.88
   9   6   5   67.45   55.51
   9  -6   5  -65.93   53.65
   5  -6   6   -5.62   31.45
   5   6   6   16.03   61.77
  14  -5   3  340.53  111.92
  14   5   3  357.25  131.54
  11  -9   2   53.69   55.59
  11   9   2  155.58   84.48
   8  11   1   -2.48   46.25
   8 -11   1  -37.31   51.63
 -12   0   6  342.38  119.73
  12   0  -6  509.96   86.16
   9   8   4  448.78  468.97
   9  -8   4  506.40   85.85
  17   0  -3   26.99   22.49
   8   8  -5   59.97   60.36
   8  -8  -5  -10.60   19.28
  -8   8   5  -25.37   28.85
   6 -10  -4  -51.63   47.24
   6  10  -4  -28.74   35.28
  -6  10   4  -40.76   31.10
  16  -4  -3   40.53   32.43
 -16   4   3  142.78   62.57
  16   4  -3  108.81   60.38
  12  -9   1  337.17  126.70
  12   9   1  172.69   79.49
   5 -12  -1  431.35  450.72
   5  12  -1  473.55   83.26
   2  12   2   40.73   49.26
  -2 -12  -2   56.51   42.24
  -8   0   7  -31.67   41.88
  16   0  -4  163.76   63.16
  16   0  -4  161.98   54.33
 -16   0   4  240.79   83.14
  10   7  -5   62.46   63.48
 -10   7   5   48.90   45.43
  10  -7  -5  -15.62   52.70
   9   2   6  220.08   87.46
   9  -2   6  155.61   61.49
   3 -12  -2  736.94  128.86
   3  12  -2  775.76  123.01
  -3  12   2  685.49  112.68
  12   9  -2  447.15  469.78
  12  -9  -2  453.59   90.89
  12  -1  -6  185.34   70.43
 -12   1   6   59.44   48.76
 -12  -1   6   62.84   52.09
  12   1  -6   40.90   45.91
  -9   9   4  678.93  106.02
   9  -9  -4  775.61  138.47
   9   9  -4  771.31  121.37
  16  -5   1  539.57   90.73
  16   5   1  458.02   83.26
  17   4  -1 1139.75  197.31
  17  -4  -1 1124.71  169.99
  17   1  -3  200.59   66.79
  17   1  -3  289.99   96.89
  17  -1  -3  317.63  109.65
  17  -1  -3  201.60   76.44
  -5  -9   5  238.56   80.10
  -5   9   5  192.41   67.70
   5   9  -5  223.01   84.13
   5  -9  -5  242.49   85.35
  -8   6   6   70.27   62.97
   8  -6  -6  134.66   47.28
   5   0   7   10.25   27.58
  17   3   1   72.51   54.01
  17  -3   1   19.05   23.33
   8   1  -7   61.80   56.83
  -8  -1   7   13.68   24.69
  -8   1   7  177.44   61.95
   8  -1  -7   80.20   73.58
 -16   1   4  754.83  131.61
  16   1  -4  822.14  140.13
  16  -1  -4  664.64  141.22
  16   1  -4  891.38  135.04
  11  -9  -3  -73.41   48.48
  11   9  -3   69.13   66.47
  14  -2   4   96.23  105.37
  14  -2   4   57.37   49.59
  14   2   4  -15.31   36.92
  14   2   4   72.52   55.61
  11  -4   5   91.09   71.06
  11  -4   5   68.73   58.64
  11   4   5    0.50   33.10
   6  -8   5   53.03   52.25
   6   8   5  -11.16   46.29
   6  -8   5  -22.24   26.23
  -5  -4   7  371.22  124.69
   5  -4  -7  489.70   97.51
  -5   4   7  426.53  450.42
   3  -7   6  300.62  110.87
   3   7   6  401.64  132.82
  -3  -7  -6  409.50  138.20
  17  -4   0  552.61   92.79
  17   4   0  606.19  109.50
  11  -8  -4  153.12   73.82
  11   8  -4   -4.60   44.70
   3  -9   5  269.17   88.52
   3   9   5  380.86  136.67
   3  -9   5  404.88  131.70
   9 -10  -3   58.80   61.56
   9  10  -3  144.44   67.11
  15   4  -4  227.77   96.42
 -15   4   4  126.85   51.90
  15  -4  -4  252.61   86.13
  18   0  -1   19.08   30.12
  18   0  -1  -44.26   31.17
   7  11   2  124.64   71.15
   7 -11   2  238.52   91.13
  12  -2   5  112.41   42.95
  12  -2   5  322.04  114.05
  12   2   5  104.72   50.90
   2  -4   7  521.72  109.79
   2   4   7  499.91   95.90
  11 -10   0  344.23  128.15
  11  10   0  323.66  118.56
   5  -1   7  -41.47   36.79
   5   1   7    0.30   57.76
  15   7  -1   73.75   60.42
  15  -7  -1  -45.33   43.74
   5 -12   1  792.91  138.70
   5  12   1  720.17  124.99
   6 -11  -3 1760.19  322.27
   6  11  -3 2160.28  306.07
  11  10  -1  750.44  118.24
  11 -10  -1  954.50  156.17
   8  11  -2   63.11   50.54
   8 -11  -2   88.48   65.76
   8  -4   6  -15.72   32.82
   8   4   6   66.60   50.61
   8   7   5  116.70   57.53
   8  -7   5  139.70   58.99
  15   7   0  854.65  180.62
  15  -7   0  766.53  140.21
  18   1  -1  293.68   95.55
  18  -1  -1  370.38  127.84
  18  -1  -1  284.33   97.19
  18   1  -1  260.55   90.90
   7   5   6  116.49   57.41
   7  -5   6   34.95   43.38
   6  -7  -6  706.19  126.91
  -6  -7   6  597.22  118.29
  -6   7   6  677.69  128.56
  18   0   0 1193.43  186.32
  18   0   0 1336.01  193.81
  14  -8  -1  224.25   96.52
  14   8  -1  157.73   58.86
   3 -12   2   57.38   47.21
  -3 -12  -2   52.44   40.28
   3  12   2  116.66   63.50
   9  11   0  -12.30   47.42
   9 -11   0   75.61   80.51
  -7  -3   7  278.33   94.63
   7  -3  -7  268.74  100.19
  -7   3   7  162.39   65.00
  14  -8   0  657.71  122.39
  14   8   0 1001.58  174.25
   4  12  -2  190.37   63.99
   4 -12  -2   58.55   55.53
  -4  12   2  183.60   76.13
  12   2  -6  185.79   70.58
  12  -2  -6  254.80   85.35
 -12  -2   6  145.81   59.39
 -12   2   6  174.07   62.32
 -14   3   5  649.53  117.40
  14  -3  -5  750.07  126.79
  14   3  -5  722.45  114.42
  14   3  -5  695.39  133.75
  16   4   2  -22.65   38.21
  16  -4   2   87.47   62.70
  17  -2  -3   16.72   37.87
  17   2  -3   63.18   55.77
  17   2  -3   52.46   39.60
 -17   2   3   25.47   25.05
   6  12   0 1486.45  222.32
   6 -12   0 1022.19  193.87
  18   1   0   88.03   63.60
  18  -1   0  182.39   78.27
  18  -1   0   87.02   68.29
  18   1   0  155.90   55.91
   9 -11  -1   87.35   83.38
   9  11  -1  196.50   68.89
   4   3   7   44.14   37.85
   4  -3   7  -64.82   32.91
  -8  -2   7  731.38  118.56
  -8   2   7  696.01  134.28
   8  -2  -7  522.73   96.49
   8   2  -7  568.08   97.02
  16   2  -4  119.33   50.36
  16   2  -4  128.85   45.04
 -16   2   4  207.11   69.99
  16  -2  -4  318.08  113.76
  -5 -10  -4   -0.82   27.92
   5 -10   4   40.06   35.68
   5  10   4   32.06   27.87
   5 -11   3  575.75  105.99
  16  -6  -1   60.32   53.62
  16   6  -1   70.42   59.87
  14   7  -3   -0.75   53.87
  14  -7  -3   53.81   58.24
  17   0   2 2165.92  412.25
  17   0   2 1710.98  323.39
   8 -10   3  110.29   44.54
   8  10   3  123.95   70.02
  -2  -5   7  605.64  119.27
  -2   5   7  493.63   83.94
  -1   5   7 1308.71  202.99
  -1  -5   7 1240.90  210.90
   1  -5  -7 1125.90  190.38
  10   9   3   72.14   87.49
  10  -9   3   24.56   37.20
  -6  -9   5  439.65  462.59
  -6   9   5  584.66   99.31
   6  -9  -5  588.57  101.71
  16   6   0 1361.98  215.62
  16  -6   0  781.88  175.11
   5  -2   7  597.37  105.05
   5   2   7  474.76  101.67
  15  -6  -3  300.91  118.38
  15   6  -3  378.51  141.57
  17   4  -2  -56.28   36.46
  17  -4  -2   11.64   38.35
  10  -5  -6  293.09   97.94
 -10   5   6  410.57  133.56
 -10  -5   6  194.08   72.68
  15   4   3  947.17  149.42
  15   4   3  743.79  145.60
  15  -4   3 1161.66  203.16
   6 -12  -1  423.45  147.63
   6  12  -1  589.35  102.41
   9   3   6   -6.77   33.53
   9  -3   6   22.85   18.46
  16   0   3  -10.63   39.96
  16   0   3   29.59   45.19
 -11  -4   6   77.01   58.34
  11  -4  -6  -34.54   40.39
 -11   4   6   -4.25   33.83
  -6   4   7  543.63   89.00
  -6  -4   7  579.36  107.22
   6  -4  -7  438.31  461.41
   7 -10  -4  150.29   68.70
  -7  10   4   -1.54   30.38
  17   1   2  863.70  201.61
  17  -1   2 1011.05  156.21
  17   1   2  920.35  179.16
  17  -1   2  776.42  145.15
  12  -6   4  587.81  125.87
  12   6   4  390.76   89.32
  -3  -5   7  494.03   87.61
   3  -5  -7  604.62  108.92
  -3   5   7  546.09   93.36
  18   2  -1  210.98  108.19
  18  -2  -1  336.40   77.68
   0  -5  -7  159.52   69.70
   0  -5   7  132.30   50.43
   0   5   7   56.54   44.31
  14  -7   2  134.31   80.40
  14   7   2  144.89   77.06
   6   6   6 -156.30   60.54
   6  -6   6    7.01   33.32
   3   4   7  205.47  119.35
   3  -4   7  286.60  145.16
  18   0  -2 1467.60  297.16
  18   0  -2 1284.06  289.95
  14   3   4  -70.75   39.29
  14   3   4   -5.26   23.33
   4  -9   5  283.28  145.49
  -4  -9  -5  332.36   70.44
   4  -9   5  291.90  151.78
   4   9   5  440.49   91.34
  11   7   4 1229.45  254.74
  11  -7   4 1138.35  266.01
  -4  -7  -6  387.66   83.26
   4  -7   6  382.30   96.59
   4   7   6  438.55   90.91
   4  -7   6  411.18   89.63
  16   1   3   60.28   65.76
  16  -1   3   62.47   72.82
  16   1   3   91.78   50.34
  16  -1   3  -26.19   33.15
  13   8  -3  -20.69   52.62
  13  -8  -3   99.15   71.49
  12  -3   5  433.84   89.45
  12  -3   5  408.19   86.61
  12   3   5  383.89   78.40
  13  -9  -1  -14.97   62.81
  13   9  -1  111.04   67.17
  13   9   0   16.52   66.79
  13  -9   0   92.94   57.52
  18  -2   0   50.89   67.21
 -12   6   5   40.37   43.23
  12  -6  -5   15.91   43.30
  12   6  -5  195.89  116.23
   4 -12   2  -51.26   39.00
   4  12   2  161.57   97.74
   9   8  -5   88.11   50.96
   9  -8  -5  176.12   90.39
  -9   8   5  235.48  119.87
  -9   0   7  -36.45   45.47
   9   0  -7 -113.27   34.82
  13   8   2 1768.29 2079.83
  13  -8   2 1554.42  342.44
  10   0   6  -26.61   35.86
  -1  -8   6  228.60  120.74
   1  -8  -6  145.39   86.60
  18  -1  -2  459.64   99.92
  18  -1  -2  361.64   89.22
  18   1  -2  336.16   79.54
   8   9   4  784.18  167.14
   8  -9   4  664.84  139.63
 -13   5   5  234.41  123.86
  13   5  -5  200.44  126.39
  13  -5  -5  211.91  109.56
   2  -8  -6   48.91   74.97
  -2  -8   6   -2.75   36.74
  -2   8   6   -0.65   34.67
  11 -10   1  172.39   96.10
  11  10   1  389.73   91.49
  15  -7  -2  908.33  179.71
  10  10   2  127.29   85.32
  10 -10   2   91.73   50.37
   5 -12  -2  244.92  128.23
   5  12  -2  128.56   67.87
   4  -5  -7  642.07  138.05
  -4   5   7  622.90  139.49
  -4  -5   7  534.64  108.55
  15  -6   2  456.96   95.55
  15   6   2  526.95  118.79
  15   0  -5  -17.89   34.95
 -15   0   5   56.73   61.18
  13  -5   4  250.36  129.65
  13   5   4  420.02  105.44
   1  11  -4   46.34   56.72
  -1 -11   4  208.53  117.48
  -1  11   4   94.54   49.92
   1 -11  -4  124.04   65.43
  -1  -5  -7  251.18  139.00
   1  -5   7  246.65  124.82
   1   5   7  218.36  117.15
   7  -7  -6  649.56  150.75
  -7   7   6  647.91  130.47
  -7  -7   6  929.23  200.04
   6  12   1  801.67  173.22
   6 -12   1  669.62  140.73
   9  11   1  257.94  134.20
   9 -11   1  164.20  108.41
   0   8   6   80.18   66.70
   0  -8  -6    0.12   33.60
   0  -8   6  102.85   58.40
  -9  -1   7  -10.28   45.89
   9   1  -7  116.49   63.76
  -9   1   7  321.51  383.78
   9  -1  -7  146.58   91.50
   7  11  -3 1103.92  212.78
   7 -11  -3 1056.97  206.02
  10  -1   6  389.13   88.21
  10   1   6  486.65  108.99
  17   4   1  640.73  139.46
  17  -4   1  519.46  120.13
  14  -6  -4   -7.65   38.88
  14   6  -4   31.70   44.52
   6   0   7   -4.76   42.64
   9  -6  -6  544.67  125.03
  -9  -6   6  563.71  129.73
  -9   6   6  722.57  148.46
   0  11   4  217.38  109.45
   0  11  -4  252.10  126.49
   0 -11   4  364.09   73.12
   0 -11   4  190.44   97.82
  14  -8  -2   53.68   73.20
  14   8  -2   60.92   69.35
  17  -2   2  930.60  186.34
  17   2   2  646.02  140.45
  -3  -8   6  214.59  114.19
  -3   8   6  472.85  109.31
   3  -8  -6  333.98   77.46
  12   3  -6   -1.49   25.87
  12  -3  -6  143.73   81.12
 -12   3   6   96.67   51.87
 -12  -3   6   90.71   59.33
  11  10  -2   28.17   56.15
  11 -10  -2  203.37  117.91
  -2  11   4   -8.05   40.96
   2  11  -4   16.69   38.47
  -2 -11   4  -20.48   36.26
   2 -11  -4   98.96   54.09
  17  -3  -3  742.55  146.11
  17   3  -3  847.96  165.38
 -17   3   3  617.95  123.45
  13   7  -4  775.95  164.14
  13  -7  -4  683.10  141.19
 -15   1   5  -36.24   38.24
  15   1  -5  -11.31   27.06
  15  -1  -5  113.97   59.02
 -15  -1   5  199.61  105.00
  15   7   1  -44.29   50.10
  15  -7   1  298.09  152.32
  16   5  -3  349.58   89.93
   7  -8   5  377.71   81.45
   7   8   5  412.60   90.13
  10  -9  -4  670.09  137.15
  10   9  -4  735.04  143.87
  13  -7   3   61.23   71.92
  13   7   3   25.54   38.16
  -8  -3   7  343.40   96.13
  -8   3   7  484.21   99.39
   8  -3  -7  628.01  138.97
   6   1   7   20.00   29.71
   6  -1   7   15.78   40.61
  16  -3  -4   31.58   37.73
  16   3  -4  253.74  136.65
 -16   3   4  127.46   66.55
  14  -8   1  212.71  106.52
  14   8   1  194.42  101.19
  16  -6  -2  466.40  104.78
  16   6  -2  414.67   90.05
  16  -2   3  594.36  123.99
  16   2   3  353.94   79.16
  16   2   3  445.95   95.51
  17  -5  -1  526.82  112.71
  17   5  -1  380.88   92.03
   8 -11   2   47.76   59.16
   8  11   2  383.98  113.94
 -11   7   5   33.84   47.33
  11   7  -5  -67.52   53.14
  11  -7  -5   36.46   62.53
  10  -6   5   24.37   52.97
  -1 -11  -4   76.42   43.20
   1  11   4   30.28   49.94
   1 -11   4  -31.75   32.61
  18   0   1  -28.46   30.66
  18   0   1  -23.76   32.68
  -1  -8  -6  334.84   80.29
   1  -8   6  234.13  118.97
   1   8   6  128.29   78.37
  10  -8   4  404.37   88.75
  10   8   4  557.36  135.84
   3  11  -4   90.26   46.87
  -3 -11   4   42.10   48.83
   3 -11  -4  144.67   81.52
  -3  11   4  101.87   54.53
   5  -3   7  785.04  154.37
  18   2  -2  367.09   84.54
  18  -2  -2  257.40  135.65
  18  -2  -2  285.83  146.06
  14   6   3  -47.06   60.61
  14  -6   3   -9.35   51.94
  11   5   5  175.63  105.95
  11  -5   5  346.87   67.79
   7  12   0  503.77  110.24
   7 -12   0  546.40  144.42
   7  -4  -7  221.11  122.52
  -7  -4   7  219.71  115.61
   7   9  -5  -26.90   43.55
   7  -9  -5  -13.15   42.44
  -7   9   5  -12.79   18.95
   6  11   3  779.77  164.17
   6 -11   3  807.84  175.79
  10  10  -3  141.36   85.09
  -5   5   7   73.11   92.67
  -5  -5   7  218.44  112.03
   5  -5  -7  131.40   83.98
   9  11  -2  114.17   63.84
   9 -11  -2   28.12   41.87
  17   5   0  -79.25   45.02
  17  -5   0   88.89   48.38
 -13   0   6  490.82  116.92
  13   0  -6  504.47  103.57
   6  10   4  113.29   66.23
   6 -10   4  -28.23   56.70
  -6 -10  -4   -0.37   27.61
  14   4  -5  415.17   84.46
 -14   4   5  187.54   93.79
   4  -8  -6   63.10   73.60
  -4   8   6   67.87   72.66
  -4  -8   6   88.59   54.99
 -15   5   4  186.34   96.74
  15  -5  -4  325.15  387.27
  15   5  -4  215.29  115.66
  18  -3  -1  851.94  181.57
  18   3  -1 1015.13  215.31
  18  -1   1  -24.65   28.86
  18   1   1  -65.49   33.77
  18  -1   1  -16.01   38.31
  18   1   1  -25.69   37.00
   0  13   0  -14.80   31.10
   0 -13   0  -13.15   28.82
   2   5   7   95.61   54.78
  -2  -5  -7   92.59   72.51
   2  -5   7   37.42   44.91
  -9  -2   7  242.48  130.14
   9   2  -7  305.20  162.32
  -9   2   7  290.28  149.69
   9  -2  -7  513.59  125.46
  12   8   3  224.93  123.22
  12  -8   3  441.06  110.30
   4   4   7   27.88   36.23
   4  -4   7  -15.49   36.17
  10  -2   6  415.15   95.49
  10   2   6  536.42  116.62
  12  -9   2   78.30   48.45
  12   9   2  -18.85   68.86
   1  12  -3  162.09   83.62
  -1  12   3  197.54  116.79
   1 -12  -3  180.05  100.51
  -1 -12   3  172.55   88.08
  13   0   5  -52.83   40.92
   1 -13   0  -60.02   36.07
   1  13   0   -6.46   29.70
  -1 -13   0  -16.84   26.13
  -1  13   0   15.33   25.25
   0 -12  -3  285.99  144.71
   0 -12   3  329.87   83.79
   0  12  -3  290.64  149.32
   0  12   3  409.84   97.00
  16  -6   1  676.73  189.75
  16   6   1  250.25  129.36
   7  12  -1  595.75  125.17
   7 -12  -1  660.90  142.96
  13   1  -6  531.32  123.02
  13  -1  -6  535.73  112.88
 -13  -1   6  563.88  135.12
 -13   1   6  541.60  123.63
   8  -5   6  406.19   79.29
   8  -5   6  277.56  140.30
   5  -9   5   88.73   57.41
  -5  -9  -5  183.25   92.72
   5   9   5  282.61  142.16
  15   2  -5  923.74  203.08
  15   2  -5 1087.72  249.25
  15  -2  -5 1112.07  223.63
 -15   2   5  837.90  183.06
  18  -3   0  292.05  146.25
  18   3   0  150.27   77.96
   5 -12   2   85.72   46.40
   5  12   2  143.00   93.23
   8 -10  -4  -15.87   41.19
   8  10  -4   -7.88   41.79
  12   9  -3   46.94   68.88
  12  -9  -3   48.19   75.20
  -2 -11  -4   32.51   47.67
   2 -11   4   17.70   30.45
   2  11   4   54.55   60.38
   2 -11   4   -6.53   30.43
  -2 -12   3   49.02   54.16
   2  12  -3   21.18   29.39
  -2  12   3  -43.52   34.54
   2 -12  -3   20.34   41.30
  12  -8  -4   52.11   77.48
  12   8  -4  -81.82   53.50
   9   7   5  100.03   76.51
   9  -7   5   36.20   52.90
   5  -7   6  546.41  131.28
   5   7   6  900.08  190.81
   5  -7   6  538.73  108.13
   6  -2   7  183.81  100.42
   6   2   7  173.84   96.52
   1 -10  -5  -42.93   33.90
  -1 -10   5    0.30   16.48
  -1  10   5  -46.77   37.85
  -1 -10   5   66.29   71.22
  13   1   5  633.39  137.60
  13  -1   5  765.22  169.39
  13  -1   5  594.05  117.60
  13   1   5  605.13  126.84
   9  -4   6   57.97   68.08
   9  -4   6   64.56   69.01
   9   4   6   16.58   30.36
  13   9  -2  687.85  138.61
  13  -9  -2  881.26  201.01
   6  12  -2  242.47  122.43
   6 -12  -2  368.51   85.03
  15   0   4  -12.79   40.73
  15   0   4   55.11   73.48
  -2 -10   5  210.39  110.02
   2 -10  -5  226.45  115.06
  -2 -10   5  110.83   64.16
  -2  10   5  245.06  124.21
  10  11   0   -3.74   47.73
  10 -11   0  176.01  103.78
   1 -12   3  153.62   79.81
  -1 -12  -3  225.77  118.66
   1  12   3  222.90  134.47
  16  -5   2  144.23   77.81
  16   5   2  184.40   99.12
  13   9   1   89.56   64.77
  13  -9   1  -39.89   59.88
   4 -11  -4  -27.59   36.18
   4  11  -4   51.89   69.78
  -4  11   4   10.01   21.65
   2  -8   6  102.53   53.50
   2  -8   6   37.10   42.32
  -2  -8  -6   25.98   44.06
   2   8   6  147.33   90.38
   0  10   5   40.67   47.40
   0 -10  -5   22.90   37.46
   0 -10   5    1.13   27.73
   2  13   0  -66.12   35.62
   2 -13   0  -76.80   33.63
  14   4   4  -37.52   34.19
  14   4   4   83.56   47.38
  14  -4   4   88.47   58.74
  10  11  -1  385.89   82.38
  10 -11  -1  127.24   82.01
  17   3   2  162.21   88.36
  17  -3   2   -4.30   42.03
  12  10   0  134.26  101.15
  12 -10   0  299.28  161.99
  15  -1   4  607.19  132.49
  15  -1   4  791.87  163.27
  15   1   4  861.99  203.16
  12  10  -1  401.27   98.07
  12 -10  -1  421.03   93.64
   9 -10   3  145.65   77.84
   9  10   3   83.76   65.98
   5  -8  -6  192.32  114.89
  -5   8   6  140.05   79.68
  -5  -8   6   63.67   79.11
   7  -6   6   37.54   51.14
   7   6   6  142.22   91.99
   7  -6   6  124.38   72.64
   0 -13  -1   97.99   53.91
   0  13  -1  192.88   99.41
   0 -13   1  170.91   90.86
   0  13   1  183.24   95.40
  18  -2   1  488.58  119.57
  18   2   1  377.12   85.45
  12  -4   5  -41.66   27.57
  12   4   5   65.00   73.22
  12  -4   5   94.26   58.95
   3  12  -3  122.72   67.38
  -3  12   3  112.80   68.34
   3 -12  -3   17.52   24.77
  -3  10   5   57.66   76.16
   3 -10  -5  -40.42   35.77
  -3 -10   5   43.40   48.45
  -3 -10   5   18.86   31.76
  -1  13   1  153.01   91.06
   1 -13  -1   17.71   29.62
  -1 -13   1   54.27   58.23
   1  13  -1   77.05   45.33
   8  -7  -6  391.06   94.62
  -8  -7   6  602.78  144.06
  -8   7   6  494.79  118.62
  17  -5  -2  417.39  101.12
  17   5  -2  378.66   84.64
  15   5   3  207.36  116.67
  15  -5   3  411.35  175.12
  16   3   3   45.39   53.11
  16   3   3   56.97   62.42
  16  -3   3  214.07  111.25
 -11   5   6  543.74  118.35
  11  -5  -6  504.24  103.07
 -11  -5   6  703.68  161.53
  -6  -5   7  -31.50   47.45
   6  -5  -7  -67.68   56.37
  -6   5   7  -11.06   38.88
   1 -10   5   28.99   37.54
  -1 -10  -5    6.97   37.68
   1 -10   5   76.68   54.38
   1  10   5  -19.81   40.98
  -1  13  -1   48.11   53.02
   1 -13   1   85.88   49.76
  -1 -13  -1  -20.10   24.94
   1  13   1  229.02  114.96
  13   2  -6  418.14   93.88
 -13   2   6  335.84   74.70
  13  -2  -6  467.24  101.49
 -13  -2   6  668.35  227.95
   7 -12   1  917.83  207.98
   2 -12   3  276.50  146.49
   2  12   3  299.89  152.89
   8 -11  -3  562.45  128.95
  10   0  -7   98.23   55.04
 -10   0   7   12.37   33.75
   3  -5   7  332.78   67.61
   3   5   7  266.40  150.80
  18  -3  -2   46.83   53.50
  18   3  -2   69.60   81.72
   2 -13  -1   40.38   55.83
   2  13  -1  201.94  108.69
  -2  13   1   54.92   59.88
  13   2   5  166.61   89.00
  13  -2   5  253.44  129.17
  10   8  -5   40.07   48.53
 -10   8   5   75.00   89.09
  10  -8  -5   35.12   64.55
   3 -13   0   79.07   38.80
   3  13   0   86.28   63.50
   3  11   4  207.08  115.15
  -3 -11  -4  186.73   98.30
   3 -11   4  -48.19   41.17
 -12  -4   6 -101.69   46.91
  12  -4  -6  152.70  129.76
 -12   4   6   -8.93   42.91
  17  -4  -3  472.90  135.28
  17   4  -3  382.26  113.52
  17   0  -4   23.66   30.76
 -17   0   4   -6.14   29.15
   2  -6  -7    6.33   42.06
  -2  -6   7   -3.91   44.07
  -1   6   7  333.20   89.51
   1  -6  -7  491.39  110.83
  -1  -6   7  306.72  360.87
 -10  -1   7   56.05   68.89
  10  -1  -7  172.13   92.63
 -10   1   7   76.81   47.73
  10   1  -7   45.63   58.21
  11   9   3  166.54  102.37
  11  -9   3   78.13   46.57
   9  -3  -7  347.40  105.26
  -9   3   7  361.75  101.55
  -9  -3   7  198.29   91.85
  10  -3   6   27.08   48.83
  10  -3   6   28.88   39.65
  10   3   6  -52.09   57.90
   8  -4  -7  668.43  184.35
  -8  -4   7  489.28  136.22
  -8   4   7  555.82  157.74
  16  -4  -4  185.94   79.83
  16   4  -4   54.88   73.05
 -16   4   4  131.49   64.48
   7   0   7   10.06   41.71
   2  13   1   79.34   43.74
   2 -13   1   58.28   74.79
   5 -11  -4  116.20   60.34
  -5  11   4  132.56   74.33
 -10   6   6  487.54  145.98
  10  -6  -6  392.55  124.14
 -10  -6   6  253.30  108.92
   4 -10  -5   32.52   42.19
  -4  10   5   95.97   62.82
  -4 -10   5   93.40   44.06
   4  10  -5   55.84   66.69
  18   0  -3  -19.59   35.79
  18   0  -3  -63.83   29.88
  15  -2   4  173.33   77.08
  15   2   4  -28.79   38.06
  15  -2   4   75.17   40.34
   3  -8   6  172.18   74.05
   3   8   6  282.65  129.10
   3  -8   6  238.61  103.74
  -3  -8  -6  179.06   85.97
   9  -9   4  398.63  115.37
   9   9   4  461.92  127.29
  -3  -6   7   88.25   63.45
  -3   6   7  123.15   74.81
   3  -6  -7  118.24   69.65
   8   9  -5  759.76  204.51
  -8   9   5  422.28  116.15
  17   1  -4  237.10  107.87
  17   1  -4  257.15  114.40
  17  -1  -4  247.05  104.07
 -17   1   4  243.83  103.61
   4  12  -3  137.44   73.35
  -4  12   3   98.79   57.95
   4 -12  -3  -41.87   34.34
  15   3  -5  692.58  189.05
  15   3  -5  670.68  175.59
 -15   3   5  650.53  172.18
  15  -3  -5  807.22  214.87
   0   6   7  376.96  102.71
   0  -6  -7  608.42  170.41
   0  -6   7  582.93  161.11
   2 -10   5  130.37   62.72
   2 -10   5  154.06   71.34
   2  10   5  243.28  103.64
   5  -4   7  502.78  141.85
   5   4   7  552.20  158.47
  17  -5   1   45.41   56.37
  17   5   1   43.31   56.39
   6  -3   7  382.01  117.69
   6   3   7  470.37  143.21
   7   1   7  588.15  178.06
   7  -1   7  518.25  163.14
  15  -8  -1  302.61  137.48
  15   8  -1  435.00  137.68
  18   1  -3   96.29   48.50
  18   1  -3   27.89   39.71
  18  -1  -3  132.75   65.82
  18  -1  -3  220.31   94.24
  16   7  -1   20.53   38.12
  16  -7  -1   54.20   79.58
   7  11   3  401.48  152.27
   7 -11   3  577.14  157.44
   3  13  -1   -3.51   39.37
   8   8   5   92.33   57.92
  10 -11   1  441.18  128.99
  10  11   1  254.90  107.71
  15  -8   0  806.01  220.90
  18  -4  -1 1174.26  328.73
  18   4  -1 1486.21  386.57
   8 -12   0 1048.25  296.56
   6  12   2  -26.86   45.77
   6 -12   2   66.98   34.10
  -6   8   6   52.06   64.71
   6  -8  -6  102.31   53.50
  -6  -8   6  153.89   89.07
   7 -10   4  -45.23   62.92
   7  10   4   -8.45   49.06
  -3 -12  -3  193.06   83.14
   3 -12   3  319.04  425.17
   3  12   3  152.57   81.54
  16   7   0  380.33  120.93
  16  -7   0  299.43  132.89
  15  -7  -3   76.92   55.24
  13  -6  -5  -55.34   39.00
  13   6  -5   -5.00   49.05
 -13   6   5   -3.12   17.92
  11  10   2   68.50   40.78
   6   9   5  420.18  119.09
   6  -9   5  383.31  108.00
  -6  -9  -5  409.72  119.65
   7  12  -2   60.39   82.64
   7 -12  -2   57.39   73.30
   9  11   2   88.17   50.57
   9 -11   2   -0.58   31.40
   4  -6  -7   98.76   70.88
  -4  -6   7  220.05  107.25
  12  -7   4  704.53  194.32
  11  -9  -4  824.19  227.15
  11   9  -4  994.23  277.10
  18  -3   1  -46.99   44.10
  18   3   1  133.36   74.49
   8 -12  -1  290.46  124.90
   8  12  -1  188.34   92.33
   4 -13   0  124.43   54.56
   4  13   0  -69.16   51.67
  13   6   4  -18.38   55.61
  13  -6   4  -84.02   51.96
  11   0   6  -37.77   41.06
   3  13   1  157.62   76.87
   3 -13   1  -55.75   37.39
  18  -4   0  363.35  104.40
  18   4   0  374.80  103.01
  10   2  -7  609.91  173.15
 -10  -2   7  563.33  148.78
  10  -2  -7  924.07  245.89
  -1  -6  -7  207.68  101.09
   1   6   7  406.32  118.82
   1  -6   7  357.92  102.67
   6   7   6 1600.87  462.09
   6  -7   6 1613.86  457.27
   6  -7   6 1143.93  328.13
  12 -10   1  520.49  143.88
  12  10   1  442.87  122.82
   7  -5  -7   85.96   52.93
  -7   5   7   34.72   56.64
  14   8  -3  196.28   98.88
  14  -8  -3   85.36   58.08
  12  10  -2   -1.15   51.61
  12 -10  -2  -34.44   49.11
  10 -11  -2  225.04   97.06
  10  11  -2  477.70  131.04
   9 -10  -4   16.40   29.31
   9  10  -4   41.90   54.14
  13  -3  -6   80.37   35.71
 -13   3   6  -76.00   43.09
  13   3  -6  -12.67   30.78
 -13  -3   6  158.44   77.58
  14   5  -5  344.99  107.74
 -14   5   5  339.38   95.11
  14  -5  -5  386.27  125.57
  -5 -10   5   50.91   61.60
   5  10  -5  -31.98   39.27
  -5  10   5  -55.67   38.67
   5 -10  -5   54.69   73.99
 -17   2   4  192.30   86.49
  17  -2  -4   30.22   55.67
  17   2  -4   49.64   61.80
   4 -11   4  -17.69   40.69
  -4 -11  -4   95.66   42.24
   4  11   4   41.09   51.59
  19   0  -1   16.95   39.36
  19   0  -1    4.02   18.12
  11   1   6   62.77   92.94
  16  -6  -3  197.11   99.99
  16   6  -3  178.76   90.53
  12   7  -5  396.23  121.65
 -12   7   5  329.33  102.09
  12  -7  -5  339.05  102.16
  14   9  -1  342.67  111.83
  14  -9  -1  416.00  117.85
   4  -5   7  250.66  106.26
   4   5   7  471.75  143.68
   7   2   7  762.42  217.36
   7  -2   7  505.15  146.04
  11 -10  -3  203.76   94.17
  11  10  -3  193.94   95.65
  14   9   0  -15.38   57.41
  14  -9   0   83.50   48.50
  13  -3   5 1409.71  398.28
  13   3   5 1610.15  452.04
  13  -3   5 2296.30 3062.36
 -18   2   3   30.17   37.68
  18  -2  -3   57.98   69.05
  18   2  -3   51.86   63.60
  17  -4   2   28.18   38.19
  17   4   2  175.51   79.68
   5 -12  -3   53.39   72.75
   5  12  -3   32.63   58.26
  17  -6  -1  449.96  127.94
  17   6  -1  191.30   85.99
   3 -10   5  -20.22   31.05
   3 -10   5   50.18   61.56
  -3 -10  -5   32.25   46.44
  15   7   2  305.56  136.79
  15  -7   2  219.92   99.56
   4  13  -1   97.59   63.53
   4 -13  -1  107.00   50.71
   6 -11  -4  113.80   71.95
   6  11  -4   69.41   49.71
  -6  11   4   81.56   50.48
  19  -1  -1   21.64   43.67
  19  -1  -1  -73.31   29.65
  19   1  -1   43.55   63.41
  14  -8   2 1143.44  306.76
  14   7  -4 1335.22  376.47
  14  -7  -4 1461.95  416.64
   9  -7  -6  556.90  153.59
  -9   7   6  829.21  224.69
  11  -6   5  -19.62   56.28
  11   6   5  -65.53   54.86
  11   8   4  146.20   67.79
  11  -8   4   71.77   39.15
  19   0   0 2194.54 2921.37
  19   0   0 2151.95  652.91
   4  -8   6  299.64  124.45
  -4  -8  -6  232.60  106.85
   4   8   6   89.60   50.65
   4  -8   6  198.18   87.91
   9  -5   6   82.24   36.43
   9  -5   6  148.21   79.98
   9   5   6   79.39   48.21
  16   4   3  893.73  238.22
  16  -4   3  884.09  240.15
  -5   6   7   82.24   55.25
   5  -6  -7   86.46   63.16
  -5  -6   7  191.51   90.38
  15  -3   4  136.94   64.43
  15   3   4   40.44   64.56
  15   3   4  -31.54   36.03
  17  -6   0 1424.14  395.44
  17   6   0 1434.90  373.73
  15  -6  -4   82.45   61.84
  15   6  -4    7.66   30.31
  -2   0   8 1020.11  278.77
  -2  -6  -7  136.88   65.07
   2  -6   7   -4.01   45.35
   2   6   7  123.21   74.16
   4 -12   3  233.05  104.62
   4  12   3  255.18  110.15
  16   0  -5  -15.04   38.37
 -16   0   5   22.80   36.16
  -1   0   8  348.06   99.54
  18   4  -2  209.37   97.75
  18  -4  -2  266.36  113.20
  14  -5   4  220.99   96.90
  14   5   4  275.12  134.78
   0  13  -2  485.57  131.53
   0  13   2  407.88  118.92
   0 -13   2  391.42  119.03
   0 -13  -2  419.19  118.01
  19   1   0  347.05   97.10
  19  -1   0  503.45  138.33
  18   0   2 1423.98  396.80
  18   0   2 1516.98  420.56
  16  -7  -2  940.35  252.47
  16   7  -2 1328.55  372.40
  -1 -13   2  -38.24   30.50
   1 -13  -2   15.98   29.17
   1  13  -2   93.60   51.00
  -1  13   2   30.73   39.65
   8  12   1  747.93  210.75
   8 -12   1  777.09  223.85
  15   8  -2   64.71   38.16
  15  -8  -2   73.38   43.50
  17   0   3  -70.30   48.65
  17   0   3  -42.88   40.43
  -3   0   8   74.45   41.90
   8  -6   6   99.03   53.37
   8  -6   6    0.02   29.07
   8   6   6  -74.16   55.23
   4 -13   1  -31.51   44.56
   4  13   1   39.63   52.37
 -14   0   6  369.45  110.05
  14   0  -6  333.35  102.78
   9 -11  -3  797.04  222.07
   9  11  -3  955.73  252.77
  10  -7   5  118.69   66.73
  10   7   5   91.97   51.06
  12  -5   5  599.31  165.48
  12   5   5  634.11  187.56
  -2   1   8  792.78  222.38
  11   2   6  -25.64   39.00
  11  -2   6   96.43   55.08
  11  -2   6   16.44   25.13
   7  -8  -6  102.26   59.62
  -7  -8   6  -55.11   55.64
  -7   8   6   26.41   55.78
  11 -11   0   67.82   60.15
  11  11   0    3.15   50.96
   9  -4  -7   24.30   55.17
  -9  -4   7  157.25   94.11
  -9   4   7  147.76   67.05
  10  -4   6   67.21   61.74
  10  -4   6   38.08   55.28
  10   4   6    4.03   29.36
 -16   1   5   60.73   83.35
  16   1  -5  -23.81   32.93
 -16  -1   5  -45.67   42.03
  16  -1  -5 -104.28   44.69
  -1  -1   8  -10.40   31.03
  -1   1   8  279.89  139.92
  -1 -13  -2  374.28  103.60
   1  13   2  332.63   93.52
   1 -13   2  397.67  125.16
  14   7   3  -12.34   51.10
  14  -7   3  -44.24   52.54
  18  -1   2  288.94  125.64
  18   1   2  357.20  114.50
  18   1   2  379.27  133.61
   5  13   0   85.25   44.18
   5 -13   0    1.15   39.00
   2  13  -2   54.45   74.30
  -2  13   2   37.86   58.53
   2 -13  -2  206.82   97.16
  11 -11  -1  441.49  143.79
  11  11  -1  392.72  116.85
  17  -1   3  -36.27   34.13
  17   1   3  -60.01   43.84
  17   1   3   42.53   63.17
  17  -1   3  -66.35   55.37
  -3   1   8   56.37   74.74
  -3  -1   8   60.77   84.26
  16  -6   2  755.89  202.18
  16   6   2  722.42  195.57
  14   1  -6  116.19   64.70
  14  -1  -6   53.24   76.77
 -14   1   6  226.49   96.38
 -14  -1   6  231.26  102.51
  13   8  -4  -37.96   62.05
  13  -8  -4  115.81   73.07
  13   9  -3  367.14  115.24
  13  -9  -3  227.54  116.38
 -11   0   7   34.66   52.97
  11   0  -7  -54.68   40.99
  10  10   3   72.73   63.98
  10 -10   3  148.29   70.32
 -15   4   5  305.24  130.42
  15  -4  -5  492.54  136.70
  15   4  -5  559.19  154.74
  19   2  -1   72.30   44.12
  19  -2  -1    0.71   40.69
  15  -8   1  -35.74   47.20
  10  -3  -7  -42.50   46.60
 -10  -3   7  -16.48   47.07
 -10   3   7  122.21   56.83
   6  10  -5  165.73   74.62
  -6  10   5   58.53   80.11
   6 -10  -5   34.64   47.97
   9  -9  -5   86.13   64.81
  -9   9   5  106.24   65.73
   9   9  -5   39.46   53.46
  13  -9   2  -27.33   58.95
  13   9   2 -105.19   59.30
  13   8   3  472.38  134.39
  13  -8   3  526.81  149.93
  19   0  -2  743.71  206.46
  19   0  -2  512.00  147.37
   1  -9  -6  196.73   84.61
  -1   9   6  141.35   76.05
  -4   0   8  242.94  110.95
   2  -9  -6  214.63  109.51
  -2  -9   6  248.98  106.71
  -2   9   6  133.60   72.54
  -2  -9   6  121.04   58.77
   0   1   8  268.38  134.63
   0  -1   8  570.53  160.81
 -12   5   6   21.64   34.71
 -12  -5   6    2.49   33.73
  12  -5  -6   39.45   49.81
  16   7   1  146.62   75.69
  16  -7   1  171.64   82.76
  17  -5  -3  494.88  134.16
  17   5  -3  454.74  144.83
  11  -8  -5  351.88  113.28
 -11   8   5  359.73  104.58
  11   8  -5  224.14   95.09
 -17   3   4  101.29   44.88
  17  -3  -4   -0.96   33.56
  17   3  -4  143.70   77.92
   7 -12   2  636.74  179.06
 -11  -1   7   62.08   86.47
  11  -1  -7   93.09   59.27
  11   1  -7  122.71   58.06
   0  -9   6  137.03   59.53
   0   9   6  156.47   72.52
   0  -9   6  157.49   70.18
   5 -13  -1  -79.06   41.67
   5  13  -1   13.97   30.13
  19  -1  -2  325.52   94.01
  19   1  -2  359.76  102.97
  19  -1  -2  242.75  107.11
   2 -13   2  789.38  218.66
   2  13   2  675.75  185.48
  -8   5   7   18.15   47.52
   8  -5  -7   98.80   64.68
  -8  -5   7   50.50   67.36
  16   5  -4  492.11  141.23
   7  -3   7  906.14  247.04
   7   3   7  971.11  264.20
   5  11   4  423.30  128.28
   5 -11   4  349.21   99.05
  -5 -11  -4  190.85   85.97
   8   0   7   79.42   56.51
  -4  -1   8   63.87   36.69
   4  -1  -8   40.44   66.49
  -4   1   8   68.21   36.91
  -4 -10  -5   20.00   44.52
   4  10   5  146.87   91.35
   4 -10   5   22.20   51.56
  17   6  -2  -48.26   53.34
  17  -6  -2  151.89   69.12
  19   2   0  421.07  128.62
  19  -2   0  470.26  146.64
  15  -6   3  -14.81   48.34
  15   6   3   81.57   51.98
   6 -12  -3  180.95   81.58
   6  12  -3  174.58   86.06
  18   3  -3  143.04   65.43
  18  -3  -3  125.74   62.21
 -11  -6   6  110.62   54.36
  11  -6  -6   45.12   59.99
 -11   6   6   -8.49   38.90
  -6   6   7   16.88   46.09
  -6  -6   7  -19.18   49.49
   6  -6  -7    8.43   54.86
  14   9  -2  649.84  187.50
  14  -9  -2  738.54  208.71
   3  13  -2 -124.82   40.67
  -3   9   6   -7.72   38.99
   3  -9  -6   20.30   57.37
  -3  -9   6   53.88   66.51
  -3  -9   6  145.65   63.85
   8  12  -2  334.35   98.45
   8 -12  -2  372.86  117.34
   8  11   3  107.39   84.27
   8 -11   3   80.70   45.28
   1   0   8  447.25  139.20
  18  -4   1  821.61  203.44
  18   4   1  935.35  193.75
  13 -10  -1 1394.32  303.02
  13  10  -1 1548.95 2330.12
  -2   2   8    4.62   63.18
  -2  -2   8   91.93   49.16
  14   0   5   29.02   46.03
  14   0   5  -37.38   44.47
  13  10   0   55.13   85.39
  13 -10   0   13.32   59.98
   7  -9   5  688.24  148.48
   7   9   5  611.74  152.64
   3   6   7   -3.96   50.02
  16  -2  -5  -30.42   23.82
  16   2  -5   -0.16   31.51
  16   2  -5   55.44   75.43
 -16   2   5   17.30   55.35
 -16  -2   5   -9.65   42.61
  -1  -2   8   30.24   44.15
  -1   2   8  157.89   94.51
   5  -5   7  204.67  123.20
   5   5   7  238.21  359.91
   9 -12   0  683.25  148.85
   9  12   0  572.34  126.91
   8  -1   7  148.04   84.91
   8   1   7  225.99  342.23
   8  10   4  205.83  118.98
   8 -10   4  345.67   79.00
  14   9   1  102.12   64.22
  14  -9   1  -47.04   56.22
  18   2   2  543.39  115.40
  18  -2   2  364.30   76.70
   7 -11  -4   44.07   65.81
   7  11  -4   77.32   46.63
  17  -2   3  890.37  186.85
  17   2   3  632.26  139.64
  17   2   3  704.61  147.71
   3  -2  -8  118.27   89.72
  -3   2   8  111.18   66.12
 -13  -4   6  -22.87   49.26
  13  -4  -6   -5.76   36.72
 -13   4   6   61.43   41.30
  14  -2  -6  587.85  147.01
  14   2  -6  395.10   98.14
 -14  -2   6  468.24  107.89
 -14   2   6  406.85   84.56
   1  -1   8   50.35   74.03
  18   5  -1  396.34   80.11
  18  -5  -1  570.00  121.77
   7   7   6  417.95  101.17
   7  -7   6  356.57   80.48
   1  -9   6  102.20   62.46
   1  -9   6   60.54   36.77
  -1  -9  -6  162.14  101.55
  14  -1   5   -6.38   28.57
  14  -1   5  -44.20   45.02
  14   1   5   98.93   58.15
  14   1   5  -17.98   44.53
  -5   0   8  688.52  144.16
  10   9   4  336.85   98.52
   9 -12  -1  206.64  121.04
   9  12  -1  145.13   99.31
   9   8   5   88.55   84.72
   9  -8   5   99.05   70.95
   5  -8   6  299.10   62.88
   5  -8   6  190.92  110.57
   5   8   6  343.95   83.49
   5  12   3  135.76   80.31
   5 -12   3  146.43   85.53
   5 -13   1   37.19   53.77
   5  13   1   56.66   87.49
  13   4   5  191.84  112.23
  13  -4   5  236.45  356.55
   0  -2   8  260.84   66.32
   0   2   8  140.58   99.66
   4  -9  -6  159.40   95.03
  -4  -9   6   82.47   51.41
  -4   9   6   94.91   71.56
  -4  -9   6  266.34   70.01
  11   2  -7  333.85   84.42
 -11   2   7  278.05   62.19
  11   3   6  110.89   73.95
  11  -3   6   38.05   63.39
  11  -3   6  -23.53   48.64
   5  -1  -8  107.06   63.26
  -5   1   8   34.31   52.93
  -5  -1   8  127.48   86.59
  18   5   0  125.32   74.33
  18  -5   0    6.60   20.46
  10  10  -4 -114.67   44.93
  12   9   3  570.61  119.59
  12  -9   3  519.31  112.84
   3  13   2  524.71  130.59
   3 -13   2  374.10   81.62
  19  -2  -2  153.85   89.62
  17  -6   1   44.22   63.87
  17   6   1  121.47   75.21
   4  -2  -8  254.83   62.61
  -4  -2   8  183.63  109.95
  -4   2   8  104.90   74.14
  11  11   1  262.86   63.12
  11 -11   1  147.23   86.41
  19   0   1  -33.64   32.31
  19   0   1  -13.88   33.19
  10  11   2  -64.17   51.18
  10 -11   2  -85.44   47.26
   4 -13  -2  332.36   81.79
   4  13  -2  337.90   93.19
  15  -4   4 -125.68   55.76
  15   4   4   44.64   62.02
  15   4   4   65.28   61.91
  -2   7   7  -14.30   48.88
   2  -7  -7   41.31   62.76
  -2  -7   7  145.61   89.62
  16   0   4   37.16   65.48
  16   0   4   54.68   78.13
   6  13   0  -27.74   41.96
   6 -13   0   43.40   62.83
  -1   7   7   71.34   46.94
  -1  -7   7  -40.83   46.54
   1  -7  -7   92.68   79.85
  19   3  -1  158.37  102.28
  19  -3  -1  105.99   64.22
   2   0   8 1931.72 2901.43
  -8  -8   6  274.91   81.74
  -8   8   6  143.14   81.68
   8  -8  -6  176.16  113.26
  12  -9  -4  162.60  110.52
   8  -2   7   77.24   51.29
   8   2   7   38.93   67.29
 -10  -7   6  799.09  170.41
  10   7  -6  655.63  133.25
  10  -7  -6  719.15  172.52
 -10   7   6  737.60  153.29
   7 -10  -5  202.61  124.86
   7  10  -5   90.38   75.74
  -7  10   5  194.76  114.75
  19  -1   1   34.55   52.57
  19   1   1   66.11   41.15
  19   1   1    1.58   25.50
  17   5   2  358.87   86.51
  11  11  -2   37.91   58.46
  11 -11  -2  169.36  106.51
   3  -7  -7   18.62   50.89
  -3  -7   7  156.53   97.09
  -3   7   7   46.73   65.88
   2   9   6   53.90   91.36
   2  -9   6   86.14   54.97
  -2  -9  -6  129.80   79.25
   2  -9   6   45.43   63.96
   1  -2   8  239.76  365.69
   1   2   8  323.30   73.80
  16   1   4  631.45  133.85
  16  -1   4  662.19  143.51
  16  -1   4  937.37  184.37
  16   1   4  711.36  147.83
  14   2   5  -32.70   46.93
  14  -2   5  -21.92   31.64
  14   2   5  -98.42   51.08
  14  -2   5   49.61   72.52
   0   7   7  103.49   78.59
   0  -7  -7   55.27   81.66
   0  -7   7  -45.75   48.21
   2   1   8  230.38  349.75
   2  -1   8  466.27  127.50
  12  10   2   50.25   74.36
  12 -10   2   80.59   56.44
  -7  -6   7   17.91   32.73
   7  -6  -7  -29.85   60.18
  -7   6   7   -8.43   40.21
  19   3   0  153.53   87.61
  19  -3   0   73.34   64.24
   6  13  -1   43.14   63.58
   6 -13  -1   16.27   35.00
  16  -5   3  218.37  124.10
  16   5   3  480.02  129.03
  14  -6  -5  147.72   85.69
  14   6  -5   74.30   51.78
 -14   6   5  150.66   88.63
  -6   0   8  562.10  119.92
   6   0  -8  494.06  114.74
  -5   9   6  160.91  105.04
  -5  -9   6  304.97   69.16
  -5  -9   6  392.28   85.51
   5  -9  -6  362.40   75.26
   5  10   5  241.68  366.48
   5 -10   5  469.73   99.97
  -5 -10  -5  308.19   70.15
  -2   3   8   -1.04   48.12
  -2  -3   8   45.52   68.88
   2  -3  -8  106.19   83.51
   1  12  -4   -1.04   36.75
  -1 -12   4   42.41   60.01
  -1  12   4   -3.93   48.66
  -5   2   8   96.81   59.40
   5  -2  -8   13.04   30.56
  -5  -2   8  -50.10   51.14
 -10  -4   7 1269.44  260.03
  10  -4  -7 1114.67  227.35
 -10   4   7  946.09  207.73
  12  10  -3  114.16   83.17
  12 -10  -3   -3.85   48.61
   9  12   1 1225.00  282.01
   9 -12   1  844.04  229.22
   4  -6   7   28.81   42.80
   4   6   7  129.21   94.97
   7 -12  -3  297.71   81.97
   7  12  -3  208.67  126.41
  16  -3  -5  676.18  134.43
 -16   3   5  645.46  139.65
  16   3  -5  626.21  137.98
  -1   3   8  146.61  102.49
  -1  -3   8  133.67   84.46
  18  -5  -2  486.58  104.47
  18   5  -2  201.97  125.58
  13   7  -5   19.54   66.64
  13  -7  -5   40.63   59.43
   0 -12  -4   85.51   56.63
   0  12   4  101.43   60.71
   0  12  -4   34.11   46.60
   0 -12   4   75.65   53.78
   0 -12   4   80.39   53.53
  18  -3   2  -36.59   46.45
  18   3   2   43.11   64.22
  13 -10  -2  -16.34   57.57
  13  10  -2   -6.27   22.35
  10 -11  -3  243.15  369.54
  10  11  -3  361.09   92.79
  17  -3   3  101.21   65.54
  17   3   3  165.83  104.64
   2  12  -4   70.52   59.39
   2 -12  -4   54.18   87.43
  -2 -12   4   33.70   46.18
  -2  12   4   44.75   64.57
   3  -3  -8   97.81   60.89
  -3   3   8   87.04   72.01
  -3  -3   8  -11.61   48.93
   6 -11   4   47.22   69.06
   6  11   4   81.20   48.79
  -4  -7   7  127.09   77.84
  -4   7   7  223.70  339.95
   4  -7  -7   31.40   63.00
  -6   1   8   36.16   54.13
   6  -1  -8  -35.34   45.26
  -6  -1   8   78.03   55.67
  14   3  -6  -34.23   29.47
 -14  -3   6   -2.24   51.57
  14  -3  -6  -28.31   40.58
 -14   3   6   33.78   52.51
  13 -10   1  161.90  108.20
  13  10   1   -7.95   62.07
  17  -4  -4  131.38   75.92
  17   4  -4  136.94   84.81
  13   7   4  230.27  353.18
  13  -7   4  296.51   70.57
  -1  -7  -7   42.65   64.48
   1   7   7  188.79  117.94
   1  -7   7  192.84  110.40
   4  13   2  351.26   83.35
   9  -5  -7   54.75   88.69
  -9   5   7   27.18   41.69
  -9  -5   7  -27.00   51.88
  10   5   6  395.84  114.99
  10  -5   6  368.28   74.06
  18   0  -4   48.41   74.78
 -18   0   4  -36.87   46.46
  18   0  -4  -77.18   33.65
   7   4   7  187.75  123.54
   7  -4   7  199.66  125.34
  10   9  -5  388.80   94.16
  10  -9  -5  427.59  102.00
   9  -6   6  -22.72   64.68
   9   6   6  -12.46   64.44
  18  -4  -3  -58.52   40.12
  18   4  -3 -107.36   46.12
  19   2   1   52.27   81.30
  19  -2   1   35.11   52.07
   0   3   8  109.31   65.64
   0  -3   8   42.25   59.36
   5 -13  -2   17.99   48.44
   5  13  -2   38.11   53.67
   8  12   2  412.30   93.40
   8 -12   2  456.48  106.67
  12  -1   6  285.75   73.45
   1 -12   4  107.83   64.54
   1  12   4  -53.20   54.23
  -1 -12  -4  -80.27   37.27
 -11   3   7  294.67   67.97
 -11  -3   7  379.77   80.02
  11  -3  -7  261.99   93.89
  16  -2   4  -54.91   48.92
  16   2   4   27.75   42.78
 -15   5   5  359.44   80.85
  15   5  -5  373.41   95.08
  15  -5  -5  622.29  136.16
  16   7  -3  -18.57   52.67
  16  -7  -3   92.52   74.34
   8  11  -4   88.11   56.36
   8 -11  -4   66.37   48.31
   6  13   1  115.20   72.50
   6 -13   1   75.51   48.53
   2  -2   8  657.98  147.75
   2   2   8  562.23  122.92
  -3  12   4    9.66   26.04
   3  12  -4   72.08   44.49
   3 -12  -4   73.97   50.51
  16   8   0  360.11   99.98
  16  -8   0  262.22   83.52
  19   3  -2  -52.80   49.00
  19  -3  -2   52.31   84.07
   6  -5   7  121.47   79.35
   6   5   7  127.77   76.98
  15   8  -3   89.17   73.19
  15  -8  -3  -98.99   44.78
  18   1  -4 1060.77  222.66
  18  -1  -4 1111.96  219.81
 -18   1   4 1194.43  274.41
  18   1  -4 1460.31  278.60
  -1  11   5  987.82  229.78
  -1 -11   5  746.49  173.62
   1 -11  -5  647.15  159.89
  -1 -11   5  792.51  176.79
  14   6   4  422.68  110.22
  14  -6   4  542.17  116.52
  -4  -3   8  -45.38   58.52
   4  -3  -8  133.41   80.90
  -4   3   8    5.84   50.21
   3   0   8  705.81  144.63
   6 -12   3  311.26   71.75
   6  12   3  150.39  101.68
   9 -12  -2  481.85  115.91
   3   9   6   -1.07   55.47
   3  -9   6  -38.08   33.43
   3  -9   6   23.84   45.15
  17   7  -1   21.55   50.35
  17  -7  -1  -15.85   54.11
   2 -11  -5 1193.37  273.72
  -2 -11   5  989.69  210.49
  -2  11   5 1117.21  235.15
  -2 -11   5 1183.78  261.63
  12   8   4  685.35  160.11
  12  -8   4  372.01   90.05
  12   0  -7  -73.85   43.04
 -12   0   7   -9.17   50.75
  12   6   5  125.55   76.82
  12  -6   5  129.34   82.09
   0  11   5 1171.87  268.47
   0 -11   5  927.68  234.08
   0 -11   5  849.88  195.85
   6  -8   6  113.80   69.13
   6   8   6  138.80   96.71
  19   0  -3   36.24   53.63
  19   0  -3  -17.16   27.87
  15   9  -1  123.51   87.33
  15  -9  -1  130.96   90.93
   8  -3   7  543.01  123.92
   8   3   7  655.91  143.91
  11   7   5  -14.79   58.69
  11  -7   5  151.30   93.57
   3   1   8   91.40   57.39
   3  -1   8  267.79   82.78
  12  11   0 -132.47   52.70
  -5   7   7  -16.97   43.01
  -5  -7   7   26.77   43.86
  17  -7   0  207.08  132.64
  17   7   0  224.60  343.81
   8  -9   5  247.22  374.05
   8   9   5  282.58   61.26
   6  -2  -8  121.23   71.09
  -6   2   8  220.14  126.35
  -6  -2   8   -6.05   57.52
  12  11  -1  301.23   85.19
 -12  -1   7   89.61   60.18
  12   1  -7   77.93   51.48
  12  -1  -7  107.04   77.66
 -12   1   7   57.08   88.97
  15   7  -4  565.72  121.41
  15  -7  -4  672.94  148.81
   1   3   8   -9.65   62.47
   1  -3   8  108.98   68.32
  15   9   0   46.79   85.30
  15  -9   0  207.96  131.98
   9 -11   3   48.31   73.23
   9  11   3   71.32   43.02
  18   5   1    5.47   18.87
  18  -5   1  106.95   65.07
  -6  -9   6  473.02  110.02
  -6   9   6  509.77  120.61
   6  -9  -6  349.88   75.77
  14   3   5 1022.08  230.80
  14  -3   5 1054.59  210.91
  14   3   5 1034.44  246.00
  11  -4   6   20.93   38.88
  11   4   6  -83.10   59.68
  11  -4   6   17.05   40.07
   3 -11  -5  769.76  177.27
  -3 -11   5  528.00  124.63
  -3  11   5  809.84  165.58
  11  10   3  290.92   68.61
  12  -8  -5  151.12   90.39
  12   8  -5  -72.43   47.24
  -2  -7  -7  -35.70   45.75
   2   7   7  -47.23   51.32
  19   1  -3   55.69   78.66
  19  -1  -3  119.25   68.03
  19  -1  -3   45.56   63.49
   2 -12   4   47.95   69.28
   2  12   4  -77.35   49.37
  -2 -12  -4    9.60   37.30
   9   0   7  113.56   78.87
  -7   0   8  595.26  132.03
   7   0  -8  680.64  143.63
   7  13   0   62.32   60.32
   7 -13   0   84.72   67.04
   1  11   5  566.07  131.34
  -1 -11  -5  877.58  178.19
   1 -11   5  592.98  132.94
  12  -6  -6  108.83   68.91
  12   6  -6   76.87   56.35
 -12   6   6   52.18   75.89
 -12  -6   6  -75.60   67.06
 -13  -5   6  529.48  122.53
  13  -5  -6  542.67  138.05
 -13   5   6  446.12  100.07
   8  -7   6 1065.62  248.83
   8   7   6 1006.27  206.99
   9 -10   4   62.75   49.42
   9  10   4  247.28  377.49
  10 -12   0  276.48   64.31
  10  12   0  237.06  359.56
  17   6  -3  279.68   80.66
  12  -2   6   15.28   44.62
  12   2   6  206.03  132.76
  12  -2   6  100.35   66.54
   4  12  -4   58.80   56.26
  -4  12   4  -75.64   34.75
   4 -12  -4   86.47   67.65
  -8  10   5   -3.15   25.59
   8 -10  -5   25.25   41.09
  15   0  -6  150.96   87.84
 -15   0   6  343.74   78.02
  15   8   2  838.09  191.97
  15  -8   2  616.95  134.01
  19  -4  -1  952.81  220.45
  19   4  -1  934.82  200.14
  -5  -3   8   82.15   58.56
   5  -3  -8   62.94   43.43
  -5   3   8   85.34   52.00
  14  -8  -4  116.80   67.65
  14   8  -4   50.54   88.63
  -8   6   7  167.82  115.10
   8  -6  -7  -62.74   56.45
  18  -2  -4  110.86   83.55
  18   2  -4  243.15   78.92
 -18   2   4   49.65   74.63
  16   6  -4  -84.00   51.67
  16  -6  -4  194.29  112.97
   9  -8  -6  344.19   90.63
  -9  -8   6  406.19  101.36
   9   8  -6  450.39  100.36
  -9   8   6  265.18   62.37
  10  12  -1  266.57   86.46
  10 -12  -1  296.13   81.42
   9  -1   7  180.04  123.89
   9   1   7  -34.56   46.31
  -7  -1   8  -77.73   52.75
   7  -1  -8   -8.54   50.78
  -7   1   8   66.32   42.34
   1  13  -3    4.44   21.31
  -1  13   3   16.63   33.76
  -1 -13   3  -34.77   32.88
   1 -13  -3   32.86   61.02
  13  -5   5  848.61  203.19
  13   5   5  972.86  252.74
  14  -9  -3  275.79  100.11
  14   9  -3  181.37  127.99
   0 -13  -3   16.43   30.31
   0  13  -3   16.03   25.80
   0  13   3   62.96   39.61
   0 -13   3  -41.95   36.52
   7  13  -1  -76.92   42.12
   7 -13  -1   45.19   73.99
  16   7   2  -78.66   56.13
  16  -7   2   55.92   44.34
 -15  -1   6  887.39  210.21
 -15   1   6  926.39  213.68
  15  -1  -6 1076.79  256.01
  15   1  -6 1288.42 1627.35
   5  13   2  148.35   93.03
   5 -13   2  141.77   80.64
  -2  13   3  -17.03   37.01
   2  13  -3   10.60   26.25
   2 -13  -3  -33.74   33.21
   5   6   7  -19.27   66.92
   5  -6   7  -37.94   24.79
   3  -2   8  367.58  103.63
  19  -4   0  337.36  104.63
  19   4   0  363.34   84.17
  -4  11   5 1137.28  292.81
   4 -11  -5 1045.73  254.27
   4  11  -5 1021.78  263.60
  16  -8  -2  328.50   81.00
  16   8  -2  192.20  112.00
  19  -3   1   -8.27   17.59
  17   0  -5  -37.00   45.42
 -17   0   5   55.36   38.16
  -6 -10  -5  222.28  123.40
   6  10   5  174.26  107.21
   6 -10   5  150.82   89.56
   6  13  -2  107.06   63.39
   6 -13  -2  276.92   72.14
  15   5   4  337.68  102.58
  15  -5   4  187.26  101.67
  11 -10  -4  -22.77   45.60
  11  10  -4   13.95   26.81
   1 -13   3   82.90   59.93
  -1 -13  -3   -2.02   13.14
   1  13   3   51.11   61.31
  12   2  -7  550.32  126.30
 -12   2   7  588.44  143.51
 -12  -2   7  637.03  148.39
  12  -2  -7  557.00  135.93
  10  -8   5  149.59   85.21
  10   8   5  196.63  107.55
  18   6  -1  547.16  135.31
  16  -3   4  -64.51   49.52
  16   3   4   -7.59   55.04
  16   3   4   35.81   57.30
  -2  -4   8  157.71   86.34
  -2   4   8  104.46   63.39
   2  -4  -8   59.78   41.76
   8  12  -3  -98.73   40.13
   8 -12  -3   90.70   71.42
  14   9   2  -44.21   55.91
  14  -9   2  -48.26   57.40
   0 -14   0  506.30  123.01
   0  14   0  518.95  138.22
   2  -3   8   17.70   33.66
   2   3   8   -7.23   56.77
  -2 -11  -5  453.99  115.43
   2 -11   5  451.23  114.34
   2  11   5  383.11   94.96
  19  -2  -3    2.01   27.92
  19   2  -3   69.08   47.69
  16   4  -5   68.95   40.25
 -16   4   5   37.60   60.42
  16  -4  -5   46.78   77.07
  -1  -4   8   17.54   36.98
   1  -4  -8   -7.31   50.78
  -1   4   8  -15.52   49.65
  14  -8   3  135.80   74.90
  11   9   4  624.31  161.19
  11  -9   4  621.10  161.90
  17   7  -2  344.60   83.61
  17  -7  -2  372.49   94.96
  18   4   2  137.55   78.42
  18  -4   2  166.04   89.34
  15   7   3  159.13  104.44
  15  -7   3  114.17   72.83
  -4  -9  -6  447.94  113.89
   4  -9   6  211.28  110.56
   4  -9   6  176.45   96.84
   4   9   6  169.98   99.35
 -11  -7   6  890.97  236.24
  11  -7  -6  868.49  245.19
 -11   7   6 1261.24 1593.07
  11   7  -6 1034.07  242.85
  -6  -7   7  165.55   99.65
   6  -7  -7   50.74   82.27
  -6   7   7   84.16   62.09
 -17   1   5  169.57   90.27
 -17  -1   5  105.95   61.34
  17   1  -5  230.70  293.08
  17  -1  -5  309.64   86.66
   1 -14   0  253.39   63.75
   1  14   0  200.95  112.03
  17   4   3 1366.72 1730.15
  17  -4   3 1010.75  267.95
   3 -12   4  -21.44   53.57
  -3 -12  -4   84.91   56.52
   3  12   4   43.85   71.53
   4   0   8  768.31  200.52
  -3   4   8  149.95   96.46
  -3  -4   8   28.27   49.35
   3  -4  -8  182.92  107.81
 -14  -4   6  -25.18   49.02
 -14   4   6   -2.60   46.91
   7 -11   4  285.62   69.98
   7  11   4  271.07  103.35
  -3  13   3   78.67   45.14
   3  13  -3  -13.50   43.36
   3 -13  -3   56.44   40.54
  18   6   0  415.21  111.41
  14  10  -1 1052.46  244.13
  14 -10  -1 1080.41  256.62
  20   0  -1   13.90   27.76
  20   0  -1   52.09   31.70
   3  -7   7  -41.07   37.64
  -3  -7  -7  -31.36   40.33
   3   7   7  129.67   90.48
   9   2   7  379.67  102.99
  -5  12   4  400.83   97.45
   5  12  -4  327.84   88.93
   5 -12  -4  579.01  143.15
  -7  -2   8  282.07   72.51
   7  -2  -8  318.53   75.05
  -7   2   8  305.11   80.77
  11 -11   2  235.74  301.17
  11  11   2  265.70   66.24
  14  10   0  129.53   76.19
  14 -10   0 -102.02   66.15
  15  -9  -2  366.88   84.08
  15   9  -2  580.60  151.57
   0  -4   8   44.34   70.19
   0   4   8   11.32   56.27
   4  -1   8  117.77   66.80
   4   1   8  -28.01   50.97
  16  -8   1  368.53   89.16
  16   8   1  258.04   89.55
   6  -3  -8  -26.59   45.83
  -6   3   8  -79.77   49.23
  -6  -3   8    0.90   49.92
   7  13   1  108.50   61.22
   7 -13   1  -94.57   46.56
  15  -2  -6  137.37   80.08
 -15   2   6  128.09   73.40
  15   2  -6   71.81   52.86
  -2 -13  -3  109.44   62.48
   2  13   3   68.81   69.18
   2 -13   3  113.89   63.54
  11  -4  -7  710.69  175.81
 -11   4   7  637.67  155.35
 -11  -4   7  599.02  137.73
   2  14   0  590.98  142.37
   2 -14   0  455.58  141.55
 -10  -5   7  121.17   71.15
 -10   5   7  -37.25   50.16
  10  -5  -7   96.94   66.34
   7  -9  -6  266.76   73.45
  -7   9   6  140.45   88.40
  -7  -9   6  196.67  104.09
  12  11   1   93.80   55.14
  20   1  -1   41.31   73.47
  20  -1  -1  -31.28   36.48
  19  -4  -2   60.06   43.87
  19   4  -2   33.85   67.50
   4  -4  -8  146.16  100.57
  -4  -4   8  210.27  111.84
  -4   4   8  409.33  118.17
  12  11  -2  129.95   75.80
  12 -11  -2  119.39   72.99
  17  -6   2  559.26  135.23
  17   6   2  355.72   86.94
   7 -12   3  145.35   84.07
   7  12   3  209.01  117.60
   9 -11  -4  211.52  121.12
  18   0   3  -20.38   53.60
  18   0   3   28.68   47.84
  13  -9  -4  504.29  136.86
  13   9  -4  500.16  127.21
   5  11  -5  498.32  124.98
  -5  11   5  538.00  131.53
   5 -11  -5  503.05  126.54
  12   3   6   34.79   61.02
  12  -3   6  119.85   66.12
  12  -3   6    8.03   22.22
  20   0   0 1344.46 1708.06
  10  12   1  479.27  115.79
  10 -12   1  545.72  132.95
  17  -5  -4  259.95   77.22
  17   5  -4  191.63  116.05
   0  14   1   58.51   35.54
   0 -14  -1   78.66   43.38
  15   9   1  -11.54   58.57
  15  -9   1   51.48   59.73
  -8   0   8  938.77  228.60
   1  14  -1   50.91   67.88
   1 -14  -1   97.15   53.57
  19   0   2 1074.03  253.06
  13   9   3  182.42  118.00
  13  -9   3  299.63   85.90
  17  -7   1  135.00   84.10
  17   7   1  233.85  298.56
  18  -3  -4   31.59   51.51
  18   3  -4  -29.51   45.41
   7   5   7  396.01  115.40
   7  -5   7  402.01  108.12
  11  11  -3  424.29  122.73
   8  -4   7   76.60   43.02
   8   4   7  155.11  100.14
  18  -5  -3  129.77   74.44
  18   5  -3  197.12  119.41
  16  -6   3  284.89   87.02
  16   6   3  459.25  116.91
  15   0   5  -62.30   57.42
  15   0   5   28.65   49.56
  17  -2  -5  271.33   68.09
 -17  -2   5  113.65   69.32
 -17   2   5  170.62   92.19
  17   2  -5  136.56   80.26
   1  14   1   36.73   62.31
   1 -14   1  -29.72   35.83
  18  -1   3   52.70   37.03
  18   1   3   15.17   42.19
  18   1   3  -22.12   42.13
   9 -12   2  876.55  202.14
   9  12   2  940.53  247.51
  11  -9  -5  151.57   99.85
  11   9  -5  211.54  122.48
   3 -11   5  194.02  101.76
   3  11   5  313.87   75.64
  -3 -11  -5  246.84   73.88
  20  -1   0  227.58  120.46
  20   1   0  246.52   72.04
   1  -4   8   82.10   53.51
   1   4   8  188.34  102.68
   4  13  -3   60.70   53.37
   4 -13  -3  118.27   70.43
   7  -8   6  163.05   89.74
   7   8   6   88.35   71.93
  14   4   5   80.98   56.13
  14   4   5   20.29   35.16
  14  -4   5  124.58   73.10
   8  -1  -8   40.94   70.42
  -8   1   8   26.96   49.63
  -8  -1   8  -28.52   50.41
  19   1   2  360.13   95.67
  19  -1   2  372.61   87.25
  19   1   2  419.40  108.59
  18   6  -2  182.25  102.55
  18  -6  -2  193.08  112.57
   3   3   8  103.30   69.90
   3  -3   8    6.17   47.44
   2 -14  -1   32.49   54.28
   2  14  -1    3.91   20.85
  15  -1   5   55.05   36.16
  15  -1   5  123.40   75.07
  15   1   5  279.74   73.10
   3 -14   0  615.34  143.52
   3  14   0  675.02  168.49
  10 -12  -2  490.08  139.63
  10  12  -2  527.42  136.44
   4   2   8  454.34  111.00
   4  -2   8  606.41  149.53
  12   3  -7  381.53   99.90
 -12  -3   7  650.11  159.45
 -12   3   7  536.78  131.69
  13 -10  -3   86.41   80.39
  13  10  -3  182.57  120.83
   8 -13   0  114.12   80.64
   8  13   0  231.33  297.88
   4  12   4   80.77   44.95
   4 -12   4   -7.77   16.07
   6  13   2  173.71   94.74
   6 -13   2  111.60   62.11
  -5  -4   8  100.37   58.48
  -5   4   8  146.56   89.33
   5  -4  -8   71.78   46.50
   3  13   3  370.37  106.21
   3 -13   3  178.78   97.03
   9  10  -5  265.48   84.12
   9 -10  -5  231.80  299.17
  20  -2  -1  341.94   94.76
  20   2  -1  223.13  123.86
  -9  -6   7   98.94   65.41
  -9   6   7  116.49   84.63
   9  -6  -7   38.77   76.73
  13 -10   2   24.66   51.95
  13  10   2   84.96   54.62
  20   0  -2  263.34   64.03
  19  -3  -3  404.42  104.39
  19   3  -3  576.52  148.98
  10  -6   6    8.90   31.56
  10   6   6    0.43   61.75
  -1  10   6   25.10   58.29
  -1 -10   6  -61.20   37.51
  -1 -10   6  -19.91   37.29
   1 -10  -6   -1.14   23.46
   2  14   1   -5.04   50.42
   2 -14   1   63.03   37.26
  -7  -7   7   49.94   68.32
  -7   7   7  317.80  103.69
   7  -7  -7  104.21   63.16
   2 -10  -6  277.39   72.25
  -2  10   6  -14.36   47.97
  -2 -10   6  214.64  113.77
   7  13  -2  200.04  107.90
   7 -13  -2  173.96  103.17
   2  -8  -7  -24.67   48.71
  -2   8   7   97.07   54.49
  -2  -8   7  -38.25   49.15
   8  13  -1   57.90   50.65
   8 -13  -1 -148.31   52.80
   1  -8  -7  -70.92   50.18
  -1  -8   7    8.59   28.94
   6  12  -4  123.01   70.70
   6 -12  -4  261.84   81.44
  15  -6  -5   26.39   52.94
  11   5   6   46.38   80.91
   0 -10   6  -16.56   42.60
   0 -10  -6  -11.52   43.87
   0  10   6    8.50   24.91
  20  -1  -2  115.53   64.66
  20   1  -2  199.44  111.96
   4  -7   7   56.22   44.43
   4   7   7  -76.92   47.64
   4  -7   7   74.12   48.48
   9  -9   5  734.22  185.03
   9   9   5  460.08  112.15
   5   9   6  342.22  100.30
   5  -9   6  365.04   91.06
  -5  -9  -6  218.44  125.97
   6  -6   7   -8.79   38.45
   6   6   7  -66.43   64.95
   9  -3   7  341.47   83.79
   9   3   7  315.88   84.66
  -7  -3   8    5.17   28.39
  -7   3   8  -53.22   51.12
   7  -3  -8   66.52   60.74
  10  -8  -6   12.68   38.95
 -10   8   6   21.64   52.23
  10   8  -6  -63.47   46.29
 -10  -8   6  -75.60   62.93
  19   4   1  368.36   93.48
  19  -4   1  360.14   86.13
  14 -10  -2 -115.97   64.94
  14  10  -2   77.59   51.61
   3 -10  -6  -17.45   48.58
  -3  10   6  -83.93   49.19
  -3 -10   6   81.77   51.49
  -3 -10   6  -12.76   23.78
  18   2   3  200.34  105.26
  18  -2   3   74.56   42.52
  13   0  -7   41.69   80.44
   3 -14  -1   14.60   28.27
   3  14  -1  -18.24   41.76
  -3  -8   7   19.21   38.24
   3  -8  -7  158.58  111.62
  -3   8   7   69.33   60.08
  20   2   0  372.93   89.65
  20  -2   0  393.08  103.77
 -15  -3   6   88.74   52.52
  15  -3  -6   96.37   59.35
 -15   3   6   63.57   47.67
   5   0   8   47.43   67.42
  16  -4   4   67.87   47.95
  16   4   4   34.27   59.18
  10 -11   3  264.77   64.32
  10  11   3  338.92  100.04
  19  -5  -1  248.20   67.57
  19   5  -1  434.06  111.57
   0  -8  -7 -115.30   48.50
   0   8   7  -47.96   52.02
  -8   2   8  488.98  113.54
  -8  -2   8  403.56  109.36
   8  -2  -8  473.45  117.17
   2  -4   8  -72.33   46.91
   2   4   8   72.36   55.67
   7 -10   5  196.29  112.42
   7  10   5  141.99   82.86
   6  11  -5  411.51  119.04
   6 -11  -5  394.45  100.76
  -6  11   5  286.30   83.59
  19  -2   2   69.14   56.16
  19   2   2   80.03   51.16
  14 -10   1  745.35  198.54
  14  10   1  572.19  136.19
   9   7   6  515.30  120.69
   9  -7   6  553.57  142.60
  15   2   5  -10.41   51.95
  15   2   5   61.93   39.33
  15  -2   5  -72.62   49.49
  13   0   6   25.38   43.62
  13   0   6   80.91   59.33
 -13  -1   7  234.19  297.43
  13   1  -7   13.59   47.84
 -13   1   7   85.73   55.64
  13  -1  -7   18.85   56.34
   5 -13  -3   14.75   30.94
   5  13  -3   79.21   62.44
   9 -12  -3  135.81   80.94
   9  12  -3  129.32   84.37
  18   6   1   35.72   60.35
   5  -1   8   81.94   51.11
   5   1   8  -48.52   55.17
   1 -10   6  -64.62   40.56
   1 -10   6   58.62   43.24
   1  10   6   47.68   63.62
  -1 -10  -6   60.87   59.89
   4 -14   0 1087.66  264.42
   4  14   0 1128.22  295.21
   3 -14   1   73.53   40.09
   3  14   1  -36.05   41.12
  10 -10   4   28.94   55.28
  10  10   4   19.30   45.90
  11 -12   0  254.24   78.47
  11  12   0  183.96  113.97
  -8   9   6  113.91   64.00
  -8  -9   6  117.52   81.39
  17   0   4  111.43   68.07
  17   0   4   34.06   55.71
  14  -7   4  612.95  144.10
  14   7   4  994.92  235.59
  10   0   7    0.94   44.83
  -4 -11  -5  432.87  116.98
   4 -11   5  260.60   74.19
  13   8  -5   -8.89   52.21
  13  -8  -5  -41.01   47.11
  19   5   0   75.25   57.84
  19  -5   0   26.32   59.97
 -17   3   5  385.78  108.61
  17  -3  -5  576.26  159.58
  17   3  -5  553.94  147.92
  11 -12  -1  198.41   63.22
  11  12  -1  305.51   82.91
  13  -1   6  178.33  111.04
  13   1   6  223.67   69.02
  13  -1   6  106.67   76.42
  13   6  -6  101.72   73.56
  13  -6  -6  100.24   63.16
 -13  -6   6  167.26  114.88
 -13   6   6   86.93   67.56
   4  -8  -7  451.28  133.85
  -4  -8   7  249.24   76.07
  -4   8   7   90.31   52.12
  -6   4   8   62.56   65.80
   6  -4  -8   50.95   71.58
  -4  10   6   62.87   60.70
  -4 -10   6   57.61   68.49
  -4 -10   6   91.94   61.08
   4 -10  -6  137.62   84.59
  12   7   5 -174.83   58.80
  12  -7   5   -5.65   57.70
  13 -11  -1  215.60   80.41
  13  11  -1   82.60   62.82
  -2  -5   8  -35.97   53.25
  -2   5   8   -0.53   49.77
  13  11   0   74.19   71.14
  13 -11   0  195.19   56.38
   1   8   7  106.35   83.97
  -1  -8  -7   -9.59   47.26
   1  -8   7   21.08   32.27
  12 -10   3  385.75  106.23
  12  10   3  332.15  110.58
  20   2  -2   95.31   67.53
  20  -2  -2   11.98   22.45
   4  13   3   31.74   58.52
  17  -1   4  395.12  116.50
  17   1   4  303.99   85.02
  17   1   4  290.43   80.56
  16  -5  -5  211.54   73.97
  16   5  -5  217.64   80.77
  -1   5   8  -31.50   49.07
  -1  -5   8   49.47   68.29
   1  -5  -8   41.09   77.94
  10   1   7  -37.27   45.62
   8  11   4  213.73   86.87
   8 -11   4  323.18   88.89
  18  -5   2  -44.81   46.65
  18   5   2  -37.38   49.58
  13   6   5  113.64   71.65
  13  -6   5   43.79   57.94
   8 -13   1  202.48   69.18
   8  13   1  115.30   77.89
  17   5   3  240.73   87.84
   4  -3   8   40.28   67.43
   3  -5  -8   42.20   61.27
  -3   5   8  100.38   81.97
  -3  -5   8   81.95   55.96
  -9   0   8  607.91  158.87
   9   0  -8  845.39  243.56
  14  -5  -6   59.31   46.84
 -14   5   6   60.48   37.58
 -14  -5   6   93.96   59.11
  12   4   6  131.49   82.97
  12  -4   6   51.14   68.64
   4 -14  -1   21.64   33.64
   4  14  -1   -0.10   43.64
  16   8  -3  -74.47   52.54
  16  -8  -3  -25.59   45.98
  20   0   1   11.31   20.24
  20  -3  -1  372.83  100.89
  12  10  -4  -49.02   46.05
  12 -10  -4    0.36   52.28
  18   4  -4  132.07   82.08
  18  -4  -4  -38.93   46.61
   5  12   4   93.57   76.90
   5 -12   4   19.22   33.04
   0  -5  -8   60.90   66.24
   0   5   8  195.06   65.80
   0  -5   8   45.94   65.72
  12  -7  -6  361.13   99.14
  12   7  -6  584.50  152.65
 -12   7   6  753.32  200.68
 -13  -2   7  477.51  135.79
  13  -2  -7  272.43   88.40
 -13   2   7  212.47   64.22
  13   2  -7  382.96  119.57
  15  -6   4   43.56   62.58
  15   6   4 -216.54   60.94
  17   8  -1  215.72   65.20
  17  -8  -1  127.04   81.51
  -9   1   8   39.76   57.87
   9   1  -8   -1.00   43.58
  -9  -1   8    9.20   43.25
   8  12   3   -0.87   58.18
   8 -12   3  -38.38   52.45
  17  -7  -3  -27.53   51.98
  17   7  -3  -13.09   57.41
   2 -10   6  124.13   82.77
   2  10   6  139.68   97.42
   2 -10   6   65.15   48.94
 -11  -5   7  104.95   64.98
 -11   5   7   33.63   48.89
  11  -5  -7   53.84   73.43
   5  -2   8   14.74   48.31
   5   2   8  123.62   95.35
  20   1   1   59.26   42.41
  20  -1   1  -80.59   43.10
  10 -11  -4   -4.79   53.71
  10  11  -4    6.71   34.85
  19  -5  -2  559.59  158.76
  19   5  -2  580.87  156.23
  -8  -7   7  -43.66   61.22
  -8   7   7   74.97   70.00
   8  -7  -7  138.58  103.77
  16  -7  -4 1053.67  276.20
  -4   5   8  219.70   82.25
  -4  -5   8  175.83  112.98
   4  -5  -8  157.97   95.31
  11   8   5  -25.84   56.49
  11  -8   5  -39.20   70.10
   3   4   8   88.15   67.13
   3  -4   8   88.90   60.19
   0 -14  -2  695.91  177.67
   0  14   2  565.44  161.67
   1 -14  -2  413.45  118.45
  -1  14   2  607.88  163.82
  16  -9  -1  -36.60   51.66
  16   9  -1  105.99   67.58
   7  12  -4  124.97   75.80
   7 -12  -4   -0.18   44.50
  13  -2   6   63.68   39.85
  13   2   6  -99.73   45.87
   5  -8  -7    5.13   57.01
  -5   8   7  123.48   90.76
  -5  -8   7  164.70  106.76
  18  -3   3  105.13   72.76
  17  -8   0  565.03  161.59
  17   8   0  503.22  135.42
   4  14   1   54.60   69.51
   4 -14   1  -33.67   38.82
 -12  -4   7  967.37  266.05
 -12   4   7  836.39  223.25
  12  -4  -7 1101.50  276.11
  20   3   0   98.39   60.60
  20  -3   0   83.44   57.05
  19   0  -4   93.04   60.16
  19   0  -4   78.80   51.45
 -19   0   4  192.72   63.82
  15  -8  -4   59.62   42.61
  15   8  -4    0.36   57.87
  -5 -10   6   55.93   75.87
   5 -10  -6  124.11   92.46
  -5  10   6  -64.94   47.51
   7  13   2  270.48   73.16
   7 -13   2  155.27   93.54
  16   0  -6  137.86   95.23
 -16   0   6  161.39   96.98
  -8  -3   8  -47.83   64.94
  -8   3   8   96.26   65.80
   8  -3  -8  -55.28   47.58
   2  -8   7  -69.10   51.02
  -2  -8  -7   47.96   64.31
   2  -8   7   64.29   41.06
   2   8   7  -13.49   50.98
  19  -4  -3   23.23   44.85
  19   4  -3  142.36   96.10
  17  -2   4   71.33   54.10
  17   2   4  167.82  108.64
  17   2   4   72.61   43.47
  16  -9   0   64.57   67.17
  16   9   0  260.79   80.49
  19   3   2   96.49   62.17
  19  -3   2   33.06   48.81
   5  -7   7   81.32   64.20
   5   7   7  164.54   99.02
   5  -7   7   86.73   59.50
  15   9  -3  778.65  207.60
  15  -9  -3  528.44  152.48
   8  -5   7  255.90   79.02
   8  -5   7  195.69   71.11
   8   5   7  394.50  125.03
   1 -14   2  584.65  188.53
   1  14   2  611.90  159.09
  10   2   7  115.61   73.22
  10  -2   7  155.07  100.14
   6  13  -3  182.84  204.60
   6 -13  -3  121.49   83.78
   7 -11  -5   97.69   78.37
   7  11  -5   94.31   71.86
   5  14   0  745.18  210.60
   2  14  -2  412.42  111.86
   2 -14  -2  232.21   67.72
  15   3   5 1014.01  276.36
  15  -3   5 1315.28 1422.44
  15   3   5  879.41  244.14
   8 -13  -2  678.85  181.56
   8  13  -2  721.54  197.86
   8  -8   6  130.88   80.77
   8   8   6  107.85   70.76
  12  -9   4  223.99   67.41
  12   9   4  228.83   98.38
  19   1  -4  692.51  176.99
  19  -1  -4  569.68  152.60
 -19   1   4  444.54  127.46
   1   5   8   48.58   80.33
   1  -5   8  -68.58   44.40
  18   7  -1  -45.66   58.79
  18  -7  -1   -0.34   50.28
  16  -1  -6  922.61  261.13
 -16   1   6  732.46  208.26
 -16  -1   6 1072.50  294.54
  16   1  -6 1116.03  278.53
  14   5   5  738.60  192.58
  14  -5   5  613.97  164.49
  10  -6  -7  229.73   62.76
 -10  -6   7  -30.02   57.88
 -10   6   7  183.89  205.42
   6  -9   6  266.63   78.20
   6   9   6  189.11   77.52
   9 -13   0   -0.72   29.39
   9  13   0   -0.62   51.77
  12  11   2 -135.00   51.92
   9   4   7  556.80  167.12
   9  -4   7  403.68  114.16
   9  -4   7  561.72  147.24
   7  -4  -8  272.63  101.63
  -7  -4   8   37.46   59.37
  10  10  -5  135.98   86.96
  10 -10  -5   71.50   68.06
  11  12   1  554.95  158.09
  11 -12   1  519.80  140.47
  10  12   2  480.06  128.65
  10 -12   2  475.57  126.29
  -9   2   8  640.34  171.01
  -9  -2   8  717.66  184.49
   9  -2  -8  887.89  248.37
  16   8   2  390.63  108.71
  16  -8   2  482.11  126.63
  17   6  -4   49.36   66.75
  15  -4  -6  124.09   87.86
 -15   4   6   62.45   42.64
 -15  -4   6   76.38   61.31
   5 -11   5  434.27  114.19
   5  11   5  215.75   59.38
   5  -5  -8  -50.76   61.27
  -5   5   8   -2.09   50.01
  -5  -5   8    0.43   59.87
  18   7   0   98.41   85.18
  18  -7   0   31.72   68.76
  12  11  -3  204.16   88.38
  12 -11  -3  103.54   68.17
  12   9  -5  651.41  173.55
  12  -9  -5  579.16  159.53
  20   2   1   98.67   60.77
  20  -2   1  171.23  104.34
   9 -13  -1  197.53   75.08
   9  13  -1  -41.24   44.91
   6   0   8    4.33   35.59
   5  14  -1   66.65   62.73
  20   3  -2   42.28   70.34
  20  -3  -2   47.43   62.50
   2 -14   2  267.50   83.18
   2  14   2  170.08  105.53
   7  -6   7   92.33   67.39
   7  -6   7    0.39   30.34
   7   6   7  -61.13   58.69
   5 -13   3  185.69  207.38
   5  13   3   40.63   66.74
  18  -6  -3   -2.84   46.44
  18   6  -3   47.62   81.98
   3 -14  -2  447.17  124.00
   3  14  -2  572.76  156.33
  13 -11  -2   54.72   76.33
  13  11  -2  -18.82   52.01
  11  12  -2  422.22  113.27
  11 -12  -2  400.81  112.64
   3 -10   6   61.66   41.01
   3  10   6   35.54   70.07
  -3 -10  -6   34.13   49.49
  13  11   1   26.45   44.58
  13 -11   1  117.40   79.05
  15  -9   2  -75.95   48.07
  15   9   2   -3.18   55.71
  20   0  -3  -26.30   39.82
   6  -1   8   78.39   51.71
   6   1   8   59.43   68.15
  14  -9  -4  498.13  129.21
  14   9  -4  403.76  120.49
  -9  -9   6  190.93   57.76
  -9   9   6   90.69   63.23
   9  -9  -6  158.92   99.82
   9   9  -6  253.77   67.56
  15 -10  -1 1165.77  302.84
  15  10  -1 1317.11 1430.44
  17   8  -2   -4.07   63.11
  17  -8  -2   86.10   89.57
  15   8   3   32.89   46.99
  15  -8   3  136.28   95.29
  19  -5   1   44.86   74.60
  19   5   1   54.33   69.65
  11  -8  -6  144.45   90.89
  11   8  -6  131.64   81.18
 -11   8   6  215.55   72.39
  -6   8   7  178.79  112.36
   6  -8  -7  144.56   90.02
  -6  -8   7  217.12   72.75
  17   4  -5  145.24   92.10
  17  -4  -5   69.52   51.18
  17  -7   2   77.72   63.32
  17   7   2  126.17   81.82
 -13   3   7  174.44  108.79
  13   3  -7  234.01   75.35
 -13  -3   7  171.37  106.75
  13  -3  -7  175.11  112.16
   8 -10   5  -16.55   59.67
   8  10   5  -76.47   54.46
  19   2  -4   20.68   52.92
 -19   2   4   17.62   32.80
  19  -2  -4    7.53   49.30
 -18   0   5   76.36   49.86
  18   0  -5   -5.52   39.23
  15 -10   0  -36.05   53.78
  15  10   0   37.22   73.44
  16   2  -6  -44.45   32.54
 -16   2   6   13.64   37.61
  16  -2  -6   70.96   53.92
 -16  -2   6  146.90   89.45
  20  -1  -3   32.17   44.09
  20   1  -3  104.53   74.60
   5   3   8   55.67   77.33
   5  -3   8  113.06   81.48
  16  -5   4  663.95  180.23
  16   5   4  626.64  180.65
  -6  10   6   46.77   76.57
  -6 -10   6  105.92   66.87
   6 -10  -6   -3.23   51.25
   2  -5   8   34.97   51.75
   2   5   8   83.25   56.02
   3  -8   7   52.47   72.80
   3   8   7   19.36   37.15
   3  -8   7  208.30   77.00
  -3  -8  -7   90.84   57.76
   5  14   1   29.23   47.73
  16   9  -2  183.66  200.74
  16  -9  -2  241.41   89.86
  16  -7   3  120.35   81.39
  16   7   3  -79.62   64.55
  10  12  -3  136.28   95.16
  10 -12  -3  119.54   76.62
  13   3   6   90.33   58.08
  13  -3   6  -57.77   58.98
   4  -4   8   -9.91   46.08
   4   4   8  117.08   91.56
   6 -12   4   27.65   53.92
 -18   1   5  186.88  205.52
  18  -1  -5  198.95   72.70
 -18  -1   5  183.36  202.12
  10   9   5  353.34  101.83
  11  -6   6   19.63   40.25
  11   6   6  -39.00   63.67
  20   4  -1  619.79  180.62
  20  -4  -1  845.02  219.38
   3  14   2  216.50   69.89
   3 -14   2  134.22   81.30
  17   3   4   67.28   69.46
  17  -3   4   66.72   44.06
  18  -7  -2  367.94  111.35
  18   7  -2  409.70  116.40
  10   0  -8  412.43  111.20
 -10   0   8  575.25  169.32
  14   9   3  809.10  209.27
  14  -9   3  702.25  185.92
  10   3   7  614.54  175.26
  10  -3   7  326.03   99.56
   4 -14  -2  445.85  120.94
   4  14  -2  554.24  146.34
  14 -10  -3  237.74   90.69
  14  10  -3  226.69   81.03
  -6  -5   8  102.34   75.37
   6  -5  -8   23.64   66.98
   6 -14   0  895.74  227.87
   6  14   0  759.90  217.48
  19   6  -1  817.17  209.22
  19  -6  -1  851.56  252.46
  -1  13   4  267.41   75.15
   1  13  -4  339.11   94.15
   1 -13  -4  418.11  116.73
   8 -12  -4  -88.32   49.51
   8  12  -4   11.42   45.29
  11 -11   3   26.86   45.63
  11  11   3   78.16   78.10
   9 -13   1  133.04   85.48
   9  -7  -7   83.08   56.68
  -9   7   7   30.29   44.02
   6   2   8   94.68   80.97
   6  -2   8  -98.48   40.10
   7  13  -3    0.16   50.91
   7 -13  -3   35.55   53.14
  10  -7   6 1213.84  321.98
  10   7   6 1324.58 1435.81
  17   8   1  207.16   76.10
  17  -8   1  409.92  116.77
  -1 -12   5   23.53   35.41
  -1 -12   5  -78.94   43.07
  -1  12   5  102.36   69.02
 -10  -1   8  396.25  108.18
 -10   1   8  392.10  105.10
  10   1  -8  163.66  111.01
  10  -1  -8  283.45   84.32
   0 -13   4   40.47   53.89
   0 -13  -4   71.59   56.95
   0  13   4   80.67   52.01
  14   0  -7   57.38   79.16
 -14   0   7  -89.79   50.42
   2  13  -4  202.36   62.72
  -2  13   4  156.80   92.75
   2 -13  -4  248.63   70.09
  18   4   3  565.94  157.70
  18  -4   3  519.40  140.93
  16  -9   1  -22.95   52.57
  -9  -3   8  -34.01   54.03
   9  -3  -8   65.38   65.88
  -2  12   5    2.22   22.60
   2 -12  -5  -68.34   44.73
  -2 -12   5   48.61   64.02
   9  11   4  306.21  102.37
   9 -11   4  231.09   68.09
  12   5   6  651.13  175.03
  12  -5   6  367.76   97.31
  20   4   0  149.83   89.85
  20  -4   0  185.75  203.85
   8 -11  -5   96.71   64.81
   8  11  -5  148.52   92.47
  20   2  -3   46.91   68.45
  20  -2  -3    0.27   25.61
   0 -12  -5  -15.81   36.76
   0 -12   5  -61.72   46.19
   0 -12   5   44.11   59.97
   0  12   5   13.81   28.54
  15  -7  -5   68.17   66.16
  15   7  -5   88.98   77.95
  14 -10   2   32.97   65.47
  14  10   2   58.66  101.03
   8  -4  -8    6.31   26.49
  -8  -4   8   26.20   44.85
  -8   4   8   64.73   45.81
  20  -3   1   13.87   35.38
  20   3   1   86.48   77.19
  19  -4   2  378.58   84.16
  19   4   2  388.83   92.38
   6   7   7   15.16   59.19
   6  -7   7  105.00   81.18
   6  -7   7  119.76   79.75
  18  -5  -4  736.24  150.02
  18   5  -4  803.55  170.60
  11  10   4  121.74  106.88
  19   6   0 1150.63 1508.72
  19  -6   0  944.43  219.21
   6  14  -1  110.28   82.34
   6 -14  -1   -2.42   40.32
  -4 -10  -6   -4.72   18.97
   4  10   6  126.58  107.02
  14   1  -7   76.39   54.84
  14  -1  -7   85.78   77.39
 -14   1   7   84.48   52.10
  15   4   5    4.39   19.16
  15  -4   5  137.88  109.79
  15   4   5   36.79   47.76
  12 -12   0  136.83  111.30
  12  12   0  421.97  121.88
  12 -12  -1  365.90   88.66
  12  12  -1  358.20   86.68
   8  13   2  -27.06   57.37
   8 -13   2  156.15  112.89
 -18  -2   5   89.69   72.06
  18  -2  -5   32.56   44.84
 -18   2   5  -35.16   47.10
   1 -13   4  148.99  108.90
  -1 -13  -4   -1.65   35.16
   9  12   3  199.67  156.81
   9 -12   3   44.14   58.18
  -2   6   8  727.43  155.15
   2  -6  -8  754.54  161.80
  -2  -6   8  603.48  119.35
  16   0   5   16.91   47.64
  16   0   5    6.72   27.89
   3 -12  -5  126.02   95.07
  -3  12   5   27.25   38.05
  -3 -12   5   86.02   65.40
  -3  13   4  471.91  104.61
   3  13  -4  452.45  104.39
  16  -6  -5  194.65  156.95
  16   6  -5  136.13  100.32
  -1   6   8  118.98   90.02
  -1  -6   8  166.58  122.79
   1  -6  -8  183.21  139.89
  11   0   7  -66.01   49.08
   3  -5   8   95.31   84.68
   3   5   8  204.61  171.23
   7  -8  -7  103.21   78.77
  -7   8   7  106.30   80.80
  -7  -8   7  136.52  100.00
  18   6   2  665.20  139.14
  15 -10  -2  -70.14   54.92
  15  10  -2  -44.38   54.06
   6 -13   3  131.36   96.92
   6  13   3  105.89   95.14
   6  11   5  387.06  101.71
   6 -11   5  293.48   75.82
   1 -12   5   -1.40   52.22
   1  12   5   44.20   76.79
  -1 -12  -5   55.50   73.82
  17   6   3  399.29   93.60
  17  -6   3  239.43   79.20
   9  13  -2  366.30   76.63
   9 -13  -2  252.84   70.66
   3  -6  -8  627.51  138.02
  -3   6   8  563.63  123.22
  -3  -6   8  479.72  130.48
  14   8  -5   38.61   75.79
  14  -8  -5   68.32   71.22
  11 -11  -4   93.02   72.53
  11  11  -4   30.85   62.13
 -14   6   6   24.40   35.33
  14  -6  -6  119.05   87.63
  14   6  -6  110.50   83.85
 -14  -6   6   77.40   57.43
  12  -5  -7  142.84  109.15
 -12   5   7  136.32  101.16
 -12  -5   7  -17.31   48.35
  19   3  -4  -15.68   39.23
  19  -3  -4  -20.46   43.20
  16  -3  -6   27.35   50.55
 -16   3   6   -5.29   50.19
   7   9   6  355.11   88.24
   7  -9   6  401.85   93.53
  18  -7   1   -3.15   29.13
  18   7   1  -11.05   38.40
  16   1   5   45.60   52.92
  16   1   5   48.64   60.33
  16  -1   5  170.31  131.82
   7 -10  -6   71.53   65.86
  -7  10   6   50.05   69.87
  -7 -10   6  -51.85   46.47
   4  14   2  208.49  151.04
   4 -14   2  230.95   61.13
  20   4  -2  159.80  122.72
  20  -4  -2  119.66  105.21
  19   5  -3  219.86   68.15
  19  -5  -3  500.18  116.11
   4   8   7   79.39   83.46
   4  -8   7    5.05   35.33
   4  -8   7   33.02   40.32
  11   1   7   80.18   73.66
  11  -1   7   54.68   72.14
 -10  -2   8  181.33  132.69
   0   6   8  294.79   69.70
   0  -6  -8  248.15   82.41
   0  -6   8  349.26   77.12
   5  14  -2  146.49  116.19
  13   7  -6  429.76   95.45
  13  -7  -6  373.46   80.80
  19   0   3  -38.16   48.98
  13  10  -4  196.56  146.29
  13 -10  -4    8.06   29.02
 -11  -6   7  173.78  127.11
 -11   6   7  125.38  104.53
  11  -6  -7  207.20  151.81
  15  10   1  638.98  160.99
  15 -10   1  518.01  123.50
   6  14   1   -8.58   62.29
   6 -14   1   55.75   68.86
  14  11  -1  113.48   85.53
  14 -11  -1   78.54   87.40
   2 -13   4  316.09   74.98
   2  13   4  113.41  102.04
  13  10   3  371.09   88.68
  19   6  -2   57.70   80.28
  19  -6  -2   80.13   61.35
  21   1  -1   -8.54   34.84
  21  -1  -1   64.94   49.83
  14   0   6    4.98   37.99
  14   0   6   63.95   53.43
   9  -5   7  162.29  119.89
   9  -5   7   55.83   65.72
   9   5   7  127.15  117.27
  -4  -6   8  245.21   82.68
   7  -5  -8  -36.98   48.16
  -7   5   8  131.39  116.68
   7   0   8   76.33   57.70
   4  12  -5  -12.84   46.89
   4 -12  -5   11.60   33.39
  -4  12   5   12.95   31.37
  14 -11   0   27.63   45.27
  14  11   0   20.01   55.55
  13   7   5  142.96  109.54
  13  -7   5  137.93  102.24
   9   8   6   32.96   75.26
  14   2  -7  340.68   89.07
  14  -2  -7  443.08  114.77
 -14   2   7  393.27   92.87
 -14  -2   7  315.44   64.85
 -13  -4   7  105.74   83.66
  13  -4  -7  114.52  102.71
 -13   4   7  206.24  152.74
  19   1   3   69.39   52.65
  19  -1   3   -2.59   55.42
  10 -13   0 -106.05   54.12
  11 -10  -5  464.94  122.32
  11  10  -5  279.71   83.21
   4  13  -4  486.79  111.89
   4 -13  -4  393.12  103.15
 -15  -5   6  -59.83   55.02
  15   5  -6  161.60  121.18
 -15   5   6  131.63   98.70
  -2   9   7    5.56   45.52
  -2  -9   7   -7.20   22.33
   2  -9  -7  -42.59   44.65
  -2  -9   7   23.90   42.99
   5   4   8   99.17   75.38
  -1  -9   7  328.47   67.55
  -1   9   7  258.95   61.77
   1  -9  -7  196.01  145.05
  20   0   2  627.45  144.48
   6  -3   8   53.42   75.65
   6   3   8   67.18   58.04
   2  12   5   -9.16   53.64
  -2 -12  -5   42.54   62.57
  14   1   6  470.68  102.21
  14   1   6  554.11  117.92
  14  -1   6  503.29   96.48
  14  -1   6  441.42  108.84
  14   8   4  338.36   75.13
  14  -8   4  409.94   91.91
   8   6   7   38.38   73.64
   8  -6   7  -12.78   33.04
  10 -13  -1  218.77   77.68
  10  -9  -6  152.16  114.08
  10   9  -6   71.31   58.44
   7   1   8   93.45   83.84
   7  -1   8   77.37   58.52
  13  -4   6  -11.89   58.27
  13   4   6   76.85   59.39
  15  -7   4  367.46   91.15
  15   7   4  151.33  112.38
   3  -9  -7   33.35   61.14
  -3   9   7   81.55   79.25
  -3  -9   7   55.92   69.92
   1  -6   8   44.06   58.14
  -1  -6  -8   32.14   64.02
   1   6   8  101.12   92.89
  20   3  -3  260.72   60.40
  20  -3  -3  426.14  100.68
  12  -8   5   67.16   54.01
  12   8   5   81.48   71.60
  14  -6   5   35.63   46.69
  14   6   5   16.87   25.04
   0  -9   7  109.01   84.47
   0  -9  -7   82.98   67.92
   0  -9   7   30.50   48.70
   0   9   7   92.26   86.77
   7  12   4   43.02   77.05
   7 -12   4   90.13   71.37
  16   2   5  -17.04   48.50
  16   2   5   68.29   53.64
  16  -2   5  168.46  150.83
  20   1   2   57.20   84.81
  20  -1   2  -48.05   48.26
  21  -1   0  231.64   61.16
  17  -4   4  -97.20   52.64
  17   4   4   -9.94   52.17
  11   2   7  398.50   88.04
  11  -2   7  300.05   72.42
  10  -4   7  119.84   94.52
  10  -4   7  196.78  148.64
  10   4   7   58.97   99.00
   7 -14   0  882.67  195.29
   7  14   0  574.13  126.73
  11 -12   2  780.81  170.13
  11  12   2  794.80  159.01
  17  -5  -5  191.53  144.99
  17   5  -5  273.99   88.20
 -18   3   5  473.63   92.19
  18   3  -5  444.65   94.79
  18  -3  -5  387.19   96.32
   8  13  -3   33.80   61.25
   8 -13  -3  176.17  129.71
  -5   6   8  173.72  129.40
  -5  -6   8  244.76   59.62
   5  -6  -8  326.11   93.04
  12  12   1  296.93   87.70
  12 -12   1  216.01  161.92
   9  10   5   94.21   71.83
   9 -10   5  -34.61   70.25
   5  10   6    4.35   26.21
   5 -10   6  -14.20   48.37
  -5 -10  -6  -15.02   42.48
  21   2  -1  135.66  106.33
  21  -2  -1  122.24  100.52
  13  -9  -5  454.31  105.67
  13   9  -5  319.18   68.19
   1 -14  -3  -24.32   37.08
  -1  14   3   -9.54   39.65
   0  14   3   29.98   62.06
  12 -12  -2  516.70  128.94
  12  12  -2  704.51  155.89
   3 -13   4  532.87  112.71
   3  13   4  623.89  142.02
  12   8  -6  490.90  113.04
  12  -8  -6  446.25   99.36
   9 -12  -4  182.12  144.04
   9  12  -4  195.57  140.32
   4   5   8  171.27  143.28
   7  14  -1   14.95   64.42
   7 -14  -1   12.78   25.42
  19  -2   3   78.67   66.26
  19   2   3   94.02   76.40
   9  -4  -8    3.65   47.65
  -9  -4   8  105.63   85.28
  -9   4   8   80.77   76.54
  -4   9   7  -51.40   54.32
   4  -9  -7  -77.84   51.14
  -4  -9   7   50.70   59.03
  17  -8  -3  138.39  113.87
   5 -12  -5  -20.86   26.37
   5  12  -5 -110.71   44.79
  13 -11  -3  291.68   72.91
  13  11  -3  325.94   88.00
 -11   0   8  759.12  158.52
  11   0  -8  775.25  169.11
  13   9   4  155.99  117.47
  13  -9   4   25.95   39.13
  10  -7  -7   12.05   55.80
 -10   7   7   97.29   89.11
   5  14   2  181.27  137.24
   5 -14   2  186.83  136.62
  -1  -9  -7  483.62  110.55
   1  -9   7  411.91  101.38
   1   9   7  535.61  130.77
   1  -9   7  500.93  100.95
  20  -4   1  773.69  175.40
  21   1  -2  761.07  164.27
   9 -11  -5  313.16   93.84
  20  -5  -1  240.18   67.71
  20   5  -1  194.63  141.31
  13 -11   2  -15.29   54.43
  13  11   2  -12.33   51.31
   2 -14  -3    5.80   42.51
  -8  -8   7   77.13   63.03
   8  -8  -7  202.05  148.31
  -8   8   7  310.08   96.94
  -1  11   6  -18.85   56.64
  -1 -11   6  -68.77   48.57
  -1 -11   6  -33.01   46.81
   1 -11  -6   -7.82   44.55
  16  -8  -4   29.99   46.33
  16   8  -4  117.09   86.02
  14   2   6  127.54   98.17
  14  -2   6  -49.02   52.86
  14   2   6  -22.15   51.79
  11 -12  -3   64.95   66.18
  11  12  -3   65.47   70.68
  10  -3  -8  122.97   93.92
 -10   3   8   51.21   60.75
 -10  -3   8   82.27   63.61
   5 -13  -4  577.81  123.52
   5  13  -4  524.99  134.88
   7   2   8   68.36   52.66
   7  -2   8  -65.45   46.36
  -2 -11   6   80.39   67.70
  -2  11   6  -70.84   53.11
  -2 -11   6  -27.25   44.51
   2 -11  -6  -20.93   39.13
  19   6   1  263.31   78.20
  19  -6   1  289.81   93.20
  18   0   4  549.78  128.53
   6 -14  -2  145.60  115.61
   6  14  -2   59.85   64.75
   1  14   3   67.34   77.92
   3  12   5  -73.44   48.66
  -3 -12  -5    1.35   37.06
  17   7  -4  372.07   95.01
  17  -7  -4  292.90   71.79
 -17   0   6   56.89   70.14
  17   0  -6   59.97   52.45
  16   6   4  309.05   91.41
  16  -6   4  421.28   87.31
 -11  -1   8   49.85   59.44
  11   1  -8   76.70   81.90
  11  -1  -8  136.78  109.21
 -11   1   8   45.34   58.60
  16  -9  -3   76.36   79.94
  16   9  -3  169.95  139.74
  20  -2   2  177.56  130.80
  20   2   2  115.30   86.80
   2  -6   8  162.97  121.94
   2   6   8   93.71   79.53
   0 -11   6   73.56   57.91
   0 -11   6   14.57   26.78
  21  -2   0  444.88   97.99
  21   2   0  447.11  116.53
   8  10  -6   55.16   67.10
   8 -10  -6  137.77  118.32
  -8 -10   6  -31.56   50.20
  -8  10   6  -29.80   37.38
   5   8   7  297.10   83.57
   5  -8   7  138.99  107.11
   7  -7   7   78.04   61.11
   7   7   7  118.35   92.57
  18   7  -3  102.48   99.74
  18  -7  -3  -24.33   55.51
  14  -3  -7  237.77   58.92
  14   3  -7  249.07   71.99
 -14  -3   7  264.98   64.09
 -14   3   7  270.16   55.89
  18   1   4  457.35  102.15
  18  -1   4  416.25  149.03
  18   1   4  491.83  121.14
  14 -11  -2   15.17   36.61
  14  11  -2   94.59   78.72
  -3 -11   6  108.85   80.94
   3 -11  -6   44.60   55.07
  -3  11   6  -14.40   49.63
   7 -13   3  342.76   75.57
   7  13   3  443.78  109.06
  18   5   3  223.83   69.44
  18  -5   3  617.33  151.24
  17  -9  -1  275.73   69.36
  20  -5   0  121.65   93.34
  20   5   0  -55.53   45.28
  19  -4  -4   64.98   70.60
  19   4  -4  -41.97   39.58
  10 -13   1   67.96   56.84
  10  13   1   67.31   56.86
  18  -8  -1  -24.07   55.88
  18   8  -1   29.39   74.74
  16  -4  -6   25.56   52.73
 -16   4   6   -0.57   43.74
 -16  -4   6   39.47   54.11
  17  -1  -6  534.19  120.03
 -17  -1   6  674.23  153.53
 -17   1   6  554.28  125.91
  17   1  -6  548.24  115.12
   3  14  -3  -47.64   39.98
   3 -14  -3   -7.96   35.84
  -8   5   8   50.35   69.64
  -8  -5   8   73.08   61.56
   8  -5  -8  -21.64   49.01
   7 -11   5  684.65  159.84
   7  11   5  320.41   92.40
  19   5   2  -34.15   49.87
  19  -5   2  -27.97   48.64
  11   9   5  529.92  128.76
  11  -9   5  365.62  100.26
  14 -11   1  -22.83   32.18
  14  11   1  -36.51   53.64
  15  -5   5  815.09  164.90
  15   5   5  856.03  207.81
   5  -9  -7   14.08   64.56
  -5   9   7   24.08   38.78
  -5  -9   7   31.45   42.01
  17  -9   0  140.40  119.08
   9 -13   2   16.97   55.32
   6  -6  -8  534.46  111.21
  -6   6   8  298.50   78.51
  -6  -6   8  314.77   71.43
   7 -14   1  -14.39   48.12
   7  14   1   65.49   58.90
  15   9  -4  178.34  142.42
  15  -9  -4  222.40   54.85
   2 -14   3   54.99   62.97
   2  14   3   41.09   76.87
  -1 -11  -6    6.82   39.87
   1 -11   6  -36.41   43.52
   1  11   6  -41.71   50.70
  18  -8   0  151.49  123.00
  18   8   0  357.92   93.10
  16   3   5   47.37   53.91
  16   3   5  227.54   59.24
  16  -3   5  298.16   66.46
  10 -11   4  153.13  117.49
  10  11   4   19.30   32.08
  21   2  -2  -58.11   42.96
  21  -2  -2   26.01   35.48
  -2  -9  -7  202.19  147.52
   2  -9   7  151.63  112.78
   2   9   7   61.06   73.01
   2  -9   7  191.14  137.35
  11  -3   7  584.79  122.07
  11   3   7  487.04  106.79
  11  -3   7  570.01  121.45
  10 -13  -2  488.40  121.28
  10  13  -2  678.43  145.13
   8   9   6  279.16   66.17
   8  -9   6  156.18  122.14
   4 -11  -6   44.15   64.84
  -4  11   6    2.25   22.52
  12   6   6  155.66  120.72
  12  -6   6   66.32   52.86
   4  13   4   57.96   88.52
   4 -13   4  129.37  109.86
  10 -12   3  297.47   75.21
  10  12   3  346.75   79.11
 -11   2   8   17.19   39.18
 -11  -2   8  132.26  100.93
  11  -7   6  553.56  115.74
   6  12  -5   13.38   28.91
   6 -12  -5  -19.78   41.50
   6   4   8 -111.84   61.83
   6  -4   8  100.88   76.31
  12  11   3  329.86  112.04
  12 -11   3  305.24   78.81
  20   5  -2  590.86  169.21
  20  -5  -2  351.58  108.06
 -20   0   4   75.83   60.71
  21  -3  -1   -7.90   48.94
  21   3  -1   18.67   30.63
  18   6  -4   42.67   53.81
  18  -6  -4    5.36   48.48
  16  10  -1  668.65  187.70
  16 -10  -1  782.83  212.79
  18  -2   4  135.48   42.58
  18   2   4  322.17  105.55
  17  -8   2  321.55   92.71
  17   8   2  464.07  140.52
  19  -3   3  430.71  116.42
  19   3   3  371.24  109.69
  16  -9   2   95.51   86.41
  16   9   2  163.34   66.88
   4  14  -3   22.24   41.83
   4 -14  -3   44.45   48.96
  20  -4  -3   -1.89   49.37
  20   4  -3   84.56   85.73
  17  -2  -6   90.83   84.45
 -17  -2   6  -13.79   48.19
 -17   2   6   54.56   53.35
   6  13  -4  228.37   82.67
   6 -13  -4  448.17  133.60
  19   7  -1  123.35  160.87
  12  11  -4  152.15   67.88
  12 -11  -4   31.30   69.06
  16 -10   0  146.36   68.63
  16  10   0  -63.07   70.09
  20  -1  -4 1090.79  319.54
  20   1  -4 1408.07 1781.42
  15  10  -3  -12.51   47.06
  15 -10  -3 -113.91   46.77
  14   3   6   52.45   52.32
 -15   0   7   12.44   32.84
  15   0  -7  -25.59   52.33
   4  12   5  102.95   89.29
   4 -12   5   36.54   55.80
   3  -6   8   83.33   80.72
   3   6   8  163.22   72.28
   7   3   8  169.77   70.26
   7  -3   8  112.22  107.31
  16   8   3   65.70   78.85
  16  -8   3  -50.88   54.12
 -13  -5   7   76.54   72.03
  13  -5  -7  162.79   53.42
 -13   5   7  150.77   48.65
   8   0   8  234.64   81.09
  21  -1   1 -145.51   39.93
  12  10   4  -38.47   61.55
  12 -10   4   43.85   47.41
  -2   0   9   14.62   42.30
  12  -6  -7  288.97   97.74
 -12  -6   7   75.15   69.38
 -12   6   7  169.39   71.50
  18  -4  -5  -33.29   52.26
  18   4  -5  108.26   93.80
  -2 -11  -6   74.72   85.57
   2  11   6  -43.56   43.44
   8 -14   0  441.27  121.70
   8  14   0  380.58  115.86
   5   5   8  -22.34   72.70
   5  -5   8   90.02   88.65
  13  12  -1  330.99  109.24
   6 -14   2   54.93   53.05
   6  14   2  222.00   80.71
  13 -12   0  461.17  132.35
  13  12   0  719.25  200.75
   3 -14   3  -11.99   46.29
   3  14   3   -7.84   58.94
   6 -10   6  166.85   56.80
   6  10   6  -44.86   51.18
  20  -3   2   96.39   90.26
  20   3   2   61.38   56.03
  21  -3   0   18.65   29.20
  21   3   0  -10.53   43.20
  19   6  -3  -53.88   53.83
  19  -6  -3   53.77   52.24
  -3   0   9  -34.27   67.25
  -1   0   9  141.78   98.53
  18   8  -2  101.46   97.84
  18  -8  -2   74.03   83.99
  15  -1  -7  -31.61   56.61
 -15  -1   7    0.91   56.03
  15   1  -7   -6.23   48.70
 -15   1   7   -2.76   57.83
   8  12   4  -80.18   62.10
   8 -12   4   68.34   67.18
  17  -9  -2   78.69   89.52
  17   9  -2  229.67   74.10
  19   7   0   21.76   45.67
  15  -9   3  358.00  137.21
  11  -9  -6  152.52   63.44
  11   9  -6  105.60   93.60
   6  -9  -7  104.79   93.37
  -6  -9   7  -75.08   46.56
  -6   9   7  158.97   73.56
  13  -5   6  176.42   58.02
  13   5   6   -1.67   57.24
   7  14  -2  123.75  160.12
   7 -14  -2  218.39   65.06
   8   1   8   92.50   93.12
   8  -1   8   83.53   73.51
  -2   1   9  -35.83   68.09
   9 -13  -3  175.16   73.49
   9  13  -3  123.04  162.81
  -5 -11   6   39.07   40.38
   5 -11  -6   15.64   25.53
  -5  11   6   70.40   79.91
   8 -14  -1  124.96   43.47
   8  14  -1   60.70   77.05
   2  -7  -8   21.53   47.20
  -2  -7   8   64.60   59.40
  -2   7   8   57.50   61.44
 -19   0   5  -22.66   31.63
  12  10  -5   89.60   83.85
  12 -10  -5   -3.60   62.31
  11  13   0  217.73   79.60
  11 -13   0  153.53   61.94
  -9  -8   7   41.22   44.55
   9  -8  -7   65.78   68.86
  -9   8   7   -1.62   28.69
   3  -9   7  624.16  182.55
   3   9   7  663.64  195.12
  -3   1   9   29.83   48.40
  -3  -1   9   44.23   50.42
  17   5   4  505.45  148.04
  10  -8   6  -24.40   43.10
  10   8   6  -13.17   73.65
  -1   1   9   46.68   80.30
  -1  -1   9  -71.59   64.47
  16  -7  -5   22.39   58.03
  -1  -7   8   71.23   64.14
   1  -7  -8  -70.63   56.25
  -1   7   8  -41.20   54.20
  12   0   7   38.60   46.45
   9  -6   7  -67.36   69.68
 -10   4   8  104.37   94.29
 -10  -4   8  113.68  102.54
  10  -4  -8  177.06   78.11
  10  -5   7   -0.28   52.27
  10   5   7  106.91  110.91
  -7  -6   8  164.19   57.46
  -7   6   8  197.03   85.86
   7  -6  -8  273.18   95.60
  18   7   2  103.79   94.44
  18  -7   2  -21.69   57.78
   3 -15   0  119.84  111.92
   3  15   0   69.30   76.22
  11 -13  -1  202.28   87.90
  11  13  -1  347.13  103.69
  17   7   3   43.28   45.25
  17  -7   3   75.40   72.53
   3  -7  -8  -28.19   64.86
  -3  -7   8    3.01   26.33
  -4   0   9   51.74   50.76
  14  -7  -6  -10.17   50.43
  14   7  -6   63.81   61.89
   0   0   9  -13.53   61.95
  15  -6  -6   65.64   63.19
  15  10   2   61.29   67.35
  15 -10   2  -53.18   51.18
  15  -8  -5  -55.16   49.80
  15   8  -5   -1.43   63.67
  19  -1  -5   60.24   68.15
 -19   1   5  -13.56   31.30
 -19  -1   5   -6.88   60.91
  21   3  -2  -15.36   41.23
  21  -3  -2   44.90   40.33
  10 -12  -4   78.68   73.55
  20  -2  -4   63.53   72.30
  14 -10  -4  -82.59   47.37
  14  10  -4   34.03   53.22
   6   8   7   84.04   78.73
   6  -8   7   77.02   73.79
  -9 -10   6   52.33   50.03
   9 -10  -6   -6.11   28.13
   9  10  -6   15.02   27.81
   2  15   1   46.80   60.06
  12   1   7   -2.86   54.40
  12  -1   7   88.72   87.66
  10 -11  -5  263.25   96.15
  10  11  -5  301.86  102.71
 -14   4   7  320.94  101.97
 -14  -4   7  124.43  163.39
  14  -4  -7  149.48   55.65
   0  -7  -8  110.72  110.29
   0   7   8   81.52   90.34
   0  -7   8   50.50   60.22
   5 -14  -3   39.27   60.81
   5  14  -3   31.92   62.67
  -4  -1   9   89.44   85.34
  -4   1   9   11.43   41.89
  -9   5   8  -84.33   48.76
  -9  -5   8   13.90   30.37
   9  -5  -8   79.40   87.88
  21   2   1  171.27   48.39
  21  -2   1  169.62   64.85
   0  -1   9 -110.20   68.70
   0   1   9  -25.33   62.88
  11  -7  -7   26.32   52.64
 -11  -7   7  143.88   58.48
 -11   7   7  -51.44   52.85
  11  -3  -8   -4.21   59.52
 -11   3   8 -178.21   45.68
 -11  -3   8   52.35   56.72
  20  -5   1  109.17   96.48
  20   5   1  182.95   80.44
  19   7  -2  603.34  172.88
  19  -7  -2  413.22  117.81
  17   9   1  111.26   96.15
  17  -9   1  -13.39   59.05
   5 -13   4  764.48  216.79
   5  13   4  837.01  239.72
  15   2  -7  218.95   73.95
 -15   2   7  180.24   86.14
  15  -2  -7   75.35   83.98
  -4   7   8  208.46   77.85
  -4  -7   8   89.71   77.61
   4  -7  -8  369.59  128.19
  16  10  -2   34.30   83.30
  16 -10  -2  108.35   99.40
   7 -12  -5  181.88   75.64
   7  12  -5  -80.95   50.85
  18   3   4   43.96   66.78
  18  -3   4   65.70   60.69
  17  -6  -5  -39.20   51.07
  17   6  -5   50.67   52.66
  21   1  -3   85.77   76.52
  12   0  -8   35.69   55.45
 -12   0   8  190.38   65.75
   3 -11   6  -23.69   57.24
  -3 -11  -6   79.24   73.17
   3  11   6   81.73   77.89
   8   2   8   92.10   90.74
   3 -15  -1   72.91   68.92
   3  15  -1   57.51   53.04
  -2   2   9   54.75   73.36
  -2  -2   9  -82.38   69.34
   8 -13   3   88.04   77.82
  10 -10   5  119.49  111.60
  10  10   5  139.42   50.64
  18  -8   1  509.90  138.38
  18   8   1  655.74  188.27
  17  -3  -6  118.02  103.42
 -17  -3   6   45.42   48.02
 -17   3   6  249.98   75.39
  16   4   5   62.22   77.97
  16  -4   5   47.23   59.29
  -5   0   9   83.12   78.35
  -3  -2   9  162.55   58.85
  -3   2   9   73.59   65.77
   4  14   3   73.34   71.71
   4 -14   3  118.13  105.03
  -1   2   9   87.86   97.00
  -1  -2   9  213.15   76.55
   1   0   9    4.62   66.48
  12 -12   2  -23.50   69.38
  12  12   2  105.92   97.72
  15  11  -1  -49.91   49.79
  15 -11  -1   77.27   79.38
   8   7   7 -189.18   71.00
   8  -7   7  109.50   99.37
  11  -4   7  556.82  161.56
  11   4   7  427.67  147.18
  14  10   3   63.27   56.29
  14 -10   3   78.15   74.79
   8  14   1  188.71   65.65
   8 -14   1   43.53   46.31
   7  13  -4  425.82  127.74
   7 -13  -4  499.61  140.77
  12  -1  -8  151.60   46.82
  12   1  -8  129.24   70.33
 -12   1   8  -24.07   56.70
 -12  -1   8  117.07  107.17
   4  -6   8  360.08  106.78
   4   6   8  597.73  179.95
  13  -8  -6  299.49   93.33
  13   8  -6  352.28  111.16
   8  11   5  393.01  108.15
   8 -11   5  417.40  117.12
  19  -5  -4   19.23   61.32
  19   5  -4   74.98   67.38
  -1  -7  -8  178.37   78.39
   1   7   8   71.44   82.32
  15 -11   0   73.26   90.35
  15  11   0  185.03   58.91
 -16  -5   6 -116.12   54.71
  16  -5  -6   43.39   41.45
  16   5  -6  -91.42   63.20
   5 -12   5   -2.51   59.26
   5  12   5   -8.21   30.09
  -6  11   6   18.56   50.08
   6 -11  -6  -88.14   48.32
  -6 -11   6  -41.19   27.41
  14  -7   5  -46.09   62.58
  14   7   5  224.12  112.20
   4  15   0   99.82   86.36
   4 -15   0   61.39   61.25
   3  15   1  117.86  113.45
   3 -15   1   95.01   84.62
  12  12  -3  166.35   71.22
  12 -12  -3   25.30   69.60
  19  -2  -5    9.65   51.66
  19   2  -5  136.83   43.68
 -19  -2   5   30.91   49.82
  -5   1   9   86.59   84.20
  -5  -1   9  -74.53   64.36
  20  -6  -1  501.51  145.73
  20   6  -1  346.57  107.49
   1   1   9   62.97   61.65
   1  -1   9  -36.16   71.11
  21  -4  -1  408.51  119.52
  12  -2   7   61.42   57.69
  12   2   7  -28.33   26.99
  12  -2   7   59.57   54.02
  -7  -9   7  451.33  138.07
  -7   9   7  219.31   71.90
   7  -9  -7  377.07  122.89
  13  -8   5  132.67   51.13
  17   0   5  -13.99   56.15
  13  12  -2  -68.37   53.46
  16 -10   1 1008.67  281.92
  16  10   1  852.14  233.52
  -4   2   9   97.91  100.64
  -4  -2   9   88.44   80.72
  14  -9  -5  345.54  108.54
  14   9  -5  347.43  103.79
  19  -4   3  450.01  134.10
  13  12   1  230.14   66.51
  13 -12   1  290.18   87.43
   0   2   9  162.98   55.75
   0  -2   9   98.82   93.85
  -5  -7   8   70.98   65.77
  -5   7   8   73.89   68.14
  15   0   6  -46.77   59.47
  15   0   6   45.90   49.22
  -4  -9  -7  148.39   64.35
   4   9   7   82.36   91.33
   4  -9   7  104.96   89.18
  14  -4   6  101.94   95.32
  14   4   6  115.33  106.03
   7   4   8   -0.14   65.89
   7  -4   8   35.15   65.48
  11 -13   1 -105.14   67.10
  11  13   1   43.16   46.59
  17  -1   5  -16.58   63.29
  17   1   5  115.94  111.30
  17   1   5  -37.03   55.94
  10  13   2  145.80   57.79
  10 -13   2   74.05   75.31
  14 -11  -3  136.75   49.30
  14  11  -3   55.55   76.71
  21   2  -3    6.22   13.87
  21  -2  -3   30.94   56.66
  18   6   3  427.63  144.83
  15  -8   4  312.40   92.23
  15   8   4  307.77   98.08
  20  -6   0  -30.06   50.77
  20   6   0   -1.76   31.23
   7  14   2  433.91  137.38
   7 -14   2  437.68  125.17
   4 -15  -1   53.13   64.08
   4  15  -1  -56.67   45.28
  -8   6   8   81.33   86.65
  -8  -6   8  211.47   72.24
  15  -1   6  438.21  120.18
  15   1   6  353.10   97.82
  15   1   6  465.75  140.54
  20  -4   2  455.65  149.86
  20   4   2  439.84  138.19
  21  -4   0  -53.52   56.86
  21   4   0   52.64   66.27
   6  -5   8    6.47   48.43
   6   5   8   37.37   83.33
  19   6   2  487.47  155.97
  19  -6   2  501.60  139.86
  20  -3  -4  107.15   93.70
  20   3  -4   -4.49   52.84
   6  14  -3   63.79   77.14
   6 -14  -3   76.29   73.50
   9  -9   6  169.80   60.47
   9   9   6  277.85   98.74
  19   7   1  126.69   60.39
  15   6   5  -27.49   60.56
  15  -6   5  -25.23   35.70
  -6   0   9   38.44   43.99
  11 -13  -2  514.93  148.07
   8  14  -2  118.47  105.63
  12   2  -8  135.99   68.11
 -12  -2   8  156.14   58.90
 -12   2   8   76.77   79.14
  12  -2  -8  119.28  101.41
  21  -3   1   31.38   47.74
  21   3   1   10.70   25.83
   2   0   9  -82.23   70.79
   7  10   6  -64.08   57.66
   7 -10   6   87.18   91.21
  20   5  -3  457.25  133.15
  16   7   4  281.48  102.51
  16  -7   4  286.88   90.07
  14 -11   2  -84.81   65.45
  14  11   2  -31.48   34.81
   2   7   8   69.97   71.72
   2  -7   8   59.55   53.76
  -5   2   9  133.95   53.45
  -5  -2   9  216.56   86.15
   1   2   9   44.85   54.63
   1  -2   9   52.07   74.33
   9  14   0  456.32  131.44
   9 -14   0  404.37  120.93
  15  -3  -7   39.31   41.61
 -15   3   7  149.75   57.03
 -15  -3   7  176.92   59.79
  14  -9   4   68.57   61.73
  14   9   4  -15.40   69.15
  11 -11   4   -4.52   37.60
  11  11   4  -16.93   64.36
  -4 -11  -6   63.05   58.78
   4 -11   6   63.56   63.37
  -6   1   9  -30.69   61.06
  -6  -1   9  -24.39   55.56
   8   3   8   93.65  106.68
   8  -3   8  -28.12   43.46
  -2  -3   9  -63.31   68.26
  -2   3   9  -79.76   54.02
   4 -15   1   80.63   76.91
   4  15   1   23.98   62.87
   2   1   9  111.71  100.61
   2  -1   9   62.32   58.97
  18  -5  -5  367.70  129.61
  18   5  -5  473.13  142.53
  12   9   5  184.09   62.59
  12  -9   5  207.96   66.42
  10  -8  -7  157.50   76.63
 -10  -8   7    0.89   64.15
 -10   8   7   39.06   59.75
  11  12   3  384.92  104.40
  11 -12   3  462.52  136.69
   9  14  -1  -72.07   50.21
   9 -14  -1   60.60   58.37
  21  -4  -2   78.72   69.93
  21   4  -2   23.83   59.45
  20   6  -2   -9.12   47.28
  20  -6  -2   75.27   75.08
  -3   3   9   96.72   83.40
  -3  -3   9  -35.56   65.44
  -1  -3   9   82.52   75.94
  -1   3   9  -72.59   51.25
   5  14   3   79.77   95.29
   5 -14   3   36.58   62.15
   5 -15   0    5.03   48.71
   5  15   0   78.84   70.07
  15 -11  -2  110.87   96.05
  15  11  -2  -40.29   50.45
  17  -2   5    2.86   27.76
  17   2   5  -95.49   51.83
  17   2   5  -77.96   46.05
  10  13  -3  314.36  110.18
  10 -13  -3  272.93   92.98
   6 -13   4  428.60  116.71
  -6   7   8  274.57   93.14
   6  -7  -8  209.82   87.04
  -6  -7   8  217.27   68.56
   9 -12   4  -84.21   57.32
   9  12   4  -72.06   52.79
   8 -12  -5  103.03   79.18
   8  12  -5  112.18   81.27
  17  -8  -4   13.83   31.47
   2 -10  -7  457.57  133.33
  -2 -10   7  230.62   65.53
  -2  10   7  307.91   86.49
  -2 -10   7  219.42   76.92
   9   0   8  -41.27   54.22
   1 -10  -7  -22.11   48.89
  -1  10   7   73.30   69.67
  -1 -10   7  102.63   90.62
  -1 -10   7    6.08   20.56
 -11  -4   8  104.42   91.08
  11  -4  -8  -47.55   48.96
 -11   4   8   15.89   28.77
  15  -2   6   91.24   74.82
  15   2   6   72.37   76.79
  19  -3  -5  556.03  147.92
  19   3  -5  172.38   73.23
   7 -11  -6   89.76   88.21
  -7 -11   6   48.91   45.72
   7   8   7  234.49   83.78
   7  -8   7   98.24   76.39
  12  -3   7   90.34   67.04
  12   3   7 -146.37   50.88
 -10  -5   8   71.29   64.50
  10  -5  -8    4.40   54.57
 -10   5   8   88.93   81.83
  10 -10  -6   19.07   66.76
  10  10  -6  103.54   87.08
  18  -8  -3  128.87  108.36
  18   8  -3   62.31   75.66
  18  -4   4   63.91   60.74
  18   4   4   40.09   84.58
  12  -9  -6   63.63   52.28
  12   9  -6  -14.99   54.49
 -13   6   7    0.73   19.46
  13  -6  -7   -0.27   44.91
  -4   3   9   35.38   74.54
  -4  -3   9  124.19   93.67
   4  -3  -9 -109.88   53.73
  20  -1   3  -91.11   52.45
   0   3   9  100.91   74.47
   0  -3   9   13.05   26.76
  17  -9  -3  896.41  234.22
  17   9  -3  830.11  222.22
  13  11  -4   80.14   63.36
  13 -11  -4  123.37  107.65
   3 -10  -7  129.86  103.76
  -3  10   7  147.30   72.24
  -3 -10   7  105.25   77.04
  12  -7   6  735.83  188.90
  12   7   6  703.44  194.03
   9   1   8  397.28  115.88
   9  -1   8  234.90   89.70
   5   6   8  151.50   53.48
   5  -6   8  -18.94   45.46
 -17  -4   6  -15.93   69.30
  17  -4  -6   38.50   52.13
 -18   0   6  -39.03   63.40
   0 -10   7  -30.96   44.72
   0  10   7  -37.18   44.42
   0 -10   7   -2.06   48.94
   0 -10  -7  -51.35   54.29
  15 -11   1  -38.95   59.73
  15  11   1  -25.75   28.97
   8 -13  -4  342.19   94.89
   8  13  -4  349.20   90.15
   5 -15  -1   79.60   59.93
   5  15  -1   41.98   68.04
  13 -11   3  429.53  110.60
  13  11   3  463.07  130.34
   2  15   2   58.05   54.04
  -8  -9   7  -16.36   58.11
  -8   9   7  117.06   94.01
  18   7  -4  548.38  160.93
  16  -9  -4  -67.41   57.36
  16   9  -4    1.06   59.57
   1 -13  -5  -58.36   46.37
  -1  13   5  115.75   98.80
 -14   5   7  295.60   87.27
  14  -5  -7  358.62  114.79
 -14  -5   7  378.03  104.25
   3 -15  -2  -11.24   26.70
   6 -12   5 -177.79   56.51
  13  -6   6   48.31   43.07
  13   6   6  -72.99   71.02
  -6  -2   9   69.94   53.71
  -6   2   9  -11.64   56.70
   6  -2  -9  188.70   77.46
  21  -3  -3  235.94   66.80
  21   3  -3  320.39   85.40
  -2  13   5   80.85   59.29
   2 -13  -5   63.55   50.57
  11  12  -4   92.49   76.10
  11 -12  -4   43.68   63.84
  11  11  -5  457.59  140.53
   2  -2   9  118.86  103.71
   0  13   5   90.24   65.82
   0 -13  -5   60.49   52.40
  18  -1  -6  137.01   46.66
 -18   1   6   79.61   61.68
 -18  -1   6   90.96   72.77
  -7   0   9  -53.16   45.52
  17   6   4    1.05   57.73
  17  -6   4  106.31   86.62
   5  -9   7  432.42  133.88
   5   9   7  359.72   97.36
   3   0   9   57.56   79.63
  10  -6   7  205.51   59.27
  10   6   7  190.84   76.73
  13  10  -5    0.08   58.10
  13 -10  -5  118.45   98.69
   3   7   8   35.29   75.59
   3  -7   8   59.87   50.79
  12 -13   0   42.90   91.57
  12  13   0  -13.80   54.92
 -12   3   8   82.79   60.36
 -12  -3   8   -1.24   62.49
  -4  10   7  237.62   84.43
   4 -10  -7  291.86   96.05
  -4 -10   7  178.81   61.08
  12 -13  -1   59.33   81.08
  12  13  -1  146.17   88.32
  12  -7  -7   35.55   55.65
 -12   7   7  -10.62   47.00
 -12  -7   7   54.50   55.76
  18  -9  -1   96.35   74.43
  18   9  -1   84.70   69.75
   9 -13   3   75.03   62.23
   9  13   3   25.02   46.91
  -7  -1   9  194.64   62.32
  -7   1   9   67.91   52.50
   7  -1  -9   94.64   88.14
  13 -10   4  180.50   55.37
  13  10   4   96.45   75.03
  11  -8   6   74.06   90.12
  11   8   6   94.20   87.80
   1 -14  -4   56.98   60.23
  16  -5   5  473.71  131.38
  16   5   5  495.59  143.92
  -3 -13   5   65.41   51.53
   1  10   7  -97.13   47.38
  -1 -10  -7  -35.90   51.74
   5  -3  -9   73.92   61.52
  -5   3   9   88.72   83.75
  14  12  -1  403.64  111.28
  14 -12  -1  240.84   68.76
   9  14   1  150.32   48.90
   9 -14   1   80.57   73.53
 -16   0   7    6.09   25.26
  16   0  -7  -77.79   51.43
  19   7  -3  134.36  115.73
  19  -7  -3  -26.46   52.24
   7 -14  -3   29.31   63.75
   7  14  -3  184.30   76.85
   3   1   9  -17.44   65.17
   3  -1   9   -9.67   55.30
   1   3   9   20.50   44.31
   1  -3   9  -95.06   51.18
  11   5   7  129.42   97.68
  11  -5   7  245.28   85.33
   0  14   4   41.61   56.82
   5 -15   1   14.92   56.38
   5  15   1   63.38   74.87
  14 -12   0  327.88   97.62
  14  12   0  132.65  101.78
  -1 -13  -5   36.87   63.51
   1  13   5   53.98   53.08
   1 -13   5   29.36   43.01
   2 -14  -4   84.17   64.53
  -9   6   8  407.58  121.16
   9  -6  -8  159.30   74.19
  20  -2   3   16.92   35.32
  20   2   3   64.59   49.15
  19   0   4  405.75  114.31
   9  -2   8   15.65   51.69
   9   2   8   79.57   58.93
  19   8  -1 -100.40   64.19
  19  -8  -1    5.14   34.45
  18  -9   0  156.10   73.77
  18   9   0   39.68   58.60
  16  10  -3   84.62   80.07
  16 -10  -3   92.79   73.85
  20   6   1  283.63   99.12
  20  -6   1  185.54   71.36
  16  -1  -7  -44.61   54.99
 -16   1   7  -93.07   61.50
 -16  -1   7   88.69   66.53
  16   1  -7   33.73   45.02
   3  15   2  246.67   74.08
   9  11   5  422.14  120.07
   9 -11   5  681.69  205.06
  13   0  -8   54.45   67.03
   5  11   6   -6.27   67.95
   5 -11   6   -2.26   47.06
  20   4  -4  -90.85   49.30
  20  -4  -4   -6.32   55.82
  21   5  -1   57.83   49.57
  21  -5  -1  106.94   82.94
   9   7   7   99.73   82.98
   9  -7   7  -66.20   68.85
  -7  -7   8  -16.62   67.79
   7  -7  -8   12.62   64.21
  -7   7   8   25.75   60.87
  22   2  -1  239.49   87.52
  17  -3   5  191.85   55.89
  17   3   5  281.36  106.48
   4 -15  -2  104.75   84.04
   4  15  -2  169.98   74.01
  17 -10  -1  567.47  154.51
  17  10  -1  588.69  167.84
  19   5   3  187.69   68.12
  19  -5   3  159.58   57.83
  21   4   1  375.90  114.15
  21  -4   1  521.74  149.89
   8 -14   2  141.42   69.01
   8  14   2  360.92  115.43
  19  -1   4   24.35   46.55
  15   7  -6   21.40   68.02
  15  -7  -6  392.35  106.90
   1  14   4   21.02   32.64
   6 -15   0   87.99   80.09
   6  15   0  166.71   59.77
 -18  -2   6  102.12   76.88
  18  -2  -6  113.16   87.65
 -18   2   6  115.93   85.11
  15   3   6  -20.75   60.21
  15  -3   6 -114.13   52.31
  15   3   6    4.44   22.99
   3 -14  -4  -50.66   45.84
  13  -1  -8  -55.09   50.11
 -13  -1   8  132.38   97.47
  13   1  -8   47.50   36.80
 -13   1   8  -88.23   54.83
  14  -5   6  143.79   45.52
  14   5   6  -55.97   59.16
 -15   4   7   79.72   62.87
  15  -4  -7   81.32   59.46
 -15  -4   7   97.42   71.07
  13   0   7   -1.33   49.88
  13   0   7   31.07   53.01
  11 -10   5    5.09   25.92
  11  10   5   88.93   86.54
  19  -8   0   85.87   91.80
  19   8   0  183.60   62.65
   7  -5   8  129.59   91.52
   4 -13  -5    3.85   50.34
   4  13  -5   25.70   38.59
   6  14   3   47.77   42.95
  17   9   2   54.56   48.06
  17  -9   2  -52.82   59.93
  -5  10   7  344.91  123.12
   5 -10  -7  417.85  120.10
  -5 -10   7  374.32  131.25
   9  14  -2  405.81  107.70
   9 -14  -2  251.59   85.95
  17 -10   0   32.66   82.78
  17  10   0   -4.42   70.04
   8   4   8  182.76  105.90
   8  -4   8   24.82   58.86
  -2   4   9    8.85   26.96
  -2  -4   9  -78.83   57.20
  19  -6  -4   82.33   62.16
  19   6  -4   54.37   42.50
  15 -10  -4 -282.97   48.62
  15  10  -4  -46.48   50.98
  16   6  -6  415.35  125.88
  16  -6  -6  315.27   88.55
  21  -2   2  114.83   83.65
   2  -8  -8  149.90   74.29
  -2   8   8  135.65   41.60
  -2  -8   8  154.71   51.97
  -7   2   9  425.88  114.28
   7  -2  -9  644.46  174.76
  -7  -2   9  601.76  164.70
  20   5   2   38.66   63.79
  20  -5   2   52.32   40.89
   2 -10   7  202.48   82.95
  21   5   0   99.64   77.91
  21  -5   0   92.19   70.74
   2 -13   5   58.36   49.55
   2  13   5  -48.37   61.82
  -3   4   9  212.52   93.31
   3  -4  -9  309.65  103.43
  -3  -4   9  206.47   70.09
   8 -11  -6  179.11   78.85
   8  11  -6   68.18   61.26
  -8 -11   6  -10.08   54.73
  -1   4   9  265.00   97.14
  -1  -4   9  298.31   86.86
  16  -8  -5   57.63   66.52
  16   8  -5   29.89   70.24
  -1   8   8   87.69   89.54
  -1  -8   8  138.74   62.59
   1  -8  -8  311.65  104.04
   3   2   9  398.17  105.37
   3  -2   9  589.77  163.80
  13  -1   7   10.07   35.17
  13  -1   7   98.66   71.16
  18  -8   2   33.67   53.40
  18   8   2  244.14   93.44
   6  15  -1   22.80   59.57
   6 -15  -1   35.21   64.10
  16  -9   3  777.22  212.48
  16   9   3  608.01  187.27
  17   7  -5  -51.07   55.51
  17  -7  -5  121.58  107.76
  17  -8   3  -40.47   50.37
  17   8   3  -81.09   69.61
   6  -3  -9  101.49   86.35
  -6   3   9   25.54   59.79
  -6  -3   9 -126.50   63.33
  -3  -8   8    3.82   32.84
  -3   8   8  100.25   87.34
   3  -8  -8  157.19   75.45
   8 -10   6   28.37   51.60
   8  10   6   22.69   42.51
  14   8  -6  177.19   71.15
  14  -8  -6  203.94   82.25
   2  -3   9  154.56   73.59
   2   3   9  124.89  112.59
  13  12  -3 -106.30   50.01
   7 -13   4  542.09  148.37
   7  13   4  749.92  217.17
  19   4  -5  127.59   92.80
  19  -4  -5  109.68   85.35
   9  12  -5  122.22   87.17
   9 -12  -5   91.64   69.50
  16  -2  -7  420.83  134.21
 -16  -2   7  283.83   84.16
 -16   2   7  277.59   78.01
  13  12   2  526.03  146.79
  13 -12   2  490.81  150.64
   2  14   4  178.36   76.24
  -1  12   6  -29.42   58.17
  18   9  -2  149.48   47.58
  18  -9  -2   92.04   73.29
  12   4   7   12.63   29.56
  12  -4   7  193.47   74.91
  11  13   2  155.32   63.44
  11 -13   2  231.79   71.75
   2 -12  -6   26.10   44.93
  -2 -12   6  125.66   95.44
  -2  12   6  194.60   87.59
  -8   0   9  -25.02   62.80
   0  -8  -8   76.31   65.70
   0   8   8  184.00   70.56
   0  -8   8  237.72   65.51
   4  -7   8   54.60   62.74
   4   7   8  266.90  101.26
  -4   4   9   61.38   70.35
   4  -4  -9  244.34   81.81
  -4  -4   9  121.63   93.85
  10 -14   0  231.87   66.38
  10  14   0  341.13   98.78
  16 -10   2   -7.98   38.54
  16  10   2   95.50   71.92
   4   0   9   99.74   92.58
   0  -4   9  104.68   82.40
   0   4   9   69.75   68.95
  19   2   4  177.32   61.03
  19  -2   4  299.84  104.38
   4  14  -4   58.87   64.55
   4 -14  -4   38.04   65.77
  11  -8  -7   86.68   62.15
  22   2  -2   82.77   74.41
  12  13   1  111.71   82.08
  12 -13   1    6.31   67.21
  21   5  -2  658.94  178.94
  21  -5  -2  793.42  209.49
   4  15   2   35.21   54.21
   4 -15   2  116.36   99.16
   0  12   6   58.77   53.79
   0 -12   6  112.65   81.56
   0 -12  -6   33.14   63.58
  20  -7  -1 -106.39   50.93
  20   7  -1  -22.52   56.08
  -9   9   7  183.73   71.26
  -9  -9   7  206.39   63.66
   9  -9  -7  123.09  108.04
   6   6   8  253.21   74.93
  10   9   6    9.19   47.13
  19  -8  -2   68.04   63.30
  19   8  -2  -11.03   59.50
 -13   2   8    9.83   36.17
 -13  -2   8   49.18   46.70
  13  -2  -8   99.33   78.87
  13   2  -8  167.86   71.02
  10  14  -1  146.03   46.89
  10 -14  -1  -53.90   52.07
  -4  -8   8  245.91   91.07
   4  -8  -8   87.65   70.45
  -4   8   8  114.26   83.25
  -8   1   9  -26.51   53.70
   8  -1  -9  -36.70   63.10
  -8  -1   9  136.29   56.52
  14  12  -2  121.55   97.56
  14 -12  -2   48.78   49.33
  12  13  -2  338.26  103.60
  12 -13  -2  384.42  103.04
   5 -15  -2  190.60   72.31
   5  15  -2   75.48   70.09
   3 -12  -6   26.15   44.39
  -3  12   6  -30.75   49.74
  -3 -12   6   52.78   49.00
  21  -4  -3  -22.15   53.02
  21   4  -3    8.49   35.58
   9  13  -4  118.87   86.20
   9 -13  -4  100.91   78.15
  20  -3   3  419.06  111.20
  20   3   3  453.28  130.46
  21   1  -4  668.04  185.01
   4  -1   9  -29.16   51.59
   4   1   9   41.22   59.51
   5  13  -5  126.09  114.98
   5 -13  -5   39.46   59.87
   9   3   8   27.04   68.31
   9  -3   8   57.72   46.26
  20   6  -3   98.83   88.60
  20  -6  -3   74.41   59.55
  15   9  -5   94.94   77.01
  15  -9  -5  350.70  115.07
 -11   5   8    2.76   27.69
  11  -5  -8   84.10   76.46
 -11  -5   8   37.86   59.89
   6  15   1   18.31   69.51
   6 -15   1  -40.13   50.19
   7 -12   5   85.24   73.77
   7  12   5  -22.33   72.77
   6  -9   7 -166.34   64.54
   6   9   7  -40.46   67.35
  11 -13  -3   54.33   51.31
  11  13  -3    6.82   55.34
  13   2   7  169.86   52.91
   8   8   7  101.21   72.78
   8  -8   7   19.23   45.63
  17  10  -2   62.76   54.69
  17 -10  -2  219.74   68.53
  14  12   1  135.87   54.33
  14 -12   1  366.20  113.46
  15  10   3  237.77   97.94
  15 -10   3  230.24   64.46
  22   3  -1   63.01   65.28
  22  -3  -1   -7.43   23.36
  16 -11  -1  -79.57   53.55
  16  11  -1   88.72   81.83
  11  10  -6   24.28   59.72
   6 -10  -7  726.11  195.88
  -6  10   7  602.11  166.14
  18   5   4  510.04  152.59
  18  -5   4  704.88  180.86
  18  -7   3  166.21   60.58
  18   7   3  -41.70   59.06
   3  13   5  149.67   55.10
  20   7   0   -6.88   55.02
  18   6  -5   13.34   34.86
   1   8   8  152.35   70.70
   1  -8   8   61.10   47.58
  -1  -8  -8   -6.93   47.19
  17   5  -6  393.16  104.27
  -1 -12  -6  123.98  100.15
   1  12   6  233.01   85.74
  14  -8   5  -57.57   61.88
  14   8   5  -46.48   66.61
   8  14  -3  -67.20   47.15
  10 -12   4  154.13   59.10
  -3 -10  -7  127.13  105.03
   3 -10   7  205.02   65.26
  16  11   0   -1.07   50.07
  15  11  -3  574.91  164.49
;
#END Tags that were not found in dictionaries
loop_
_symmetry_equiv_pos_as_xyz
'x, y, z'
'-x, y+1/2, -z+1/2'
'-x, -y, -z'
'x, -y-1/2, z-1/2'
loop_
_atom_site_label
_atom_site_type_symbol
_atom_site_fract_x
_atom_site_fract_y
_atom_site_fract_z
_atom_site_U_iso_or_equiv
_atom_site_adp_type
_atom_site_occupancy
_atom_site_calc_flag
Sn1 Sn 0.50281(2) 0.32145(4) 0.19648(6) 0.03298(15) Uani 1 d
Cl1 Cl 0.97556(10) 0.33470(13) 0.5736(2) 0.0433(4) Uani 1 d
S1 S 0.40674(8) 0.28217(13) 0.4616(2) 0.0288(4) Uani 1 d
S2 S 0.55376(10) 0.12347(14) 0.2100(3) 0.0431(5) Uani 1 d
O1 O -0.0496(3) -0.0978(4) 0.2973(7) 0.0457(12) Uani 1 d
N1 N 0.1309(3) 0.0018(5) 0.2143(8) 0.0423(15) Uani 1 d
N2 N 0.8957(3) 0.1064(5) 0.4469(8) 0.0391(14) Uani 1 d
C1 C 0.3276(3) 0.1911(5) 0.3931(8) 0.0261(13) Uani 1 d
C2 C 0.3363(3) 0.0851(5) 0.3260(8) 0.0297(14) Uani 1 d
H2 H 0.3857 0.0557 0.3222 0.036 Uiso 1 calc
C3 C 0.2720(4) 0.0235(5) 0.2652(9) 0.0334(15) Uani 1 d
H3 H 0.2784 -0.0469 0.2191 0.04 Uiso 1 calc
C4 C 0.1977(4) 0.0658(5) 0.2720(8) 0.0316(15) Uani 1 d
C5 C 0.1888(4) 0.1716(5) 0.3437(9) 0.0325(15) Uani 1 d
H5 H 0.1395 0.2003 0.3518 0.039 Uiso 1 calc
C6 C 0.2529(3) 0.2325(5) 0.4015(8) 0.0322(15) Uani 1 d
H6 H 0.2466 0.303 0.4474 0.039 Uiso 1 calc
C7 C 0.6555(3) 0.1268(5) 0.2749(8) 0.0253(13) Uani 1 d
C8 C 0.6916(3) 0.2079(5) 0.3888(8) 0.0306(15) Uani 1 d
H8 H 0.6624 0.2656 0.4296 0.037 Uiso 1 calc
C9 C 0.7705(3) 0.2032(5) 0.4415(8) 0.0318(15) Uani 1 d
H9 H 0.7945 0.2574 0.5172 0.038 Uiso 1 calc
C10 C 0.8130(3) 0.1165(5) 0.3798(8) 0.0278(14) Uani 1 d
C11 C 0.7790(4) 0.0370(5) 0.2649(9) 0.0361(16) Uani 1 d
H11 H 0.8084 -0.0203 0.2233 0.043 Uiso 1 calc
C12 C 0.7005(4) 0.0433(5) 0.2120(8) 0.0333(15) Uani 1 d
H12 H 0.6774 -0.0097 0.1324 0.04 Uiso 1 calc
H2A H 0.927(3) 0.062(3) 0.375(7) 0.06(2) Uiso 1 d
H2B H 0.917(3) 0.179(2) 0.467(8) 0.07(3) Uiso 1 d
H2C H 0.893(3) 0.068(4) 0.565(4) 0.05(2) Uiso 1 d
H13 H -0.048(5) -0.167(3) 0.353(9) 0.09(3) Uiso 1 d
H14 H -0.039(5) -0.106(6) 0.174(4) 0.09(3) Uiso 1 d
H15 H 0.141(3) -0.048(4) 0.120(6) 0.06(2) Uiso 1 d
H16 H 0.088(2) 0.046(4) 0.175(7) 0.027(17) Uiso 1 d
loop_
_atom_site_aniso_label
_atom_site_aniso_U_11
_atom_site_aniso_U_22
_atom_site_aniso_U_33
_atom_site_aniso_U_23
_atom_site_aniso_U_13
_atom_site_aniso_U_12
Sn1 0.0275(3) 0.0335(3) 0.0377(3) 0.0005(2) 0.00152(19) -0.0033(2)
Cl1 0.0449(10) 0.0433(10) 0.0416(11) 0.0021(8) 0.0033(8) -0.0033(9)
S1 0.0260(8) 0.0342(9) 0.0255(9) -0.0017(6) -0.0011(7) -0.0020(7)
S2 0.0245(9) 0.0343(10) 0.0693(14) 0.0005(9) -0.0012(9) 0.0018(8)
O1 0.046(3) 0.045(3) 0.047(4) -0.002(2) 0.008(3) 0.014(3)
N1 0.036(4) 0.053(4) 0.036(4) 0.008(3) -0.010(3) -0.009(3)
N2 0.028(3) 0.043(4) 0.045(4) -0.001(3) -0.006(3) 0.006(3)
C1 0.020(3) 0.036(4) 0.021(3) 0.001(3) -0.005(2) -0.004(3)
C2 0.027(3) 0.028(3) 0.035(4) 0.001(3) 0.008(3) 0.000(3)
C3 0.033(4) 0.034(4) 0.033(4) 0.000(3) 0.001(3) 0.000(3)
C4 0.036(4) 0.034(4) 0.024(4) 0.007(3) -0.001(3) -0.004(3)
C5 0.022(3) 0.043(4) 0.032(4) 0.008(3) 0.001(3) 0.000(3)
C6 0.030(3) 0.033(4) 0.035(4) 0.008(3) 0.007(3) 0.003(3)
C7 0.023(3) 0.027(3) 0.025(3) 0.006(3) 0.000(3) 0.003(3)
C8 0.033(4) 0.033(4) 0.025(4) -0.006(3) 0.001(3) 0.008(3)
C9 0.032(4) 0.033(4) 0.028(4) -0.003(3) -0.008(3) -0.003(3)
C10 0.022(3) 0.039(4) 0.021(3) 0.008(3) -0.001(3) 0.006(3)
C11 0.031(4) 0.032(4) 0.045(4) -0.002(3) 0.000(3) 0.005(3)
C12 0.034(4) 0.036(4) 0.029(4) -0.006(3) 0.001(3) -0.003(3)
loop_
_atom_type_symbol
_atom_type_description
_atom_type_scat_dispersion_real
_atom_type_scat_dispersion_imag
_atom_type_scat_source
C C 0.0033 0.0016 'International Tables Vol C Tables 4.2.6.8 and 6.1.1.4'
H H 0 0 'International Tables Vol C Tables 4.2.6.8 and 6.1.1.4'
Cl Cl 0.1484 0.1585 'International Tables Vol C Tables 4.2.6.8 and 6.1.1.4'
N N 0.0061 0.0033 'International Tables Vol C Tables 4.2.6.8 and 6.1.1.4'
S S 0.1246 0.1234 'International Tables Vol C Tables 4.2.6.8 and 6.1.1.4'
Sn Sn -0.6537 1.4246 'International Tables Vol C Tables 4.2.6.8 and 6.1.1.4'
O O 0.0106 0.006 'International Tables Vol C Tables 4.2.6.8 and 6.1.1.4'
loop_
_geom_angle_atom_site_label_1
_geom_angle_atom_site_label_2
_geom_angle_atom_site_label_3
_geom_angle
_geom_angle_site_symmetry_1
_geom_angle_site_symmetry_3
S2 Sn1 S1 76.49(7) . 4_565
S2 Sn1 S1 92.28(6) . .
S1 Sn1 S1 88.93(7) 4_565 .
C1 S1 Sn1 108.0(2) . 4_566
C1 S1 Sn1 114.7(2) . .
Sn1 S1 Sn1 98.80(8) 4_566 .
C7 S2 Sn1 108.5(2) . .
H13 O1 H14 109(4) . .
C4 N1 H15 111(4) . .
C4 N1 H16 112(3) . .
H15 N1 H16 111(4) . .
C10 N2 H2A 117(4) . .
C10 N2 H2B 109(4) . .
H2A N2 H2B 112(4) . .
C10 N2 H2C 102(4) . .
H2A N2 H2C 106(3) . .
H2B N2 H2C 111(4) . .
C2 C1 C6 118.9(5) . .
C2 C1 S1 124.2(4) . .
C6 C1 S1 116.9(5) . .
C3 C2 C1 120.2(6) . .
C3 C2 H2 119.9 . .
C1 C2 H2 119.9 . .
C2 C3 C4 120.7(6) . .
C2 C3 H3 119.7 . .
C4 C3 H3 119.7 . .
C3 C4 C5 119.1(6) . .
C3 C4 N1 121.1(6) . .
C5 C4 N1 119.7(6) . .
C6 C5 C4 119.7(6) . .
C6 C5 H5 120.1 . .
C4 C5 H5 120.1 . .
C5 C6 C1 121.4(6) . .
C5 C6 H6 119.3 . .
C1 C6 H6 119.3 . .
C12 C7 C8 118.6(5) . .
C12 C7 S2 118.0(5) . .
C8 C7 S2 123.4(4) . .
C9 C8 C7 120.7(5) . .
C9 C8 H8 119.7 . .
C7 C8 H8 119.7 . .
C10 C9 C8 118.9(6) . .
C10 C9 H9 120.5 . .
C8 C9 H9 120.5 . .
C11 C10 C9 121.4(6) . .
C11 C10 N2 119.3(5) . .
C9 C10 N2 119.2(6) . .
C10 C11 C12 119.0(6) . .
C10 C11 H11 120.5 . .
C12 C11 H11 120.5 . .
C7 C12 C11 121.3(6) . .
C7 C12 H12 119.3 . .
C11 C12 H12 119.3 . .
loop_
_geom_bond_atom_site_label_1
_geom_bond_atom_site_label_2
_geom_bond_distance
_geom_bond_site_symmetry_2
Sn1 S2 2.563(2) .
Sn1 S1 2.594(2) 4_565
Sn1 S1 2.702(2) .
S1 C1 1.797(6) .
S1 Sn1 2.594(2) 4_566
S2 C7 1.782(6) .
O1 H13 0.94(2) .
O1 H14 0.94(2) .
N1 C4 1.424(8) .
N1 H15 0.946(19) .
N1 H16 0.942(19) .
N2 C10 1.474(7) .
N2 H2A 0.959(19) .
N2 H2B 0.962(19) .
N2 H2C 0.979(19) .
C1 C2 1.390(8) .
C1 C6 1.395(7) .
C2 C3 1.381(8) .
C2 H2 0.93 .
C3 C4 1.391(8) .
C3 H3 0.93 .
C4 C5 1.402(8) .
C5 C6 1.367(8) .
C5 H5 0.93 .
C6 H6 0.93 .
C7 C12 1.384(8) .
C7 C8 1.395(8) .
C8 C9 1.385(8) .
C8 H8 0.93 .
C9 C10 1.384(8) .
C9 H9 0.93 .
C10 C11 1.373(8) .
C11 C12 1.380(8) .
C11 H11 0.93 .
C12 H12 0.93 .
loop_
_geom_hbond_atom_site_label_D
_geom_hbond_atom_site_label_H
_geom_hbond_atom_site_label_A
_geom_hbond_distance_DH
_geom_hbond_distance_HA
_geom_hbond_distance_DA
_geom_hbond_angle_DHA
_geom_hbond_site_symmetry_A
C11 H11 O1 0.93 2.64 3.380(8) 136.9 1_655
C12 H12 S1 0.93 2.97 3.831(7) 155.1 2_645
N2 H2A Cl1 0.959(19) 2.72(5) 3.236(6) 114(4) 4_565
N2 H2A O1 0.959(19) 2.07(3) 2.905(7) 145(4) 1_655
N2 H2B Cl1 0.962(19) 2.25(2) 3.197(6) 168(5) .
N2 H2C N1 0.979(19) 1.89(2) 2.863(8) 170(5) 3_656
O1 H13 Cl1 0.94(2) 2.42(5) 3.255(5) 147(6) 3_656
O1 H14 Cl1 0.94(2) 2.31(4) 3.195(6) 158(7) 2_645
N1 H15 Cl1 0.946(19) 2.75(6) 3.342(6) 121(4) 2_645
N1 H16 Cl1 0.942(19) 2.48(2) 3.424(7) 180(5) 4_465
loop_
_geom_torsion_atom_site_label_1
_geom_torsion_atom_site_label_2
_geom_torsion_atom_site_label_3
_geom_torsion_atom_site_label_4
_geom_torsion
_geom_torsion_site_symmetry_1
Sn1 S1 C1 C2 -52.6(5) 4_566
Sn1 S1 C1 C2 56.5(6) .
Sn1 S1 C1 C6 130.2(4) 4_566
Sn1 S1 C1 C6 -120.7(4) .
C6 C1 C2 C3 1.4(9) .
S1 C1 C2 C3 -175.7(5) .
C1 C2 C3 C4 -0.8(9) .
C2 C3 C4 C5 -0.7(9) .
C2 C3 C4 N1 -178.3(6) .
C3 C4 C5 C6 1.5(9) .
N1 C4 C5 C6 179.1(6) .
C4 C5 C6 C1 -0.8(9) .
C2 C1 C6 C5 -0.6(9) .
S1 C1 C6 C5 176.7(5) .
Sn1 S2 C7 C12 -150.8(4) .
Sn1 S2 C7 C8 30.6(5) .
C12 C7 C8 C9 -1.7(9) .
S2 C7 C8 C9 176.9(5) .
C7 C8 C9 C10 -0.2(9) .
C8 C9 C10 C11 1.4(9) .
C8 C9 C10 N2 -175.3(5) .
C9 C10 C11 C12 -0.8(9) .
N2 C10 C11 C12 176.0(5) .
C8 C7 C12 C11 2.3(9) .
S2 C7 C12 C11 -176.4(5) .
C10 C11 C12 C7 -1.1(9) .
