#------------------------------------------------------------------------------
#$Date: 2016-02-18 17:37:37 +0200 (Thu, 18 Feb 2016) $
#$Revision: 176729 $
#$URL: svn://www.crystallography.net/cod/cif/1/51/82/1518262.cif $
#------------------------------------------------------------------------------
#
# This file is available in the Crystallography Open Database (COD),
# http://www.crystallography.net/
#
# All data on this site have been placed in the public domain by the
# contributors.
#
data_1518262
loop_
_publ_author_name
'Feng, Chao'
'Feng, Daming'
'Luo, Yang'
'Loh, Teck-Peng'
_publ_section_title
;
 Rhodium(III)-catalyzed olefinic C-H alkynylation of acrylamides using
 tosyl-imide as directing group.
;
_journal_issue                   22
_journal_name_full               'Organic letters'
_journal_page_first              5956
_journal_page_last               5959
_journal_paper_doi               10.1021/ol502984g
_journal_volume                  16
_journal_year                    2014
_chemical_formula_sum            'C28 H37 N O4 S Si'
_chemical_formula_weight         511.73
_space_group_crystal_system      triclinic
_space_group_IT_number           2
_space_group_name_Hall           '-P 1'
_space_group_name_H-M_alt        'P -1'
_symmetry_space_group_name_Hall  '-P 1'
_symmetry_space_group_name_H-M   'P -1'
_atom_sites_solution_hydrogens   geom
_cell_angle_alpha                89.551(4)
_cell_angle_beta                 83.782(4)
_cell_angle_gamma                84.105(4)
_cell_formula_units_Z            2
_cell_length_a                   8.0860(12)
_cell_length_b                   8.8985(14)
_cell_length_c                   20.084(3)
_cell_measurement_reflns_used    7614
_cell_measurement_temperature    103.(2)
_cell_measurement_theta_max      25.3648
_cell_measurement_theta_min      2.3009
_cell_volume                     1429.0(4)
_computing_cell_refinement       'SAINT V8.32B (Bruker AXS Inc., 2013)'
_computing_data_collection       'Bruker APEX2'
_computing_data_reduction        'SAINT V8.32B (Bruker AXS Inc., 2013)'
_computing_molecular_graphics    'Bruker SHELXTL'
_computing_publication_material  'Bruker SHELXTL'
_computing_structure_refinement  'SHELXL-2013 (Sheldrick, 2013)'
_computing_structure_solution    'SHELXS-97 (Sheldrick 2008)'
_diffrn_ambient_temperature      103.(2)
_diffrn_detector_area_resol_mean 8.3333
_diffrn_measured_fraction_theta_full 0.989
_diffrn_measured_fraction_theta_max 0.989
_diffrn_measurement_device_type  'Bruker APEX-II CCD'
_diffrn_measurement_method       '\f and \w scans'
_diffrn_radiation_monochromator  graphite
_diffrn_radiation_type           MoK\a
_diffrn_radiation_wavelength     0.71073
_diffrn_reflns_av_R_equivalents  0.0467
_diffrn_reflns_limit_h_max       10
_diffrn_reflns_limit_h_min       -10
_diffrn_reflns_limit_k_max       11
_diffrn_reflns_limit_k_min       -11
_diffrn_reflns_limit_l_max       26
_diffrn_reflns_limit_l_min       0
_diffrn_reflns_number            7017
_diffrn_reflns_theta_full        28.09
_diffrn_reflns_theta_max         28.09
_diffrn_reflns_theta_min         2.04
_exptl_absorpt_coefficient_mu    0.187
_exptl_absorpt_correction_T_max  0.96
_exptl_absorpt_correction_T_min  0.63
_exptl_absorpt_correction_type   multi-scan
_exptl_absorpt_process_details   'TWINABS V2012/1 (Bruker AXS Inc.)'
_exptl_crystal_colour            colourless
_exptl_crystal_density_diffrn    1.189
_exptl_crystal_density_method    'not measured'
_exptl_crystal_description       block
_exptl_crystal_F_000             548
_exptl_crystal_size_max          0.400
_exptl_crystal_size_mid          0.380
_exptl_crystal_size_min          0.220
_refine_diff_density_max         0.962
_refine_diff_density_min         -0.602
_refine_ls_extinction_method     none
_refine_ls_goodness_of_fit_ref   1.123
_refine_ls_hydrogen_treatment    constr
_refine_ls_matrix_type           full
_refine_ls_number_parameters     325
_refine_ls_number_reflns         7017
_refine_ls_number_restraints     0
_refine_ls_restrained_S_all      1.123
_refine_ls_R_factor_all          0.1590
_refine_ls_R_factor_gt           0.1233
_refine_ls_shift/su_max          0.000
_refine_ls_shift/su_mean         0.000
_refine_ls_structure_factor_coef Fsqd
_refine_ls_weighting_details
'w=1/[\s^2^(Fo^2^)+(0.1231P)^2^+6.8454P] where P=(Fo^2^+2Fc^2^)/3'
_refine_ls_weighting_scheme      calc
_refine_ls_wR_factor_gt          0.3208
_refine_ls_wR_factor_ref         0.3446
_reflns_number_gt                5006
_reflns_number_total             7017
_reflns_threshold_expression     'I > 2\s(I)'
_cod_data_source_file            ol502984g_si_002.cif
_cod_data_source_block           I
_cod_depositor_comments          'Adding full bibliography for 1518262.cif.'
_cod_database_code               1518262
#BEGIN Tags that were not found in dictionaries:
_shelx_res_file
;
TITL ltp271s_0t in P-1
CELL 0.71073   8.08600   8.89850  20.08370  89.5514  83.7824  84.1050
ZERR    2.00   0.00120   0.00140   0.00300   0.0041   0.0040   0.0039
LATT 1
SFAC C  H  N  O  S  Si
UNIT 56  74  2  8  2  2
MERG 0
L.S. 5
ACTA
BOND $H
FMAP 2
PLAN 20
SIZE 0.22 0.38 0.40
TEMP -170
WGHT    0.123100    6.845400
BASF   0.26645
FVAR       0.64414
C1    1    1.105673    0.559700    0.398633    11.00000    0.01553    0.02650 =
         0.04196    0.00406   -0.00741   -0.00505
AFIX  43
H1    2    1.051208    0.631169    0.370742    11.00000   -1.20000
AFIX   0
C2    1    1.173339    0.610543    0.453716    11.00000    0.01532    0.01485 =
         0.05421    0.00401   -0.00828   -0.00291
AFIX  43
H2    2    1.167306    0.715613    0.462975    11.00000   -1.20000
AFIX   0
C3    1    1.250875    0.504952    0.495652    11.00000    0.00937    0.01863 =
         0.04754   -0.00165   -0.00696    0.00100
C4    1    1.372251    0.462390    0.599286    11.00000    0.02609    0.02683 =
         0.05087    0.00424   -0.01457   -0.00482
AFIX 137
H4A   2    1.284912    0.398706    0.615994    11.00000   -1.50000
H4B   2    1.403958    0.519620    0.636578    11.00000   -1.50000
H4C   2    1.470234    0.398563    0.578785    11.00000   -1.50000
AFIX   0
C5    1    1.265836    0.352560    0.480879    11.00000    0.01212    0.01867 =
         0.05256    0.00160   -0.01313    0.00189
AFIX  43
H5    2    1.322293    0.281817    0.508489    11.00000   -1.20000
AFIX   0
C6    1    1.197319    0.303259    0.425030    11.00000    0.01499    0.01811 =
         0.04803   -0.00190   -0.00863    0.00093
AFIX  43
H6    2    1.205962    0.198364    0.415087    11.00000   -1.20000
AFIX   0
C7    1    1.115234    0.407956    0.383160    11.00000    0.01152    0.02237 =
         0.04628    0.00058   -0.00800   -0.00323
C8    1    1.035710    0.352994    0.325714    11.00000    0.01140    0.02350 =
         0.04353   -0.00100   -0.00433   -0.00142
C9    1    1.003289    0.438353    0.272153    11.00000    0.02020    0.03626 =
         0.04654    0.00155   -0.01047   -0.00544
AFIX  43
H9    2    1.042073    0.535584    0.268203    11.00000   -1.20000
AFIX   0
C10   1    0.912077    0.387124    0.220894    11.00000    0.02493    0.03852 =
         0.03632    0.00600   -0.00742   -0.00502
C11   1    0.832483    0.341858    0.178874    11.00000    0.02463    0.04456 =
         0.03974    0.00127   -0.00749   -0.00055
C12   1    0.513077    0.193108    0.176538    11.00000    0.02267    0.05433 =
         0.04823   -0.00227   -0.00539   -0.00546
AFIX  13
H12   2    0.545495    0.082986    0.183259    11.00000   -1.20000
AFIX   0
C13   1    0.475701    0.261778    0.246395    11.00000    0.03122    0.05600 =
         0.04913    0.00273   -0.00105   -0.00569
AFIX 137
H13A  2    0.444577    0.370694    0.242860    11.00000   -1.50000
H13B  2    0.575290    0.244148    0.270309    11.00000   -1.50000
H13C  2    0.383170    0.214704    0.270993    11.00000   -1.50000
AFIX   0
C14   1    0.353409    0.202759    0.140756    11.00000    0.01872    0.08844 =
         0.06454   -0.00361   -0.00820   -0.01409
AFIX 137
H14A  2    0.265142    0.157911    0.169138    11.00000   -1.50000
H14B  2    0.376754    0.147650    0.098164    11.00000   -1.50000
H14C  2    0.316645    0.308864    0.132178    11.00000   -1.50000
AFIX   0
C15   1    0.826183    0.105112    0.074031    11.00000    0.02694    0.05612 =
         0.04971   -0.00771   -0.00276   -0.00989
AFIX  13
H15   2    0.918830    0.150007    0.046227    11.00000   -1.20000
AFIX   0
C16   1    0.907868   -0.014622    0.119826    11.00000    0.03298    0.06608 =
         0.06073   -0.00720   -0.00434    0.00015
AFIX 137
H16A  2    0.820545   -0.057723    0.149435    11.00000   -1.50000
H16B  2    0.982090    0.032943    0.146856    11.00000   -1.50000
H16C  2    0.972761   -0.095002    0.092221    11.00000   -1.50000
AFIX   0
C17   1    0.723379    0.032230    0.025756    11.00000    0.03213    0.08464 =
         0.06491   -0.03021   -0.01310    0.01108
AFIX 137
H17A  2    0.796470   -0.042113   -0.002427    11.00000   -1.50000
H17B  2    0.672921    0.110353   -0.002620    11.00000   -1.50000
H17C  2    0.634980   -0.018174    0.051431    11.00000   -1.50000
AFIX   0
C18   1    0.629274    0.425904    0.066874    11.00000    0.02414    0.05550 =
         0.04715    0.00262   -0.01473   -0.01175
AFIX  13
H18   2    0.546852    0.389699    0.038575    11.00000   -1.20000
AFIX   0
C19   1    0.543427    0.564059    0.106152    11.00000    0.04794    0.05910 =
         0.05471   -0.00129   -0.01861    0.00101
AFIX 137
H19A  2    0.621135    0.601327    0.134817    11.00000   -1.50000
H19B  2    0.444270    0.535882    0.133994    11.00000   -1.50000
H19C  2    0.509841    0.643537    0.074824    11.00000   -1.50000
AFIX   0
C20   1    0.778258    0.472707    0.019447    11.00000    0.03237    0.07507 =
         0.06457    0.01666   -0.01312   -0.00587
AFIX 137
H20A  2    0.740032    0.557987   -0.008126    11.00000   -1.50000
H20B  2    0.824885    0.387291   -0.009590    11.00000   -1.50000
H20C  2    0.864494    0.502571    0.045932    11.00000   -1.50000
AFIX   0
C21   1    0.988487    0.194074    0.329376    11.00000    0.01537    0.02011 =
         0.04675    0.00147   -0.01177    0.00315
C22   1    0.682482   -0.057840    0.364479    11.00000    0.01383    0.01776 =
         0.04465    0.00318   -0.00593   -0.00314
C23   1    0.514476   -0.040515    0.390241    11.00000    0.01598    0.02054 =
         0.04722    0.00034   -0.00455   -0.00157
AFIX  43
H23   2    0.481044    0.006210    0.432605    11.00000   -1.20000
AFIX   0
C24   1    0.395742   -0.092952    0.352793    11.00000    0.01346    0.02978 =
         0.05459   -0.00125   -0.00755   -0.00016
AFIX  43
H24   2    0.280839   -0.081621    0.369787    11.00000   -1.20000
AFIX   0
C25   1    0.444839   -0.161242    0.291122    11.00000    0.02156    0.03067 =
         0.05259    0.00043   -0.01318   -0.00424
C26   1    0.315158   -0.218691    0.250823    11.00000    0.02401    0.05881 =
         0.06293   -0.01117   -0.01123   -0.00976
AFIX 137
H26A  2    0.202858   -0.179507    0.270391    11.00000   -1.50000
H26B  2    0.325738   -0.329371    0.251732    11.00000   -1.50000
H26C  2    0.333376   -0.184187    0.204397    11.00000   -1.50000
AFIX   0
C27   1    0.615442   -0.180247    0.266365    11.00000    0.02076    0.04085 =
         0.05064   -0.00934   -0.00464   -0.00789
AFIX  43
H27   2    0.650107   -0.230144    0.224788    11.00000   -1.20000
AFIX   0
C28   1    0.733264   -0.125462    0.303178    11.00000    0.01260    0.03196 =
         0.05296   -0.00161   -0.00593   -0.00396
AFIX  43
H28   2    0.848070   -0.134745    0.286046    11.00000   -1.20000
AFIX   0
N1    3    0.871420    0.171320    0.384013    11.00000    0.01377    0.02283 =
         0.04930   -0.00256   -0.00890    0.00140
AFIX  43
H1N   2    0.816643    0.251897    0.404152    11.00000   -1.20000
AFIX   0
O1    4    1.310161    0.565427    0.550172    11.00000    0.01796    0.02198 =
         0.04782   -0.00069   -0.01206   -0.00237
O2    4    1.043475    0.096161    0.289701    11.00000    0.02498    0.03404 =
         0.04546   -0.00283   -0.00599   -0.00234
O3    4    0.749699    0.036294    0.479152    11.00000    0.02707    0.02562 =
         0.04814    0.00438   -0.01209   -0.01471
O4    4    0.977617   -0.095826    0.403267    11.00000    0.01358    0.02434 =
         0.05760    0.00210   -0.01140    0.00026
S1    5    0.828267    0.004894    0.413551    11.00000    0.01566    0.01827 =
         0.04759    0.00196   -0.00868   -0.00337
SI1   6    0.696114    0.265411    0.123078    11.00000    0.01963    0.05429 =
         0.03948   -0.00351   -0.00864   -0.00445
HKLF 5

REM  ltp271s_0t in P-1
REM R1 =  0.1233 for    5006 Fo > 4sig(Fo)  and  0.1590 for all    7017 data
REM    325 parameters refined using      0 restraints

END

WGHT      0.1229      6.8524

REM Highest difference peak  0.962,  deepest hole -0.602,  1-sigma level  0.152
Q1    1   0.8556 -0.0102  0.3644  11.00000  0.05    0.96
Q2    1   0.8792 -0.0487  0.2780  11.00000  0.05    0.92
Q3    1   0.7671  0.1120  0.4722  11.00000  0.05    0.89
Q4    1   0.8260  0.1028  0.4175  11.00000  0.05    0.89
Q5    1   0.2327 -0.0538  0.4433  11.00000  0.05    0.83
Q6    1   0.7284  0.1980  0.0913  11.00000  0.05    0.77
Q7    1   0.8034 -0.0033  0.4610  11.00000  0.05    0.70
Q8    1   0.8257 -0.0924  0.4151  11.00000  0.05    0.68
Q9    1   0.7068  0.3339  0.0884  11.00000  0.05    0.65
Q10   1   0.6794  0.1978  0.1646  11.00000  0.05    0.63
Q11   1   1.2688  0.4335  0.4886  11.00000  0.05    0.61
Q12   1   1.3348  0.5602  0.5014  11.00000  0.05    0.60
Q13   1   1.2334  0.3588  0.5177  11.00000  0.05    0.57
Q14   1   1.0379  0.3486  0.2743  11.00000  0.05    0.54
Q15   1   0.9948 -0.1631  0.1244  11.00000  0.05    0.54
Q16   1   1.1378  0.4790  0.3798  11.00000  0.05    0.54
Q17   1   0.3494 -0.2729  0.2137  11.00000  0.05    0.54
Q18   1   1.0260  0.1822  0.2827  11.00000  0.05    0.52
Q19   1   0.4277 -0.1762  0.3386  11.00000  0.05    0.50
Q20   1   0.7101 -0.0182  0.4885  11.00000  0.05    0.50
;
_shelx_res_checksum              81019
_shelx_hkl_file
;
   2   0   0 818.277 41.2534  -2
   2   0   0 818.277 41.2534   1
   3   0   0 199.412 10.1551  -2
   3   0   0 199.412 10.1551   1
   4   0   0 187.572 25.4949  -2
   4   0   0 187.572 25.4949   1
   5   0   0 42.9144 8.85422  -2
   5   0   0 42.9144 8.85422   1
   6   0   0 527.602 69.0606  -2
   6   0   0 527.602 69.0606   1
   7   0   0 81.8890 4.90925   1
   8   0   0 3.15884 2.03254   1
   9   0   0 52.4389 6.13586   1
  10   0   0 24.6742 5.42670   1
 -10   1   0 10.9629 4.25371   1
  -9   1   0 2.20683 3.28550   1
  -8   1   0 30.0859 4.24604   1
  -7   1   0 0.02306 1.53122   1
  -6   1   0 513.972 28.8671   1
  -5   1   0 226.399 10.7927   1
  -4   1   0 47.7382 2.43111   1
  -3   1   0 11.0846 0.81575   1
  -2   1   1 523.909 66.3859  -2
  -2   1   0 523.909 66.3859   1
  -1   1   1 541.949 68.2943  -2
  -1   1   0 541.949 68.2943   1
   0   1   0 0.26136 0.11916   1
   1   1   1 691.433 63.0752  -2
   1   1   0 691.433 63.0752   1
   2   1   1 119.785 5.83861  -2
   2   1   0 119.785 5.83861   1
   3   1   1 129.234 6.78960  -2
   3   1   0 129.234 6.78960   1
   4   1   1 103.709 5.79015  -2
   4   1   0 103.709 5.79015   1
   5   1   1 25.7070 4.82862  -2
   5   1   0 25.7070 4.82862   1
   6   1   1 275.891 37.5402  -2
   6   1   0 275.891 37.5402   1
   7   1   1 108.763 12.2314  -2
   7   1   0 108.763 12.2314   1
   8   1   1 44.2438 11.2869  -2
   8   1   0 44.2438 11.2869   1
   9   1   0 295.035 17.8693   1
  10   1   0 -1.9139 3.25552   1
 -10   2   0 23.6023 5.73822   1
  -9   2   0 45.2092 6.66761   1
  -8   2   0 10.6600 3.19880   1
  -7   2   0 10.5477 2.47562   1
  -6   2   0 3.89692 1.39340   1
  -5   2   0 9.94619 1.20154   1
  -4   2   0 231.533 11.1859   1
  -3   2   0 82.4032 3.81352   1
  -2   2   0 31.2502 1.57730   1
  -1   2   0 667.554 23.6839   1
   0   2   0 1184.08 59.2079   1
   1   2   0 186.885 6.99896   1
   2   2   1 155.237 9.97315  -2
   2   2   0 155.237 9.97315   1
   3   2   1 236.547 12.2704  -2
   3   2   0 236.547 12.2704   1
   4   2   1 313.926 20.0615  -2
   4   2   0 313.926 20.0615   1
   5   2   1 295.229 21.7943  -2
   5   2   0 295.229 21.7943   1
   6   2   1 167.933 15.8465  -2
   6   2   0 167.933 15.8465   1
   7   2   1 102.328 9.41332  -2
   7   2   0 102.328 9.41332   1
   8   2   0 19.3510 2.88242   1
   9   2   0 4.56684 2.33739   1
  10   2   0 -0.7201 2.76177   1
  -9   3   0 37.3112 5.88663   1
  -8   3   0 41.2171 5.65799   1
  -7   3   0 61.4927 5.29212   1
  -6   3   0 27.4908 3.50230   1
  -5   3   0 26.4814 2.51195   1
  -4   3   0 302.745 13.5046   1
  -3   3   0 184.059 8.00184   1
  -2   3   0 312.586 12.4471   1
  -1   3   2 674.530 37.1861  -2
  -1   3   0 674.530 37.1861   1
   0   3   2 107.289 8.33047  -2
   0   3   0 107.289 8.33047   1
   1   3   2 617.173 26.5958  -2
   1   3   0 617.173 26.5958   1
   2   3   2 246.248 9.40503  -2
   2   3   0 246.248 9.40503   1
   3   3   2 449.751 17.9559  -2
   3   3   0 449.751 17.9559   1
   4   3   2 491.386 22.0110  -2
   4   3   0 491.386 22.0110   1
   5   3   2 181.583 9.98620  -2
   5   3   0 181.583 9.98620   1
   6   3   2 195.000 10.8735  -2
   6   3   0 195.000 10.8735   1
   7   3   2 86.1696 7.10107  -2
   7   3   0 86.1696 7.10107   1
   8   3   2 235.358 16.2657  -2
   8   3   0 235.358 16.2657   1
   9   3   2 103.419 10.7965  -2
   9   3   0 103.419 10.7965   1
  10   3   2 29.7903 10.4528  -2
  10   3   0 29.7903 10.4528   1
  -9   4   0 8.62115 4.44353   1
  -8   4   0 39.1628 5.77237   1
  -7   4   0 33.4155 4.27584   1
  -6   4   0 26.4472 3.34663   1
  -5   4   0 10.8270 2.34552   1
  -4   4   0 89.0450 5.29333   1
  -3   4   0 50.9437 5.21620   1
  -2   4   0 54.7825 2.83183   1
  -1   4   0 103.092 5.60605   1
   0   4   3 44.3892 7.64691  -2
   0   4   0 44.3892 7.64691   1
   1   4   3 618.129 43.2415  -2
   1   4   0 618.129 43.2415   1
   2   4   3 918.587 63.7249  -2
   2   4   0 918.587 63.7249   1
   3   4   3 208.835 12.3092  -2
   3   4   0 208.835 12.3092   1
   4   4   3 149.821 8.27672  -2
   4   4   0 149.821 8.27672   1
   5   4   3 271.767 15.9696  -2
   5   4   0 271.767 15.9696   1
   6   4   3 163.744 12.8216  -2
   6   4   0 163.744 12.8216   1
   7   4   3 225.765 14.9310  -2
   7   4   0 225.765 14.9310   1
   8   4   3 61.6034 8.82485  -2
   8   4   0 61.6034 8.82485   1
   9   4   3 22.4465 6.90463  -2
   9   4   0 22.4465 6.90463   1
  10   4   3 77.3844 8.04737  -2
  10   4   0 77.3844 8.04737   1
  -9   5   0 5.48944 4.07555   1
  -8   5   0 24.8281 5.16758   1
  -7   5   0 26.0628 3.69512   1
  -6   5   0 52.3955 4.61264   1
  -5   5   0 30.7674 3.36001   1
  -4   5   0 350.464 17.4071   1
  -3   5   0 47.3471 3.25537   1
  -2   5   0 87.9936 5.26141   1
  -1   5   0 150.728 7.74513   1
   0   5   0 192.946 9.55745   1
   1   5   0 210.192 10.4006   1
   2   5   0 50.7662 3.44666   1
   3   5   0 751.984 38.1482   1
   4   5   3 187.862 26.0883  -2
   4   5   0 187.862 26.0883   1
   5   5   3 57.5792 9.94413  -2
   5   5   0 57.5792 9.94413   1
   5   5   4 35.6695 8.41721  -2
   5   5   0 35.6695 8.41721   1
   6   5   3 89.2238 15.2311  -2
   6   5   0 89.2238 15.2311   1
   6   5   4 113.109 17.3177  -2
   6   5   0 113.109 17.3177   1
   7   5   3 43.2269 9.85340  -2
   7   5   0 43.2269 9.85340   1
   8   5   3 105.240 16.9620  -2
   8   5   0 105.240 16.9620   1
   9   5   3 14.4723 6.20309  -2
   9   5   0 14.4723 6.20309   1
  10   5   0 9.29989 5.83453   1
  -8   6   0 8.26699 4.34457   1
  -7   6   0 3.81661 3.02465   1
  -6   6   0 16.6683 3.58870   1
  -5   6   0 21.4070 3.05192   1
  -4   6   0 34.4944 3.77142   1
  -3   6   0 158.571 9.18878   1
  -2   6   0 201.526 10.9808   1
  -1   6   0 44.3528 3.86908   1
   0   6   0 22.9930 2.16646   1
   1   6   0 14.6100 1.53896   1
   2   6   4 73.3242 8.31217  -2
   2   6   0 73.3242 8.31217   1
   3   6   4 401.059 35.8362  -2
   3   6   0 401.059 35.8362   1
   4   6   4 146.477 7.85743  -2
   4   6   0 146.477 7.85743   1
   5   6   4 199.354 10.3053  -2
   5   6   0 199.354 10.3053   1
   6   6   4 115.964 8.05472  -2
   6   6   0 115.964 8.05472   1
   7   6   4 20.3094 3.61256  -2
   7   6   0 20.3094 3.61256   1
   8   6   4 24.5579 3.89660  -2
   8   6   0 24.5579 3.89660   1
   9   6   4 37.3466 4.57925  -2
   9   6   0 37.3466 4.57925   1
  -7   7   0 18.9104 4.23135   1
  -6   7   0 58.8376 6.55843   1
  -5   7   0 51.4552 5.87137   1
  -4   7   0 77.7910 7.18420   1
  -3   7   0 96.1479 7.20716   1
  -2   7   0 136.134 7.46530   1
  -1   7   0 53.9777 4.01431   1
   0   7   0 66.3499 5.21409   1
   1   7   0 34.3846 2.53919   1
   2   7   0 21.2505 2.20730   1
   3   7   5 138.601 19.5590  -2
   3   7   0 138.601 19.5590   1
   4   7   5 60.6472 5.72915  -2
   4   7   0 60.6472 5.72915   1
   5   7   5 108.859 8.47480  -2
   5   7   0 108.859 8.47480   1
   6   7   5 28.0089 3.92187  -2
   6   7   0 28.0089 3.92187   1
   7   7   5 8.87499 4.17159  -2
   7   7   0 8.87499 4.17159   1
   8   7   5 40.6903 6.56835  -2
   8   7   0 40.6903 6.56835   1
   9   7   5 52.5942 9.62512  -2
   9   7   0 52.5942 9.62512   1
  -6   8   0 6.84671 3.41902   1
  -5   8   0 28.0457 4.51984   1
  -4   8   0 33.9042 4.50684   1
  -3   8   0 30.9816 4.46297   1
  -2   8   0 48.6487 4.22626   1
  -1   8   0 7.68684 2.17992   1
   0   8   0 3.71659 1.84517   1
   1   8   0 121.685 7.61598   1
   2   8   0 92.8057 5.56712   1
   3   8   0 92.7715 5.48417   1
   4   8   0 45.7841 3.62091   1
   5   8   0 54.2047 4.11010   1
   6   8   0 22.5087 2.97307   1
   7   8   6 16.3216 9.35090  -2
   7   8   0 16.3216 9.35090   1
   8   8   0 19.9955 5.67947   1
  -5   9   0 22.1662 4.49579   1
  -4   9   0 31.8806 4.86737   1
  -3   9   0 7.74326 3.27795   1
  -2   9   0 19.3222 3.82780   1
  -1   9   0 8.23254 2.47689   1
   0   9   0 14.9520 3.08595   1
   1   9   0 75.3858 5.74672   1
   2   9   0 27.4333 3.48677   1
   3   9   0 28.5246 3.33716   1
   4   9   0 39.8107 3.96954   1
   5   9   0 32.9155 3.66488   1
   6   9   6 58.3250 10.7057  -2
   6   9   0 58.3250 10.7057   1
   7   9   6 11.6972 7.69401  -2
   7   9   0 11.6972 7.69401   1
  -4  10   0 17.6487 4.36106   1
  -3  10   0 26.0016 4.72854   1
  -2  10   0 6.31054 3.36307   1
  -1  10   0 35.6806 6.13863   1
   0  10   0 16.5895 3.39467   1
   1  10   0 62.4154 5.89509   1
   2  10   0 26.6292 3.40002   1
   3  10   0 50.4602 5.08089   1
   4  10   0 6.38778 2.49978   1
   5  10   0 54.8784 5.34734   1
   6  10   0 34.5436 4.82676   1
  -2  11   0 7.88386 4.47026   1
  -1  11   0 21.8995 5.48177   1
   0  11   0 58.7820 6.69735   1
   1  11   0 21.6126 3.78318   1
   2  11   0 23.2981 3.97570   1
   3  11   0 10.3447 3.17716   1
   4  11   0 15.4448 3.66511   1
  -4 -11   1 27.4961 4.19664   1
  -3 -11   1 2.97998 2.75187   1
  -2 -11   1 19.4008 3.69591   1
  -1 -11   1 46.1932 5.24912   1
   0 -11   1 33.8073 5.40046   1
   1 -11   1 14.5013 4.91159   1
   2 -11   1 14.0806 4.88826   1
   6  10   6 27.4660 6.65966  -2
  -6 -10   1 27.4660 6.65966   1
   5  10   6 14.9250 5.79942  -2
  -5 -10   1 14.9250 5.79942   1
   4  10   6 4.74194 5.33896  -2
  -4 -10   1 4.74194 5.33896   1
  -3 -10   1 36.6666 4.01278   1
  -2 -10   1 15.6128 2.87315   1
  -1 -10   1 52.7994 4.95921   1
   0 -10   1 19.9123 3.62293   1
   1 -10   1 21.3005 4.87647   1
   2 -10   1 13.8678 3.77068   1
   3 -10   1 24.1765 4.62100   1
   4 -10   1 9.40877 3.88635   1
   7   9   5 35.6830 9.27772  -2
  -7  -9   1 35.6830 9.27772   1
   6   9   5 48.2540 6.51369  -2
  -6  -9   1 48.2540 6.51369   1
   5   9   5 26.4222 4.06038  -2
  -5  -9   1 26.4222 4.06038   1
   4   9   5 126.833 12.1937  -2
  -4  -9   1 126.833 12.1937   1
  -3  -9   1 36.0644 3.57756   1
  -2  -9   1 56.0939 4.71287   1
  -1  -9   1 38.9908 3.92126   1
   0  -9   1 15.7429 3.01420   1
   1  -9   1 36.4125 3.83719   1
   2  -9   1 33.4859 4.75859   1
   3  -9   1 12.9487 3.53666   1
   4  -9   1 79.1783 7.90879   1
   5  -9   1 16.4589 4.25626   1
   8   8   5 22.1715 11.1651  -2
  -8  -8   1 22.1715 11.1651   1
   7   8   5 17.8059 7.30035  -2
  -7  -8   1 17.8059 7.30035   1
   6   8   5 45.8891 6.46106  -2
  -6  -8   1 45.8891 6.46106   1
   5   8   5 134.583 11.7261  -2
  -5  -8   1 134.583 11.7261   1
   4   8   5 46.6647 5.91919  -2
  -4  -8   1 46.6647 5.91919   1
   3   8   5 204.582 21.2099  -2
  -3  -8   1 204.582 21.2099   1
  -2  -8   1 171.625 9.09591   1
  -1  -8   1 90.7906 6.29474   1
   0  -8   1 7.63394 2.00162   1
   1  -8   1 37.1086 3.52820   1
   2  -8   1 44.7611 3.96533   1
   3  -8   1 35.3158 4.30095   1
   4  -8   1 95.8114 8.60951   1
   5  -8   1 44.2504 5.59062   1
   6  -8   1 -0.6771 2.87080   1
   7  -8   1 3.18825 4.44879   1
   9   7   4 20.6835 8.05087  -2
  -9  -7   1 20.6835 8.05087   1
   8   7   4 40.9477 8.82564  -2
  -8  -7   1 40.9477 8.82564   1
   7   7   4 12.8741 4.80781  -2
  -7  -7   1 12.8741 4.80781   1
   6   7   4 25.4609 3.70050  -2
  -6  -7   1 25.4609 3.70050   1
   5   7   4 99.5419 6.44152  -2
  -5  -7   1 99.5419 6.44152   1
   4   7   4 54.3275 3.83798  -2
  -4  -7   1 54.3275 3.83798   1
   3   7   4 121.259 7.99564  -2
  -3  -7   1 121.259 7.99564   1
   2   7   4 34.5162 3.87876  -2
  -2  -7   1 34.5162 3.87876   1
   1   7   4 109.681 9.87687  -2
  -1  -7   1 109.681 9.87687   1
   0  -7   1 46.9601 4.08189   1
   1  -7   1 127.813 7.45964   1
   2  -7   1 59.4968 3.93674   1
   3  -7   1 62.1245 4.47494   1
   4  -7   1 165.381 10.9858   1
   5  -7   1 21.3638 3.83973   1
   6  -7   1 35.4168 4.99643   1
   7  -7   1 31.6139 4.87348   1
   9   6   3 11.8363 6.14720  -2
  -9  -6   1 11.8363 6.14720   1
   8   6   3 35.9371 5.30747  -2
  -8  -6   1 35.9371 5.30747   1
   7   6   3 5.92222 5.57158  -2
  -7  -6   1 5.92222 5.57158   1
   6   6   3 259.255 15.5960  -2
  -6  -6   1 259.255 15.5960   1
   5   6   3 146.097 9.13419  -2
  -5  -6   1 146.097 9.13419   1
   4   6   3 89.9430 5.26119  -2
  -4  -6   1 89.9430 5.26119   1
   3   6   3 115.918 6.19940  -2
  -3  -6   1 115.918 6.19940   1
   2   6   3 42.0439 2.57329  -2
  -2  -6   1 42.0439 2.57329   1
   1   6   3 32.0560 3.28896  -2
  -1  -6   1 32.0560 3.28896   1
   0   6   3 39.4206 8.44044  -2
   0  -6   1 39.4206 8.44044   1
  -1   6   3 318.407 27.3828  -2
   1  -6   1 318.407 27.3828   1
  -2   6   3 590.536 71.2772  -2
   2  -6   1 590.536 71.2772   1
   3  -6   1 94.6491 6.21009   1
   4  -6   1 124.818 8.63106   1
   5  -6   1 50.1509 4.51923   1
   6  -6   1 7.20677 2.98083   1
   7  -6   1 5.33991 3.07299   1
   8  -6   1 43.5520 6.71593   1
  -9  -5   1 1.97374 2.53731   1
  -8  -5   1 13.4124 3.35717   1
  -7  -5   1 2.30756 2.48146   1
  -6  -5   1 170.757 9.83830   1
   5   5   3 45.1885 9.88533  -2
  -5  -5   1 45.1885 9.88533   1
   4   5   3 365.869 46.2747  -2
  -4  -5   1 365.869 46.2747   1
   4   5   2 378.174 50.3140  -2
  -4  -5   1 378.174 50.3140   1
   3   5   3 522.159 37.5935  -2
  -3  -5   1 522.159 37.5935   1
   3   5   2 577.209 75.9891  -2
  -3  -5   1 577.209 75.9891   1
   2   5   3 197.621 25.0797  -2
  -2  -5   1 197.621 25.0797   1
  -1  -5   1 307.481 17.7723   1
   0  -5   1 85.0545 5.12677   1
   1  -5   1 108.572 5.26442   1
   2  -5   1 237.019 10.8236   1
   3  -5   1 361.357 19.0228   1
   4  -5   1 89.1072 5.67237   1
   5  -5   1 43.3168 3.97995   1
   6  -5   1 24.4361 3.22504   1
   7  -5   1 9.74799 2.87808   1
   8  -5   1 27.5865 4.82785   1
   9  -5   1 4.03177 3.87450   1
 -10  -4   1 6.13712 3.15454   1
  -9  -4   1 1.15539 2.15911   1
   8   4   2 68.9112 12.6870  -2
  -8  -4   1 68.9112 12.6870   1
   7   4   2 164.015 16.9634  -2
  -7  -4   1 164.015 16.9634   1
   6   4   2 435.380 54.3080  -2
  -6  -4   1 435.380 54.3080   1
   5   4   2 270.348 15.6674  -2
  -5  -4   1 270.348 15.6674   1
   4   4   2 158.838 8.13674  -2
  -4  -4   1 158.838 8.13674   1
   3   4   2 179.068 9.50274  -2
  -3  -4   1 179.068 9.50274   1
   2   4   2 241.349 11.4842  -2
  -2  -4   1 241.349 11.4842   1
   1   4   2 177.977 8.65723  -2
  -1  -4   1 177.977 8.65723   1
   0   4   2 38.1695 2.09473  -2
   0  -4   1 38.1695 2.09473   1
  -1   4   2 136.819 12.9423  -2
   1  -4   1 136.819 12.9423   1
  -2   4   2 43.5096 5.46168  -2
   2  -4   1 43.5096 5.46168   1
  -3   4   2 200.565 15.3893  -2
   3  -4   1 200.565 15.3893   1
  -4   4   2 146.902 20.9926  -2
   4  -4   1 146.902 20.9926   1
   5  -4   1 49.4288 4.39852   1
   6  -4   1 6.66114 2.25100   1
   7  -4   1 6.34687 2.38144   1
   8  -4   1 25.7230 5.18467   1
   9  -4   1 3.61194 3.86470   1
 -10  -3   1 2.15007 2.77802   1
  -9  -3   1 311.450 16.0461   1
  -8  -3   1 36.1092 3.79527   1
   7   3   1 41.4434 9.06452  -2
  -7  -3   1 41.4434 9.06452   1
   6   3   1 29.9074 7.21713  -2
  -6  -3   1 29.9074 7.21713   1
   5   3   1 101.011 8.52618  -2
  -5  -3   1 101.011 8.52618   1
   4   3   1 112.570 6.99101  -2
  -4  -3   1 112.570 6.99101   1
   3   3   1 1029.15 45.1977  -2
  -3  -3   1 1029.15 45.1977   1
   2   3   1 232.910 8.49321  -2
  -2  -3   1 232.910 8.49321   1
   1   3   1 255.925 10.5582  -2
  -1  -3   1 255.925 10.5582   1
   0   3   1 604.151 24.6276  -2
   0  -3   1 604.151 24.6276   1
  -1   3   1 1438.26 55.2143  -2
   1  -3   1 1438.26 55.2143   1
  -2   3   1 144.293 6.60114  -2
   2  -3   1 144.293 6.60114   1
  -3   3   1 124.439 7.36671  -2
   3  -3   1 124.439 7.36671   1
  -4   3   1 164.471 10.9714  -2
   4  -3   1 164.471 10.9714   1
  -5   3   1 111.557 9.27725  -2
   5  -3   1 111.557 9.27725   1
  -6   3   1 444.303 40.5283  -2
   6  -3   1 444.303 40.5283   1
  -7   3   1 102.877 17.0631  -2
   7  -3   1 102.877 17.0631   1
   8  -3   1 15.0542 4.25431   1
   9  -3   1 34.4066 5.83364   1
 -10  -2   1 -3.3330 2.72434   1
  -9  -2   1 -0.2158 2.31939   1
  -8  -2   1 69.8001 5.49742   1
  -7  -2   1 14.4782 2.54808   1
  -6  -2   1 134.596 6.97051   1
  -5  -2   1 104.160 6.19577   1
  -4  -2   1 63.9282 3.41523   1
  -3  -2   1 251.954 9.22850   1
  -2  -2   1 610.681 19.4398   1
  -1  -2   1 110.303 4.71126   1
   0   2   0 5652.01 700.157  -2
   0  -2   1 5652.01 700.157   1
   1  -2   1 1201.91 48.5094   1
   2  -2   1 91.9509 3.50014   1
  -3   2   0 282.436 34.8397  -2
   3  -2   1 282.436 34.8397   1
   4  -2   1 156.794 6.96581   1
   5  -2   1 10.3824 1.21459   1
   6  -2   1 6.40322 1.22984   1
  -7   2   0 134.655 21.3136  -2
   7  -2   1 134.655 21.3136   1
  -8   2   0 6.77720 8.15995  -2
   8  -2   1 6.77720 8.15995   1
  -9   2   0 114.974 21.0423  -2
   9  -2   1 114.974 21.0423   1
  10  -2   1 38.0221 6.55520   1
 -10  -1   1 5.42463 4.00025   1
  -9  -1   1 15.1896 3.26310   1
  -8  -1   1 -0.0073 1.85071   1
  -7  -1   1 1.77567 1.88724   1
  -6  -1   1 9.17352 1.99904   1
  -5  -1   1 102.542 6.05134   1
  -4  -1   1 92.4702 4.54549   1
  -3  -1   1 19.6794 1.17269   1
  -2  -1   1 699.993 22.8243   1
   1   1   0 85.2149 10.9927  -2
  -1  -1   1 85.2149 10.9927   1
   0   1   0 6.03693 1.12275  -2
   0  -1   1 6.03693 1.12275   1
  -1   1   0 946.890 80.8967  -2
   1  -1   1 946.890 80.8967   1
  -2   1   0 1024.86 46.4648  -2
   2  -1   1 1024.86 46.4648   1
  -3   1   0 206.999 8.16138  -2
   3  -1   1 206.999 8.16138   1
  -4   1   0 124.560 6.10343  -2
   4  -1   1 124.560 6.10343   1
  -5   1   0 766.668 37.8555  -2
   5  -1   1 766.668 37.8555   1
  -6   1   0 162.186 13.0385  -2
   6  -1   1 162.186 13.0385   1
  -7   1   0 9.21873 4.60454  -2
   7  -1   1 9.21873 4.60454   1
  -8   1   0 4.24412 6.19632  -2
   8  -1   1 4.24412 6.19632   1
   9  -1   1 43.0519 5.99652   1
  10  -1   1 15.5259 4.90446   1
 -10   0   1 56.1405 7.57083   1
  -9   0   1 31.6925 5.66530   1
  -8   0   1 76.6680 6.22232   1
  -7   0   1 76.7379 5.91394   1
  -6   0   1 10.5117 2.14193   1
  -5   0   1 1.47283 1.05366   1
  -4   0   1 52.2564 2.81353   1
  -3   0   1 345.234 12.8489   1
  -2   0   1 14.0347 0.81767   1
  -1   0   1 1800.35 211.096   1
   1   0   1 17.4807 2.79375  -2
   1   0   1 17.4807 2.79375   1
   2   0   1 313.857 12.6986  -2
   2   0   1 313.857 12.6986   1
   3   0   1 -0.1952 0.53321  -2
   3   0   1 -0.1952 0.53321   1
   4   0   1 73.4983 3.94320  -2
   4   0   1 73.4983 3.94320   1
   5   0   1 567.070 28.9492  -2
   5   0   1 567.070 28.9492   1
   6   0   1 184.187 9.58757  -2
   6   0   1 184.187 9.58757   1
   7   0   1 4.71101 2.78282  -2
   7   0   1 4.71101 2.78282   1
   8   0   1 -3.6197 3.44354  -2
   8   0   1 -3.6197 3.44354   1
   9   0   1 15.8974 5.08641  -2
   9   0   1 15.8974 5.08641   1
  10   0   1 20.2840 9.50379  -2
  10   0   1 20.2840 9.50379   1
 -10   1   1 0.42513 3.57375   1
  -9   1   1 19.3180 4.50520   1
  -8   1   1 8.52191 2.78073   1
  -7   1   1 59.9748 4.45544   1
  -6   1   1 138.276 8.68610   1
  -5   1   1 57.8086 3.91128   1
  -4   1   1 277.454 14.3153   1
  -3   1   1 826.528 30.3888   1
  -2   1   1 1740.88 61.2775   1
  -1   1   1 1809.05 90.4306   1
   0   1   1 408.653 51.0100   1
   1   1   1 183.086 13.6600   1
   2   1   2 28.6443 4.53632  -2
   2   1   1 28.6443 4.53632   1
   3   1   2 90.2757 5.51862  -2
   3   1   1 90.2757 5.51862   1
   4   1   2 135.453 10.5189  -2
   4   1   1 135.453 10.5189   1
   5   1   2 126.209 8.78413  -2
   5   1   1 126.209 8.78413   1
   6   1   2 517.213 44.8797  -2
   6   1   1 517.213 44.8797   1
   7   1   1 55.9105 11.7749  -2
   7   1   1 55.9105 11.7749   1
   7   1   2 58.7032 8.42913  -2
   7   1   1 58.7032 8.42913   1
   8   1   2 61.9209 8.78955  -2
   8   1   1 61.9209 8.78955   1
   8   1   1 106.884 18.1769  -2
   8   1   1 106.884 18.1769   1
   9   1   1 3.93380 8.77967  -2
   9   1   1 3.93380 8.77967   1
   9   1   2 -1.1342 8.48706  -2
   9   1   1 -1.1342 8.48706   1
  10   1   1 7.00394 9.66349  -2
  10   1   1 7.00394 9.66349   1
  10   1   2 6.65018 8.81427  -2
  10   1   1 6.65018 8.81427   1
 -10   2   1 18.2575 4.97866   1
  -9   2   1 33.8616 5.68383   1
  -8   2   1 19.7733 4.34121   1
  -7   2   1 166.217 10.8220   1
  -6   2   1 127.728 7.66259   1
  -5   2   1 52.8728 3.25660   1
  -4   2   1 12.8261 1.25041   1
  -3   2   1 24.0035 1.55715   1
  -2   2   1 101.751 4.00506   1
  -1   2   1 3.92118 0.40484   1
   0   2   1 10.6855 0.98378   1
   1   2   1 141.491 5.13908   1
   2   2   1 46.9179 1.87595   1
   3   2   2 17.5587 3.13743  -2
   3   2   1 17.5587 3.13743   1
   4   2   2 48.2109 3.62119  -2
   4   2   1 48.2109 3.62119   1
   5   2   2 82.2620 6.26625  -2
   5   2   1 82.2620 6.26625   1
   6   2   2 143.583 11.6667  -2
   6   2   1 143.583 11.6667   1
   7   2   2 490.986 35.5306  -2
   7   2   1 490.986 35.5306   1
   8   2   2 3.66178 3.35469  -2
   8   2   1 3.66178 3.35469   1
   9   2   2 19.9501 5.58971  -2
   9   2   1 19.9501 5.58971   1
  10   2   2 2.43058 9.68924  -2
  10   2   1 2.43058 9.68924   1
  -9   3   1 6.95021 3.74399   1
  -8   3   1 35.2095 5.52623   1
  -7   3   1 13.4093 2.77845   1
  -6   3   1 58.8849 4.95424   1
  -5   3   1 75.1357 4.38761   1
  -4   3   1 10.1690 1.64654   1
  -3   3   1 35.7793 2.33323   1
  -2   3   1 3.07886 0.68408   1
  -1   3   1 399.643 15.0119   1
   0   3   1 19.2228 1.09642   1
   1   3   1 340.077 12.1173   1
   2   3   3 279.173 17.8369  -2
   2   3   1 279.173 17.8369   1
   3   3   3 612.183 34.1619  -2
   3   3   1 612.183 34.1619   1
   4   3   3 121.453 6.45944  -2
   4   3   1 121.453 6.45944   1
   5   3   3 366.464 19.1315  -2
   5   3   1 366.464 19.1315   1
   6   3   3 33.3789 2.90318  -2
   6   3   1 33.3789 2.90318   1
   7   3   3 95.7918 6.52252  -2
   7   3   1 95.7918 6.52252   1
   8   3   3 15.7525 3.14516  -2
   8   3   1 15.7525 3.14516   1
   9   3   3 46.4444 4.60070  -2
   9   3   1 46.4444 4.60070   1
  10   3   3 18.0297 4.84455  -2
  10   3   1 18.0297 4.84455   1
  -9   4   1 62.0697 7.68848   1
  -8   4   1 7.82821 3.73385   1
  -7   4   1 55.9686 6.59892   1
  -6   4   1 17.3677 2.79948   1
  -5   4   1 79.4744 5.40381   1
  -4   4   1 34.0512 3.19892   1
  -3   4   1 204.734 9.60251   1
  -2   4   1 52.4139 2.69702   1
  -1   4   1 81.4864 5.21377   1
   0   4   1 11.1960 1.38027   1
   1   4   1 571.963 23.5157   1
   2   4   1 189.063 8.65821   1
   3   4   4 628.912 82.2506  -2
   3   4   1 628.912 82.2506   1
   4   4   4 338.187 21.5334  -2
   4   4   1 338.187 21.5334   1
   5   4   4 402.322 29.3100  -2
   5   4   1 402.322 29.3100   1
   6   4   4 151.983 12.3024  -2
   6   4   1 151.983 12.3024   1
   7   4   4 400.263 30.2035  -2
   7   4   1 400.263 30.2035   1
   8   4   4 205.148 16.4397  -2
   8   4   1 205.148 16.4397   1
   9   4   4 48.0920 6.91350  -2
   9   4   1 48.0920 6.91350   1
  10   4   4 130.210 15.4118  -2
  10   4   1 130.210 15.4118   1
  -9   5   1 14.3984 7.78500   1
  -8   5   1 20.4012 5.76448   1
  -7   5   1 82.7188 6.88221   1
  -6   5   1 104.056 7.78525   1
  -5   5   1 13.7647 2.42267   1
  -4   5   1 42.3411 3.48594   1
  -3   5   1 18.3008 1.77415   1
  -2   5   1 99.8188 5.89276   1
  -1   5   1 8.85459 1.26301   1
   0   5   1 57.3514 3.56858   1
   1   5   1 10.1195 1.24342   1
   2   5   1 129.580 5.70679   1
   3   5   1 401.437 19.3461   1
   4   5   1 37.6809 3.47952   1
   5   5   1 69.9221 4.46486   1
   6   5   1 37.2369 3.81286   1
   7   5   4 107.915 16.9939  -2
   7   5   1 107.915 16.9939   1
   8   5   1 69.6313 10.0140   1
   9   5   1 18.0662 5.40294   1
  10   5   4 51.7289 9.85649  -2
  10   5   1 51.7289 9.85649   1
  -8   6   1 9.61805 4.39323   1
  -7   6   1 3.12253 2.96139   1
  -6   6   1 25.5607 4.12665   1
  -5   6   1 11.0988 2.78106   1
  -4   6   1 9.24744 2.08089   1
  -3   6   1 19.2622 2.19463   1
  -2   6   1 23.3344 2.14783   1
  -1   6   1 99.0431 10.6043   1
   0   6   1 77.2735 4.65080   1
   1   6   1 25.2738 2.20531   1
   2   6   1 127.395 6.36769   1
   3   6   1 318.894 13.6435   1
   4   6   1 18.5981 2.04612   1
   5   6   5 141.544 15.1183  -2
   5   6   1 141.544 15.1183   1
   6   6   5 133.111 11.4380  -2
   6   6   1 133.111 11.4380   1
   7   6   5 62.1856 4.95976  -2
   7   6   1 62.1856 4.95976   1
   8   6   5 22.8690 4.21253  -2
   8   6   1 22.8690 4.21253   1
   9   6   5 79.3343 6.88060  -2
   9   6   1 79.3343 6.88060   1
  -7   7   1 28.7676 4.77615   1
  -6   7   1 124.204 10.5960   1
  -5   7   1 34.8803 4.82663   1
  -4   7   1 58.8058 5.98233   1
  -3   7   1 131.313 7.79380   1
  -2   7   1 102.536 6.53094   1
  -1   7   1 96.4124 6.24779   1
   0   7   1 58.9158 4.38899   1
   1   7   1 40.5122 3.56891   1
   2   7   1 52.0473 3.26516   1
   3   7   1 104.037 5.68733   1
   4   7   1 22.0606 2.38697   1
   5   7   1 126.759 7.00932   1
   6   7   6 16.2971 5.06292  -2
   6   7   1 16.2971 5.06292   1
   7   7   6 23.1398 6.70887  -2
   7   7   1 23.1398 6.70887   1
   8   7   6 117.318 13.3208  -2
   8   7   1 117.318 13.3208   1
   9   7   6 23.5108 8.14837  -2
   9   7   1 23.5108 8.14837   1
  -6   8   1 18.2152 4.15840   1
  -5   8   1 33.1355 4.89587   1
  -4   8   1 47.5901 5.65997   1
  -3   8   1 31.9259 4.52407   1
  -2   8   1 40.4549 3.75755   1
  -1   8   1 2.77742 1.73241   1
   0   8   1 9.19923 2.30068   1
   1   8   1 65.4419 4.93008   1
   2   8   1 45.3485 3.43987   1
   3   8   1 56.7021 3.92486   1
   4   8   1 47.7710 3.67422   1
   5   8   1 69.0875 4.78266   1
   6   8   1 31.7108 3.52562   1
   7   8   1 11.7729 3.21466   1
   8   8   1 37.7405 4.60606   1
  -5   9   1 13.1233 3.97771   1
  -4   9   1 24.2115 4.58703   1
  -3   9   1 10.6673 3.34250   1
  -2   9   1 23.0177 3.92355   1
  -1   9   1 6.41950 2.38509   1
   0   9   1 5.41663 2.49114   1
   1   9   1 30.0714 3.61573   1
   2   9   1 17.6857 3.00055   1
   3   9   1 26.1301 3.15981   1
   4   9   1 24.8800 3.06227   1
   5   9   1 30.0403 3.77717   1
   6   9   1 18.1096 3.80404   1
   7   9   1 23.5948 3.85192   1
  -4  10   1 32.7567 7.92820   1
  -3  10   1 8.32178 3.54480   1
  -2  10   1 8.86919 3.35934   1
  -1  10   1 9.61223 4.10844   1
   0  10   1 16.1168 3.35481   1
   1  10   1 43.3061 4.86913   1
   2  10   1 47.7051 5.08911   1
   3  10   1 50.5083 4.68788   1
   4  10   1 10.1137 2.96704   1
   5  10   1 75.4724 6.12228   1
   6  10   1 18.2876 4.25598   1
  -2  11   1 15.2774 5.05519   1
  -1  11   1 14.8091 4.80038   1
   0  11   1 15.0238 4.20782   1
   1  11   1 11.3862 3.33687   1
   2  11   1 31.4666 4.45784   1
   3  11   1 21.5720 3.87469   1
   4  11   1 5.33719 3.12593   1
   4  11   6 89.8823 13.6419  -2
  -4 -11   2 89.8823 13.6419   1
   3  11   6 -8.8089 5.48352  -2
  -3 -11   2 -8.8089 5.48352   1
  -2 -11   2 34.0437 4.54383   1
  -1 -11   2 23.2382 3.99782   1
   0 -11   2 14.9341 4.17162   1
   1 -11   2 39.1211 6.85974   1
   2 -11   2 33.1113 6.57618   1
   6  10   5 10.1832 5.07000  -2
  -6 -10   2 10.1832 5.07000   1
   5  10   5 25.4729 4.23027  -2
  -5 -10   2 25.4729 4.23027   1
   4  10   5 3.79273 3.25264  -2
  -4 -10   2 3.79273 3.25264   1
   3  10   5 56.5872 5.36546  -2
  -3 -10   2 56.5872 5.36546   1
   2  10   5 56.3154 7.74487  -2
  -2 -10   2 56.3154 7.74487   1
   1  10   5 43.0009 13.0867  -2
  -1 -10   2 43.0009 13.0867   1
   0 -10   2 19.8695 3.63563   1
   1 -10   2 8.74713 3.90010   1
   2 -10   2 7.94748 3.36684   1
   3 -10   2 21.4407 4.39932   1
   4 -10   2 4.60676 3.43494   1
   7   9   4 18.2729 10.6191  -2
  -7  -9   2 18.2729 10.6191   1
   6   9   4 32.1721 8.86344  -2
  -6  -9   2 32.1721 8.86344   1
   5   9   4 21.0932 5.50218  -2
  -5  -9   2 21.0932 5.50218   1
   4   9   4 112.189 9.67344  -2
  -4  -9   2 112.189 9.67344   1
   3   9   4 113.071 7.86641  -2
  -3  -9   2 113.071 7.86641   1
   2   9   4 64.0722 7.90422  -2
  -2  -9   2 64.0722 7.90422   1
  -1  -9   2 15.0825 3.70570   1
   0  -9   2 12.6547 2.88027   1
   1  -9   2 86.4638 6.39883   1
   2  -9   2 24.8277 3.88351   1
   3  -9   2 16.3334 3.81223   1
   4  -9   2 41.8356 5.52387   1
   5  -9   2 7.71658 3.33121   1
  -8  -8   2 5.04515 4.59992   1
  -7  -8   2 -4.1141 4.03881   1
   6   8   4 39.5062 12.0033  -2
  -6  -8   2 39.5062 12.0033   1
   5   8   4 54.6088 7.48371  -2
  -5  -8   2 54.6088 7.48371   1
   4   8   4 27.0175 5.08212  -2
  -4  -8   2 27.0175 5.08212   1
   3   8   4 85.9915 7.40863  -2
  -3  -8   2 85.9915 7.40863   1
   2   8   4 117.603 8.62305  -2
  -2  -8   2 117.603 8.62305   1
   1   8   4 57.8864 6.83920  -2
  -1  -8   2 57.8864 6.83920   1
   0   8   4 38.3908 7.48694  -2
   0  -8   2 38.3908 7.48694   1
   1  -8   2 53.7766 4.39961   1
   2  -8   2 28.5246 3.09849   1
   3  -8   2 36.3506 4.21848   1
   4  -8   2 188.580 14.0886   1
   5  -8   2 34.2487 5.03011   1
   6  -8   2 4.13458 3.16448   1
   7  -8   2 3.06763 4.31018   1
  -9  -7   2 4.16111 4.25537   1
   8   7   3 66.9974 10.6104  -2
  -8  -7   2 66.9974 10.6104   1
   7   7   3 113.428 13.5875  -2
  -7  -7   2 113.428 13.5875   1
   6   7   3 58.6752 7.27815  -2
  -6  -7   2 58.6752 7.27815   1
   5   7   3 59.6105 4.90434  -2
  -5  -7   2 59.6105 4.90434   1
   4   7   3 148.042 8.25825  -2
  -4  -7   2 148.042 8.25825   1
   3   7   3 102.237 5.98651  -2
  -3  -7   2 102.237 5.98651   1
   2   7   3 81.1249 5.34824  -2
  -2  -7   2 81.1249 5.34824   1
   1   7   3 48.9330 4.16048  -2
  -1  -7   2 48.9330 4.16048   1
   0   7   3 39.3752 4.38014  -2
   0  -7   2 39.3752 4.38014   1
  -1   7   3 145.947 12.6073  -2
   1  -7   2 145.947 12.6073   1
  -2   7   3 48.6292 5.22717  -2
   2  -7   2 48.6292 5.22717   1
  -3   7   3 71.5522 8.88513  -2
   3  -7   2 71.5522 8.88513   1
  -4   7   3 128.578 14.6086  -2
   4  -7   2 128.578 14.6086   1
   5  -7   2 6.55973 2.85259   1
   6  -7   2 14.3121 3.52386   1
   7  -7   2 24.8099 4.53084   1
  -9  -6   2 -0.7003 3.15824   1
  -8  -6   2 17.3665 3.43370   1
  -7  -6   2 28.1024 3.64130   1
  -6  -6   2 42.6471 3.81936   1
   5   6   2 202.969 19.6890  -2
  -5  -6   2 202.969 19.6890   1
   4   6   2 30.6554 4.22678  -2
  -4  -6   2 30.6554 4.22678   1
   3   6   2 72.4866 5.24447  -2
  -3  -6   2 72.4866 5.24447   1
   2   6   2 76.3708 5.02388  -2
  -2  -6   2 76.3708 5.02388   1
   1   6   2 71.8137 5.80048  -2
  -1  -6   2 71.8137 5.80048   1
   0   6   2 43.8561 4.33997  -2
   0  -6   2 43.8561 4.33997   1
  -1   6   2 347.667 22.2122  -2
   1  -6   2 347.667 22.2122   1
  -2   6   2 359.017 22.9030  -2
   2  -6   2 359.017 22.9030   1
  -3   6   2 154.504 15.7341  -2
   3  -6   2 154.504 15.7341   1
   4  -6   2 234.576 14.3883   1
   5  -6   2 59.8778 5.61141   1
   6  -6   2 2.36595 2.36911   1
   7  -6   2 13.1299 3.49879   1
   8  -6   2 26.5488 5.64600   1
  -9  -5   2 36.0241 4.73246   1
  -8  -5   2 10.4972 2.99328   1
  -7  -5   2 77.9222 6.33774   1
  -6  -5   2 22.9564 2.41538   1
  -5  -5   2 103.257 6.13007   1
  -4  -5   2 111.867 6.88369   1
  -3  -5   2 60.6311 5.38199   1
  -2  -5   2 14.8316 2.13670   1
   1   5   2 588.132 74.6618  -2
  -1  -5   2 588.132 74.6618   1
   0  -5   2 82.4255 5.36205   1
   1  -5   2 370.183 20.9282   1
  -2   5   2 233.229 31.2197  -2
   2  -5   2 233.229 31.2197   1
  -3   5   1 350.598 45.1118  -2
   3  -5   2 350.598 45.1118   1
  -3   5   2 454.793 58.5157  -2
   3  -5   2 454.793 58.5157   1
  -4   5   2 66.4733 8.50541  -2
   4  -5   2 66.4733 8.50541   1
  -5   5   2 32.5082 9.30011  -2
   5  -5   2 32.5082 9.30011   1
  -6   5   2 54.7884 12.5582  -2
   6  -5   2 54.7884 12.5582   1
  -7   5   2 63.4830 14.2350  -2
   7  -5   2 63.4830 14.2350   1
   8  -5   2 27.5634 5.49129   1
   9  -5   2 1.06565 3.63209   1
 -10  -4   2 6.48424 3.72455   1
  -9  -4   2 13.9194 2.69745   1
  -8  -4   2 13.7068 2.99856   1
  -7  -4   2 198.108 14.1683   1
  -6  -4   2 34.8112 3.65635   1
  -5  -4   2 7.30664 1.54633   1
   4   4   1 122.068 12.3269  -2
  -4  -4   2 122.068 12.3269   1
   3   4   1 340.494 21.4722  -2
  -3  -4   2 340.494 21.4722   1
   2   4   1 181.144 11.3375  -2
  -2  -4   2 181.144 11.3375   1
   1   4   1 456.358 28.3214  -2
  -1  -4   2 456.358 28.3214   1
   0   4   1 689.824 34.2557  -2
   0  -4   2 689.824 34.2557   1
  -1   4   1 127.393 6.30907  -2
   1  -4   2 127.393 6.30907   1
  -2   4   1 257.267 12.5023  -2
   2  -4   2 257.267 12.5023   1
  -3   4   1 155.962 8.57387  -2
   3  -4   2 155.962 8.57387   1
  -4   4   1 364.306 20.9335  -2
   4  -4   2 364.306 20.9335   1
  -5   4   1 45.8019 4.20241  -2
   5  -4   2 45.8019 4.20241   1
  -6   4   1 34.5245 4.56387  -2
   6  -4   2 34.5245 4.56387   1
  -7   4   1 20.1110 5.51980  -2
   7  -4   2 20.1110 5.51980   1
  -8   4   1 6.91184 7.32236  -2
   8  -4   2 6.91184 7.32236   1
  -9   4   1 19.7466 8.79603  -2
   9  -4   2 19.7466 8.79603   1
 -10  -3   2 -0.5197 3.18336   1
  -9  -3   2 62.3106 5.45938   1
  -8  -3   2 60.8976 5.11100   1
  -7  -3   2 86.3127 6.66225   1
  -6  -3   2 7.21184 1.72100   1
  -5  -3   2 204.860 11.1552   1
  -4  -3   2 56.2255 3.01695   1
  -3  -3   2 425.377 17.7522   1
   2   3   0 67.8721 9.90291  -2
  -2  -3   2 67.8721 9.90291   1
   1   3   0 230.867 13.0059  -2
  -1  -3   2 230.867 13.0059   1
   0   3   0 994.416 60.4237  -2
   0  -3   2 994.416 60.4237   1
  -1   3   0 405.894 16.6378  -2
   1  -3   2 405.894 16.6378   1
  -2   3   0 132.824 5.82318  -2
   2  -3   2 132.824 5.82318   1
  -3   3   0 168.173 6.99123  -2
   3  -3   2 168.173 6.99123   1
  -4   3   0 263.730 13.6938  -2
   4  -3   2 263.730 13.6938   1
  -5   3   0 289.189 16.8175  -2
   5  -3   2 289.189 16.8175   1
  -6   3   0 63.2914 6.58137  -2
   6  -3   2 63.2914 6.58137   1
  -7   3   0 113.506 10.4090  -2
   7  -3   2 113.506 10.4090   1
  -8   3   1 19.4174 9.37176  -2
   8  -3   2 19.4174 9.37176   1
  -8   3   0 23.8353 5.41140  -2
   8  -3   2 23.8353 5.41140   1
  -9   3   0 35.7813 7.99910  -2
   9  -3   2 35.7813 7.99910   1
  -9   3   1 14.0116 10.0391  -2
   9  -3   2 14.0116 10.0391   1
  10  -3   2 40.8871 13.5947   1
 -10  -2   2 52.5167 7.50185   1
  -9  -2   2 57.0112 4.66582   1
  -8  -2   2 97.4392 6.85331   1
  -7  -2   2 75.9290 5.48872   1
  -6  -2   2 1.82000 1.12010   1
  -5  -2   2 3.40076 1.21754   1
  -4  -2   2 321.405 15.4210   1
  -3  -2   2 484.135 19.0814   1
  -2  -2   2 94.6433 3.37974   1
  -1  -2   2 45.4027 1.67664   1
   0  -2   2 5302.23 224.794   1
   1  -2   2 4226.64 180.962   1
   2  -2   2 123.865 4.84689   1
   3  -2   1 986.540 86.2217  -2
   3  -2   2 986.540 86.2217   1
  -4   2   0 325.181 30.1456  -2
   4  -2   2 325.181 30.1456   1
   4  -2   1 316.075 39.0632  -2
   4  -2   2 316.075 39.0632   1
  -5   2   0 8.75301 2.31386  -2
   5  -2   2 8.75301 2.31386   1
  -6   2   0 26.5422 3.17489  -2
   6  -2   2 26.5422 3.17489   1
  -7   2   0 77.2638 9.52760  -2
   7  -2   2 77.2638 9.52760   1
  -8   2   0 48.1110 11.3311  -2
   8  -2   2 48.1110 11.3311   1
  -9   2   0 34.2938 11.6099  -2
   9  -2   2 34.2938 11.6099   1
  10  -2   1 76.3224 17.2508  -2
  10  -2   2 76.3224 17.2508   1
 -10   2   0 51.9457 14.8443  -2
  10  -2   2 51.9457 14.8443   1
 -10  -1   2 -4.0626 3.31588   1
  -9  -1   2 -2.4983 3.87920   1
  -8  -1   2 -1.2847 1.98711   1
  -7  -1   2 95.5148 6.47231   1
  -6  -1   2 102.134 6.44672   1
  -5  -1   2 152.497 8.52432   1
  -4  -1   2 7.17869 0.88225   1
  -3  -1   2 46.5160 2.16639   1
  -2  -1   2 437.867 14.7544   1
  -1  -1   2 486.412 19.6964   1
   0  -1   2 135.695 8.34528   1
   1  -1   2 1750.52 66.6556   1
   2  -1   1 1401.39 174.433  -2
   2  -1   2 1401.39 174.433   1
   3  -1   1 52.3887 2.97056  -2
   3  -1   2 52.3887 2.97056   1
   4  -1   1 82.7652 4.04744  -2
   4  -1   2 82.7652 4.04744   1
   5  -1   1 216.319 10.5141  -2
   5  -1   2 216.319 10.5141   1
   6  -1   1 70.1452 4.50942  -2
   6  -1   2 70.1452 4.50942   1
   7  -1   1 45.8031 3.74449  -2
   7  -1   2 45.8031 3.74449   1
   8  -1   1 124.667 13.8758  -2
   8  -1   2 124.667 13.8758   1
   9  -1   1 165.493 14.8170  -2
   9  -1   2 165.493 14.8170   1
  10  -1   1 23.3758 11.8282  -2
  10  -1   2 23.3758 11.8282   1
 -10  -1   2 20.7776 10.3847  -2
 -10   0   2 20.7776 10.3847   1
  -9   0   2 20.2467 4.54638   1
  -8   0   2 6.77064 2.89016   1
  -7   0   2 17.8357 3.30718   1
  -6   0   2 12.5023 2.13503   1
  -5   0   2 88.4661 5.03140   1
  -4   0   2 6.09840 1.16935   1
  -3   0   2 948.504 38.6890   1
  -2   0   2 6136.87 207.413   1
  -1   0   2 81.5000 5.30412   1
   0   0   2 10.2367 1.15643   1
   1   0   2 209.221 14.7131   1
   2   0   2 5602.61 702.441  -2
   2   0   2 5602.61 702.441   1
   3   0   2 41.1542 4.86624  -2
   3   0   2 41.1542 4.86624   1
   4   0   2 97.3356 5.37053  -2
   4   0   2 97.3356 5.37053   1
   5   0   2 256.530 12.4703  -2
   5   0   2 256.530 12.4703   1
   6   0   2 102.235 6.07809  -2
   6   0   2 102.235 6.07809   1
   7   0   2 27.4176 2.52235  -2
   7   0   2 27.4176 2.52235   1
   8   0   2 25.5768 3.32136  -2
   8   0   2 25.5768 3.32136   1
   9   0   2 190.262 13.7678  -2
   9   0   2 190.262 13.7678   1
  10   0   2 -4.2716 4.99155  -2
  10   0   2 -4.2716 4.99155   1
  10   0   1 10.6337 10.0472  -2
  10   0   2 10.6337 10.0472   1
 -10   1   2 0.23841 3.52197   1
  -9   1   2 2.78125 3.42502   1
  -8   1   2 10.4206 3.03545   1
  -7   1   2 79.4526 6.97226   1
  -6   1   2 27.1839 2.89426   1
  -5   1   2 36.4028 2.95670   1
  -4   1   2 19.4843 1.78400   1
  -3   1   2 344.513 12.8277   1
  -2   1   2 1810.01 64.1509   1
  -1   1   2 4403.31 191.946   1
   0   1   2 1612.57 137.419   1
   1   1   2 736.581 31.8437   1
   2   1   2 22.7820 1.06456   1
   3   1   2 319.432 11.5124   1
   4   1   2 138.406 6.48633   1
   5   1   3 397.293 48.6909  -2
   5   1   2 397.293 48.6909   1
   6   1   3 62.1311 10.8524  -2
   6   1   2 62.1311 10.8524   1
   7   1   3 51.1400 11.4867  -2
   7   1   2 51.1400 11.4867   1
   8   1   3 5.87718 5.07598  -2
   8   1   2 5.87718 5.07598   1
   9   1   3 6.40473 5.63664  -2
   9   1   2 6.40473 5.63664   1
   9   1   2 11.6489 9.29642  -2
   9   1   2 11.6489 9.29642   1
  10   1   3 26.4871 10.9942  -2
  10   1   2 26.4871 10.9942   1
  10   1   2 7.82306 9.30398  -2
  10   1   2 7.82306 9.30398   1
 -10   1   4 25.7254 11.3475  -2
 -10   2   2 25.7254 11.3475   1
  -9   1   4 79.2081 15.7521  -2
  -9   2   2 79.2081 15.7521   1
  -8   2   2 27.2726 4.86835   1
  -7   2   2 349.588 20.6443   1
  -6   2   2 3.85336 1.84407   1
  -5   2   2 87.5856 4.45692   1
  -4   2   2 81.0318 3.99350   1
  -3   2   2 417.082 17.1891   1
  -2   2   2 1512.92 51.6497   1
  -1   2   2 9.94010 0.64930   1
   0   2   2 1079.48 35.1925   1
   1   2   2 50.5262 2.11051   1
   2   2   2 60.4802 2.29890   1
   3   2   2 16.1128 1.07516   1
   4   2   3 48.0788 7.82996  -2
   4   2   2 48.0788 7.82996   1
   5   2   3 204.075 27.9731  -2
   5   2   2 204.075 27.9731   1
   6   2   3 323.560 16.7723  -2
   6   2   2 323.560 16.7723   1
   7   2   3 842.127 45.7197  -2
   7   2   2 842.127 45.7197   1
   8   2   3 13.4659 3.66085  -2
   8   2   2 13.4659 3.66085   1
   9   2   3 18.7538 5.01272  -2
   9   2   2 18.7538 5.01272   1
  10   2   3 13.5939 6.63317  -2
  10   2   2 13.5939 6.63317   1
  -9   2   4 6.16093 5.80074  -2
  -9   3   2 6.16093 5.80074   1
  -8   2   4 86.8654 15.5225  -2
  -8   3   2 86.8654 15.5225   1
  -7   3   2 52.0240 6.15366   1
  -6   3   2 3.83937 2.00395   1
  -5   3   2 72.8833 4.20383   1
  -4   3   2 96.0668 5.16090   1
  -3   3   2 58.3423 2.98728   1
  -2   3   2 70.1838 2.86339   1
  -1   3   2 1420.07 48.3655   1
   0   3   2 216.298 8.16933   1
   1   3   2 284.815 9.43816   1
   2   3   2 80.8348 3.15896   1
   3   3   2 9.21258 1.07966   1
   4   3   4 908.082 83.4277  -2
   4   3   2 908.082 83.4277   1
   5   3   4 161.007 10.8635  -2
   5   3   2 161.007 10.8635   1
   6   3   4 247.282 16.5727  -2
   6   3   2 247.282 16.5727   1
   7   3   4 72.0008 5.40463  -2
   7   3   2 72.0008 5.40463   1
   8   3   4 0.98927 3.42250  -2
   8   3   2 0.98927 3.42250   1
   9   3   4 1.15012 2.80817  -2
   9   3   2 1.15012 2.80817   1
  10   3   4 34.9229 4.45588  -2
  10   3   2 34.9229 4.45588   1
  -9   3   5 43.0741 8.73901  -2
  -9   4   2 43.0741 8.73901   1
  -8   3   5 30.3663 9.62612  -2
  -8   4   2 30.3663 9.62612   1
  -7   4   2 47.9356 5.24195   1
  -6   4   2 4.83918 2.13904   1
  -5   4   2 26.7595 2.84520   1
  -4   4   2 243.643 13.0724   1
  -3   4   2 8.55094 1.28935   1
  -2   4   2 0.66551 0.71837   1
  -1   4   2 237.182 10.6779   1
   0   4   2 28.2925 2.56395   1
   1   4   2 24.2239 1.72260   1
   2   4   2 208.432 8.87358   1
   3   4   2 211.359 9.89151   1
   4   4   2 293.388 13.4220   1
   5   4   2 502.315 22.5859   1
   6   4   5 700.303 85.0712  -2
   6   4   2 700.303 85.0712   1
   7   4   5 206.682 27.9506  -2
   7   4   2 206.682 27.9506   1
   8   4   5 22.3378 8.86110  -2
   8   4   2 22.3378 8.86110   1
   9   4   5 78.3163 10.5202  -2
   9   4   2 78.3163 10.5202   1
  10   4   5 75.6317 9.06567  -2
  10   4   2 75.6317 9.06567   1
  -8   5   2 7.79130 4.64770   1
  -7   5   2 45.5147 6.43947   1
  -6   5   2 35.5451 4.16907   1
  -5   5   2 17.4874 2.61884   1
  -4   5   2 45.9433 3.25314   1
  -3   5   2 118.313 5.48953   1
  -2   5   2 4.01139 1.19707   1
  -1   5   2 8.05452 1.15298   1
   0   5   2 62.3518 3.87319   1
   1   5   2 2.62324 0.98656   1
   2   5   2 88.2809 6.63662   1
   3   5   2 198.701 9.41141   1
   4   5   2 60.6426 3.71022   1
   5   5   2 298.805 13.7885   1
   6   5   2 48.0543 3.52256   1
   7   5   2 49.4989 4.44400   1
   8   5   5 210.618 21.8986  -2
   8   5   2 210.618 21.8986   1
   9   5   5 57.1184 9.94516  -2
   9   5   2 57.1184 9.94516   1
  10   5   5 43.7013 12.3168  -2
  10   5   2 43.7013 12.3168   1
  -8   5   6 25.9911 6.12509  -2
  -8   6   2 25.9911 6.12509   1
  -7   5   6 12.2452 6.40564  -2
  -7   6   2 12.2452 6.40564   1
  -6   5   6 119.678 19.7773  -2
  -6   6   2 119.678 19.7773   1
  -5   6   2 18.4552 3.52982   1
  -4   6   2 10.8618 2.21679   1
  -3   6   2 31.4305 2.98855   1
  -2   6   2 22.5642 1.98271   1
  -1   6   2 468.432 22.4388   1
   0   6   2 63.5176 4.08725   1
   1   6   2 6.35264 1.45198   1
   2   6   2 118.000 5.83553   1
   3   6   2 41.1420 4.13230   1
   4   6   2 8.90415 1.63066   1
   5   6   2 110.825 6.16119   1
   6   6   2 8.92050 1.99063   1
   7   6   2 17.0353 3.01494   1
   8   6   6 38.9909 11.7774  -2
   8   6   2 38.9909 11.7774   1
   9   6   6 28.3953 7.61470  -2
   9   6   2 28.3953 7.61470   1
  -7   6   7 101.394 11.0560  -2
  -7   7   2 101.394 11.0560   1
  -6   6   7 138.548 13.1523  -2
  -6   7   2 138.548 13.1523   1
  -5   6   7 22.9970 6.32843  -2
  -5   7   2 22.9970 6.32843   1
  -4   6   7 244.262 34.9055  -2
  -4   7   2 244.262 34.9055   1
  -3   7   2 23.6448 2.56003   1
  -2   7   2 26.5772 2.63992   1
  -1   7   2 78.4019 5.60160   1
   0   7   2 146.367 9.35880   1
   1   7   2 60.7674 4.54879   1
   2   7   2 135.280 6.93979   1
   3   7   2 43.1153 4.05139   1
   4   7   2 33.7689 2.91748   1
   5   7   2 66.9938 4.31867   1
   6   7   2 36.2618 3.30602   1
   7   7   2 34.8413 4.03985   1
   8   7   2 255.059 15.0322   1
   9   7   2 21.8529 4.27209   1
  -6   8   2 21.1165 5.41151   1
  -5   8   2 73.5716 8.90978   1
  -4   8   2 119.044 11.6501   1
  -3   8   2 24.1819 4.32340   1
  -2   8   2 51.0037 4.78002   1
  -1   8   2 3.73815 1.90890   1
   0   8   2 44.8186 3.93104   1
   1   8   2 105.079 7.13593   1
   2   8   2 78.9537 5.72656   1
   3   8   2 91.4295 5.49267   1
   4   8   2 33.7235 2.99322   1
   5   8   2 78.2845 5.19879   1
   6   8   2 21.6506 2.97116   1
   7   8   2 10.7655 3.11829   1
   8   8   2 41.9411 4.86499   1
  -5   8   8 11.5607 5.73014  -2
  -5   9   2 11.5607 5.73014   1
  -4   8   8 36.5776 8.05993  -2
  -4   9   2 36.5776 8.05993   1
  -3   8   8 28.7115 10.1577  -2
  -3   9   2 28.7115 10.1577   1
  -2   9   2 16.3864 3.57106   1
  -1   9   2 9.59706 3.01655   1
   0   9   2 -1.0009 2.08799   1
   1   9   2 14.5523 2.78240   1
   2   9   2 23.4605 3.28867   1
   3   9   2 18.2656 2.77016   1
   4   9   2 44.3507 4.13752   1
   5   9   2 41.0802 4.43756   1
   6   9   2 6.98902 2.86178   1
   7   9   2 34.3582 5.09197   1
  -4   9   9 7.98273 6.98039  -2
  -4  10   2 7.98273 6.98039   1
  -3   9   9 5.77580 5.16768  -2
  -3  10   2 5.77580 5.16768   1
  -2   9   9 15.2103 5.66966  -2
  -2  10   2 15.2103 5.66966   1
  -1   9   9 13.6851 6.47311  -2
  -1  10   2 13.6851 6.47311   1
   0   9   9 31.7293 11.5338  -2
   0  10   2 31.7293 11.5338   1
   1  10   2 9.63562 3.10148   1
   2  10   2 52.3217 5.32487   1
   3  10   2 20.7406 3.40843   1
   4  10   2 3.19194 2.56659   1
   5  10   2 52.8750 5.39215   1
   6  10   2 8.20020 3.65861   1
  -2  11   2 6.41005 5.44576   1
  -1  10  10 9.80611 10.7909  -2
  -1  11   2 9.80611 10.7909   1
   0  11   2 8.86623 4.32600   1
   1  11   2 7.61447 3.56542   1
   2  11   2 60.5698 6.10010   1
   3  11   2 28.8197 4.45191   1
   4  11   2 4.45160 3.16068   1
   4  11   5 48.5342 6.23819  -2
  -4 -11   3 48.5342 6.23819   1
   3  11   5 -1.7746 3.64168  -2
  -3 -11   3 -1.7746 3.64168   1
   2  11   5 51.5615 6.09958  -2
  -2 -11   3 51.5615 6.09958   1
   1  11   5 2.80867 6.78498  -2
  -1 -11   3 2.80867 6.78498   1
   0  11   5 8.20921 7.16087  -2
   0 -11   3 8.20921 7.16087   1
   1 -11   3 93.4992 10.7988   1
   2 -11   3 47.2520 7.53063   1
   6  10   4 2.32526 7.68734  -2
  -6 -10   3 2.32526 7.68734   1
   5  10   4 24.4827 6.28453  -2
  -5 -10   3 24.4827 6.28453   1
   4  10   4 5.52037 3.22601  -2
  -4 -10   3 5.52037 3.22601   1
   3  10   4 23.5744 3.88633  -2
  -3 -10   3 23.5744 3.88633   1
   2  10   4 96.6173 7.64917  -2
  -2 -10   3 96.6173 7.64917   1
   1  10   4 29.9661 3.96765  -2
  -1 -10   3 29.9661 3.96765   1
   0  10   4 17.1719 3.95963  -2
   0 -10   3 17.1719 3.95963   1
  -1  10   4 24.0797 7.41109  -2
   1 -10   3 24.0797 7.41109   1
  -2  10   4 12.2576 10.1219  -2
   2 -10   3 12.2576 10.1219   1
  -3  10   4 14.6656 10.5312  -2
   3 -10   3 14.6656 10.5312   1
   4 -10   3 11.5827 3.95360   1
  -7  -9   3 10.5975 3.65265   1
  -6  -9   3 58.5064 6.38322   1
   5   9   3 45.3100 8.01607  -2
  -5  -9   3 45.3100 8.01607   1
   4   9   3 128.647 14.6531  -2
  -4  -9   3 128.647 14.6531   1
   3   9   3 50.7571 7.02624  -2
  -3  -9   3 50.7571 7.02624   1
   2   9   3 42.0966 8.33358  -2
  -2  -9   3 42.0966 8.33358   1
   1   9   4 17.1205 10.6223  -2
  -1  -9   3 17.1205 10.6223   1
   1   9   3 8.56331 9.70243  -2
  -1  -9   3 8.56331 9.70243   1
   0   9   3 -7.6669 7.94082  -2
   0  -9   3 -7.6669 7.94082   1
  -1   9   3 198.675 29.9134  -2
   1  -9   3 198.675 29.9134   1
   2  -9   3 17.1112 3.78614   1
   3  -9   3 31.2940 4.67946   1
   4  -9   3 26.9995 4.61823   1
   5  -9   3 15.7242 3.99608   1
  -8  -8   3 0.19514 2.99929   1
  -7  -8   3 -2.3607 2.83333   1
  -6  -8   3 1.85309 2.51562   1
  -5  -8   3 51.0112 4.30995   1
  -4  -8   3 13.6431 3.09718   1
  -3  -8   3 26.3106 3.79714   1
   2   8   3 46.3912 6.03647  -2
  -2  -8   3 46.3912 6.03647   1
   1   8   3 86.5833 8.65604  -2
  -1  -8   3 86.5833 8.65604   1
   0   8   3 65.3235 9.67514  -2
   0  -8   3 65.3235 9.67514   1
  -1   8   3 102.805 12.3646  -2
   1  -8   3 102.805 12.3646   1
  -2   8   3 64.0610 12.9452  -2
   2  -8   3 64.0610 12.9452   1
  -3   8   3 66.4175 9.60970  -2
   3  -8   3 66.4175 9.60970   1
  -4   8   3 144.429 15.7724  -2
   4  -8   3 144.429 15.7724   1
   5  -8   3 21.4633 4.00168   1
   6  -8   3 7.98124 3.34213   1
   7  -8   3 12.8382 5.10739   1
  -8  -7   3 12.7462 4.20874   1
  -7  -7   3 21.4035 3.84419   1
  -6  -7   3 23.2160 3.41304   1
  -5  -7   3 106.990 6.47017   1
   4   7   2 153.051 12.6810  -2
  -4  -7   3 153.051 12.6810   1
   3   7   2 105.671 9.34483  -2
  -3  -7   3 105.671 9.34483   1
   2   7   2 103.059 7.95035  -2
  -2  -7   3 103.059 7.95035   1
   1   7   2 30.5456 3.38127  -2
  -1  -7   3 30.5456 3.38127   1
   0   7   2 85.8798 6.23342  -2
   0  -7   3 85.8798 6.23342   1
  -1   7   2 118.910 8.85203  -2
   1  -7   3 118.910 8.85203   1
  -2   7   2 99.9390 6.79451  -2
   2  -7   3 99.9390 6.79451   1
  -3   7   2 134.430 10.6540  -2
   3  -7   3 134.430 10.6540   1
  -4   7   2 106.533 7.73439  -2
   4  -7   3 106.533 7.73439   1
  -5   7   2 6.53965 4.59353  -2
   5  -7   3 6.53965 4.59353   1
  -6   7   2 57.2080 9.01857  -2
   6  -7   3 57.2080 9.01857   1
  -7   7   2 61.4635 14.9074  -2
   7  -7   3 61.4635 14.9074   1
  -9  -6   3 11.2335 4.57039   1
  -8  -6   3 15.9596 3.88901   1
  -7  -6   3 37.5716 4.14832   1
  -6  -6   3 5.50157 2.36055   1
  -5  -6   3 48.5870 3.91630   1
  -4  -6   3 143.649 7.90329   1
  -3  -6   3 10.3131 1.59049   1
   2   6   1 161.136 20.3428  -2
  -2  -6   3 161.136 20.3428   1
   1   6   1 36.1735 4.10998  -2
  -1  -6   3 36.1735 4.10998   1
   0   6   1 36.2326 3.95821  -2
   0  -6   3 36.2326 3.95821   1
  -1   6   1 91.3847 8.82720  -2
   1  -6   3 91.3847 8.82720   1
  -2   6   1 621.965 34.8733  -2
   2  -6   3 621.965 34.8733   1
  -3   6   1 185.203 9.09169  -2
   3  -6   3 185.203 9.09169   1
  -4   6   1 365.650 27.2759  -2
   4  -6   3 365.650 27.2759   1
  -5   6   2 40.4762 11.1359  -2
   5  -6   3 40.4762 11.1359   1
  -5   6   1 49.8297 8.62750  -2
   5  -6   3 49.8297 8.62750   1
  -6   6   2 26.0625 10.5497  -2
   6  -6   3 26.0625 10.5497   1
  -6   6   1 5.94823 9.75735  -2
   6  -6   3 5.94823 9.75735   1
  -7   6   2 17.5596 10.1116  -2
   7  -6   3 17.5596 10.1116   1
   8  -6   3 11.8286 4.47834   1
  -9  -5   3 20.6960 3.88388   1
  -8  -5   3 36.6242 4.57885   1
  -7  -5   3 11.6013 2.77503   1
  -6  -5   3 107.054 6.25633   1
  -5  -5   3 4.91521 1.60279   1
  -4  -5   3 25.5006 2.46692   1
  -3  -5   3 290.250 13.2880   1
  -2  -5   3 74.2091 4.05734   1
  -1  -5   3 97.3292 7.28534   1
   0  -5   3 97.7699 5.83539   1
  -1   5   1 740.904 93.4271  -2
   1  -5   3 740.904 93.4271   1
  -2   5   1 588.862 51.1199  -2
   2  -5   3 588.862 51.1199   1
  -3   5   1 207.385 19.8160  -2
   3  -5   3 207.385 19.8160   1
  -4   5   1 113.041 12.2849  -2
   4  -5   3 113.041 12.2849   1
  -5   5   1 69.2052 7.82901  -2
   5  -5   3 69.2052 7.82901   1
  -6   5   1 64.9292 7.63209  -2
   6  -5   3 64.9292 7.63209   1
  -7   5   1 80.4700 8.76297  -2
   7  -5   3 80.4700 8.76297   1
  -8   5   1 46.2718 8.96321  -2
   8  -5   3 46.2718 8.96321   1
   9  -5   3 7.61295 3.97458   1
 -10  -4   3 13.8731 4.10489   1
  -9  -4   3 0.51162 2.64085   1
  -8  -4   3 15.3726 2.87279   1
  -7  -4   3 78.5650 6.41611   1
  -6  -4   3 35.2525 3.80790   1
  -5  -4   3 121.250 6.55890   1
  -4  -4   3 -0.8151 1.06096   1
  -3  -4   3 186.793 9.46802   1
  -2  -4   3 174.983 7.34688   1
  -1  -4   3 514.253 21.2462   1
   0  -4   3 621.521 25.5180   1
  -1   4   0 992.978 71.3419  -2
   1  -4   3 992.978 71.3419   1
  -2   4   0 73.7239 4.13735  -2
   2  -4   3 73.7239 4.13735   1
  -3   4   0 347.774 16.7834  -2
   3  -4   3 347.774 16.7834   1
  -4   4   0 113.370 6.73833  -2
   4  -4   3 113.370 6.73833   1
  -5   4   0 10.6552 2.34330  -2
   5  -4   3 10.6552 2.34330   1
  -6   4   0 21.8458 3.57997  -2
   6  -4   3 21.8458 3.57997   1
  -7   4   0 41.7455 4.37886  -2
   7  -4   3 41.7455 4.37886   1
  -8   4   0 21.4755 4.91777  -2
   8  -4   3 21.4755 4.91777   1
  -9   4   0 7.76175 5.93060  -2
   9  -4   3 7.76175 5.93060   1
 -10  -3   3 0.67123 3.29208   1
  -9  -3   3 32.0548 4.22406   1
  -8  -3   3 2.15226 2.08542   1
  -7  -3   3 91.7436 6.35554   1
  -6  -3   3 13.3349 2.38988   1
  -5  -3   3 5.64461 1.44441   1
  -4  -3   3 16.6380 1.43808   1
  -3  -3   3 53.8843 2.84363   1
  -2  -3   3 148.312 5.60843   1
  -1  -3   3 987.139 33.2280   1
   0  -3   3 1914.94 69.3632   1
   1  -3   3 187.238 7.11404   1
   2  -3   1 40.9131 3.34416  -2
   2  -3   3 40.9131 3.34416   1
   3  -3   1 195.113 10.2187  -2
   3  -3   3 195.113 10.2187   1
   4  -3   1 48.4118 3.82798  -2
   4  -3   3 48.4118 3.82798   1
   5  -3   1 85.1182 5.90855  -2
   5  -3   3 85.1182 5.90855   1
   6  -3   1 165.583 9.17396  -2
   6  -3   3 165.583 9.17396   1
   7  -3   1 63.4927 5.38935  -2
   7  -3   3 63.4927 5.38935   1
   8  -3   1 33.1697 5.61671  -2
   8  -3   3 33.1697 5.61671   1
  -9   3   0 35.7037 12.6297  -2
   9  -3   3 35.7037 12.6297   1
   9  -3   1 6.38650 5.92507  -2
   9  -3   3 6.38650 5.92507   1
  10  -3   3 84.2234 19.3226   1
 -10  -3   1 118.096 20.7988  -2
 -10  -2   3 118.096 20.7988   1
  -9  -2   3 38.4039 5.11591   1
  -8  -2   3 16.0332 2.83464   1
  -7  -2   3 -0.4652 1.78798   1
  -6  -2   3 47.5345 3.77777   1
  -5  -2   3 50.0077 3.51495   1
  -4  -2   3 7.65401 1.05453   1
  -3  -2   3 10.7634 0.93177   1
  -2  -2   3 50.4402 1.85156   1
  -1  -2   3 928.207 35.5603   1
   0  -2   3 989.394 45.1185   1
   1  -2   3 4.53261 0.61761   1
   2  -2   3 163.530 5.82964   1
   3  -2   3 560.864 24.5890   1
   4  -2   3 466.645 21.6668   1
   5  -2   2 3.82259 2.71116  -2
   5  -2   3 3.82259 2.71116   1
   6  -2   1 468.472 61.2387  -2
   6  -2   3 468.472 61.2387   1
   7  -2   1 49.0877 10.9121  -2
   7  -2   3 49.0877 10.9121   1
   8  -2   1 12.2530 5.77728  -2
   8  -2   3 12.2530 5.77728   1
   9  -2   1 26.8420 10.7419  -2
   9  -2   3 26.8420 10.7419   1
  10  -2   1 50.5924 13.2159  -2
  10  -2   3 50.5924 13.2159   1
 -10  -2   2 43.0750 8.82433  -2
 -10  -1   3 43.0750 8.82433   1
  -9  -2   2 12.0997 6.76644  -2
  -9  -1   3 12.0997 6.76644   1
  -8  -1   3 155.609 11.5375   1
  -7  -1   3 27.1075 2.81506   1
  -6  -1   3 68.1329 4.80483   1
  -5  -1   3 55.3617 3.94930   1
  -4  -1   3 100.755 4.90841   1
  -3  -1   3 151.236 6.12226   1
  -2  -1   3 9999.99 346.752   1
  -1  -1   3 2494.25 114.464   1
   0  -1   3 1900.08 91.8756   1
   1  -1   3 124.382 4.69728   1
   2  -1   3 173.142 6.01536   1
   3  -1   3 195.557 7.84667   1
   4  -1   2 15.7729 3.58003  -2
   4  -1   3 15.7729 3.58003   1
   5  -1   2 111.740 6.39695  -2
   5  -1   3 111.740 6.39695   1
   6  -1   2 37.6445 3.12239  -2
   6  -1   3 37.6445 3.12239   1
   7  -1   2 766.108 38.6279  -2
   7  -1   3 766.108 38.6279   1
   8  -1   2 41.9635 5.00323  -2
   8  -1   3 41.9635 5.00323   1
   9  -1   2 144.208 11.2292  -2
   9  -1   3 144.208 11.2292   1
  10  -1   2 8.38141 6.46265  -2
  10  -1   3 8.38141 6.46265   1
 -10  -1   3 4.14244 5.97968  -2
 -10   0   3 4.14244 5.97968   1
  -9  -1   3 -0.6723 5.89288  -2
  -9   0   3 -0.6723 5.89288   1
  -8  -1   3 68.3687 8.95223  -2
  -8   0   3 68.3687 8.95223   1
  -7   0   3 288.060 18.9873   1
  -6   0   3 14.2178 2.60942   1
  -5   0   3 185.149 10.0046   1
  -4   0   3 85.6596 4.66419   1
  -3   0   3 42.3382 2.14882   1
  -2   0   3 1829.44 64.5039   1
  -1   0   3 368.319 14.9527   1
   0   0   3 28.2346 3.62290   1
   1   0   3 4600.82 194.139   1
   2   0   3 405.310 14.8762   1
   3   0   3 195.300 7.42809   1
   4   0   3 16.7072 1.61181   1
   5   0   3 404.990 35.0373  -2
   5   0   3 404.990 35.0373   1
   6   0   3 69.7839 5.00435  -2
   6   0   3 69.7839 5.00435   1
   7   0   3 1025.18 62.3463  -2
   7   0   3 1025.18 62.3463   1
   8   0   3 247.325 15.1786  -2
   8   0   3 247.325 15.1786   1
   9   0   3 10.9628 4.32632  -2
   9   0   3 10.9628 4.32632   1
  10   0   3 4.75993 5.53772  -2
  10   0   3 4.75993 5.53772   1
 -10   0   4 6.50475 8.59427  -2
 -10   1   3 6.50475 8.59427   1
  -9   0   3 28.8031 10.0531  -2
  -9   1   3 28.8031 10.0531   1
  -9   0   4 14.6088 8.26390  -2
  -9   1   3 14.6088 8.26390   1
  -8   0   4 22.9433 8.58983  -2
  -8   1   3 22.9433 8.58983   1
  -7   1   3 0.55101 2.12185   1
  -6   1   3 -0.7367 1.35299   1
  -5   1   3 31.7423 2.55921   1
  -4   1   3 647.165 30.4773   1
  -3   1   3 120.683 4.60248   1
  -2   1   3 188.443 7.23415   1
  -1   1   3 203.400 7.40906   1
   0   1   3 6.77984 0.35045   1
   1   1   3 305.601 10.8679   1
   2   1   3 7697.51 268.975   1
   3   1   3 61.4494 2.52529   1
   4   1   3 0.71566 0.82680   1
   5   1   3 26.2498 2.02661   1
   6   1   4 46.6671 9.22229  -2
   6   1   3 46.6671 9.22229   1
   7   1   3 27.1484 9.46509  -2
   7   1   3 27.1484 9.46509   1
   7   1   4 29.9225 7.90346  -2
   7   1   3 29.9225 7.90346   1
   8   1   4 21.1851 5.82368  -2
   8   1   3 21.1851 5.82368   1
   9   1   4 15.3317 6.43636  -2
   9   1   3 15.3317 6.43636   1
  10   1   3 21.9105 6.48991   1
 -10   1   5 153.078 25.5355  -2
 -10   2   3 153.078 25.5355   1
  -9   1   4 14.1978 5.91215  -2
  -9   2   3 14.1978 5.91215   1
  -8   1   4 80.0889 10.4343  -2
  -8   2   3 80.0889 10.4343   1
  -7   1   4 94.0186 14.9516  -2
  -7   2   3 94.0186 14.9516   1
  -6   2   3 9.54646 2.11176   1
  -5   2   3 31.5467 2.51938   1
  -4   2   3 322.864 14.1417   1
  -3   2   3 77.8939 3.44144   1
  -2   2   3 183.198 7.10429   1
  -1   2   3 1158.80 41.4394   1
   0   2   3 17.0632 0.85207   1
   1   2   3 303.709 9.70571   1
   2   2   3 63.0357 2.33898   1
   3   2   3 1541.94 57.7333   1
   4   2   3 122.881 5.68359   1
   5   2   3 522.584 22.1116   1
   6   2   4 825.861 100.297  -2
   6   2   3 825.861 100.297   1
   7   2   4 69.7307 6.92329  -2
   7   2   3 69.7307 6.92329   1
   8   2   4 -1.5668 3.37183  -2
   8   2   3 -1.5668 3.37183   1
   9   2   4 2.06308 3.31935  -2
   9   2   3 2.06308 3.31935   1
  10   2   4 -2.6210 4.40045  -2
  10   2   3 -2.6210 4.40045   1
  -9   2   5 22.3438 5.51209  -2
  -9   3   3 22.3438 5.51209   1
  -8   2   5 56.6847 7.34230  -2
  -8   3   3 56.6847 7.34230   1
  -7   2   5 20.4879 5.74885  -2
  -7   3   3 20.4879 5.74885   1
  -6   2   5 160.643 16.2933  -2
  -6   3   3 160.643 16.2933   1
  -5   3   3 2.10023 1.05029   1
  -4   3   3 110.524 5.31096   1
  -3   3   3 305.643 12.9352   1
  -2   3   3 555.282 19.8477   1
  -1   3   3 3.35098 0.52345   1
   0   3   3 74.5456 2.58806   1
   1   3   3 5.68604 0.59652   1
   2   3   3 70.4663 3.01058   1
   3   3   3 165.941 6.92297   1
   4   3   3 12.0986 1.27425   1
   5   3   3 123.205 5.89952   1
   6   3   5 122.925 17.8167  -2
   6   3   3 122.925 17.8167   1
   7   3   5 30.9374 9.06475  -2
   7   3   3 30.9374 9.06475   1
   8   3   5 -7.3342 5.09129  -2
   8   3   3 -7.3342 5.09129   1
   9   3   5 30.2951 5.84156  -2
   9   3   3 30.2951 5.84156   1
  10   3   5 18.0820 4.39438  -2
  10   3   3 18.0820 4.39438   1
  -9   3   6 45.6360 9.21951  -2
  -9   4   3 45.6360 9.21951   1
  -8   3   6 24.1974 6.47530  -2
  -8   4   3 24.1974 6.47530   1
  -7   3   6 5.81320 4.83565  -2
  -7   4   3 5.81320 4.83565   1
  -6   3   6 127.601 14.1428  -2
  -6   4   3 127.601 14.1428   1
  -5   3   6 67.4802 11.4152  -2
  -5   4   3 67.4802 11.4152   1
  -4   4   3 13.9557 1.92140   1
  -3   4   3 27.6087 1.85909   1
  -2   4   3 20.5674 1.47421   1
  -1   4   3 359.749 15.9529   1
   0   4   3 34.9778 2.10892   1
   1   4   3 96.4469 4.11887   1
   2   4   3 15.2582 1.46133   1
   3   4   3 78.0101 4.25665   1
   4   4   3 135.341 6.75268   1
   5   4   3 116.392 6.05956   1
   6   4   3 21.4741 2.53751   1
   7   4   3 31.2344 3.35109   1
   8   4   6 31.0238 10.9001  -2
   8   4   3 31.0238 10.9001   1
   9   4   6 115.793 19.0175  -2
   9   4   3 115.793 19.0175   1
  10   4   6 189.867 20.3062  -2
  10   4   3 189.867 20.3062   1
  -8   4   6 102.581 22.4432  -2
  -8   4   7 102.581 22.4432  -2
  -8   5   3 102.581 22.4432   1
  -7   5   3 6.62316 5.56056   1
  -6   5   3 17.1763 4.11885   1
  -5   4   6 40.0508 9.83879  -2
  -5   5   3 40.0508 9.83879   1
  -4   5   3 168.398 8.85170   1
  -3   5   3 29.3958 2.14073   1
  -2   5   3 3.76008 1.10647   1
  -1   5   3 2.87344 0.96463   1
   0   5   3 5.95670 1.29032   1
   1   5   3 2.37241 0.93131   1
   2   5   3 332.497 14.0020   1
   3   5   3 63.0009 5.35299   1
   4   5   3 211.445 10.1229   1
   5   5   3 39.2093 3.21997   1
   6   5   3 26.5497 2.84402   1
   7   5   3 35.2877 3.57266   1
   8   5   3 118.691 8.91615   1
   9   5   3 41.0879 5.00146   1
  10   5   3 43.6041 5.47255   1
  -8   5   7 75.3128 8.76998  -2
  -8   6   3 75.3128 8.76998   1
  -7   5   7 22.8550 5.68363  -2
  -7   6   3 22.8550 5.68363   1
  -6   5   7 88.4916 7.71130  -2
  -6   6   3 88.4916 7.71130   1
  -5   5   7 36.9539 4.59375  -2
  -5   6   3 36.9539 4.59375   1
  -4   5   7 112.751 8.58531  -2
  -4   6   3 112.751 8.58531   1
  -3   5   7 13.7572 3.18723  -2
  -3   6   3 13.7572 3.18723   1
  -2   5   7 252.149 35.9347  -2
  -2   6   3 252.149 35.9347   1
  -1   6   3 33.5411 3.57056   1
   0   6   3 7.30188 1.63051   1
   1   6   3 9.96861 1.35700   1
   2   6   3 58.7856 3.46374   1
   3   6   3 2.85435 1.42294   1
   4   6   3 85.2040 6.93732   1
   5   6   3 129.681 6.94524   1
   6   6   3 35.5347 3.33033   1
   7   6   3 6.69000 2.50266   1
   8   6   3 47.0670 5.27913   1
   9   6   3 5.36215 3.12050   1
  -7   6   8 50.1472 7.75590  -2
  -7   7   3 50.1472 7.75590   1
  -6   6   8 45.6202 7.01822  -2
  -6   7   3 45.6202 7.01822   1
  -5   6   8 13.6868 5.05066  -2
  -5   7   3 13.6868 5.05066   1
  -4   6   8 39.8086 7.14748  -2
  -4   7   3 39.8086 7.14748   1
  -3   6   8 25.1544 5.03940  -2
  -3   7   3 25.1544 5.03940   1
  -2   6   8 133.135 19.0245  -2
  -2   7   3 133.135 19.0245   1
  -1   6   8 260.171 37.3232  -2
  -1   7   3 260.171 37.3232   1
   0   6   8 77.5204 14.6460  -2
   0   7   3 77.5204 14.6460   1
   1   7   3 35.4093 3.23682   1
   2   7   3 34.2917 2.27090   1
   3   7   3 13.1061 1.99849   1
   4   7   3 24.5411 2.32441   1
   5   7   3 127.613 6.86030   1
   6   7   3 52.4657 4.33502   1
   7   7   3 52.6037 5.02033   1
   8   7   3 123.505 8.59303   1
   9   7   3 11.7381 3.77784   1
  -6   7   9 11.9547 12.1960  -2
  -6   8   3 11.9547 12.1960   1
  -5   7   9 41.4530 13.3459  -2
  -5   8   3 41.4530 13.3459   1
  -4   7   9 67.2371 15.2017  -2
  -4   8   3 67.2371 15.2017   1
  -3   8   3 63.5061 7.54417   1
  -2   7   8 50.1394 10.0210  -2
  -2   8   3 50.1394 10.0210   1
  -1   7   8 28.2644 7.92520  -2
  -1   8   3 28.2644 7.92520   1
   0   8   3 126.486 9.74548   1
   1   8   3 47.8901 4.05630   1
   2   8   3 96.7099 6.58447   1
   3   8   3 30.1170 2.90528   1
   4   8   3 20.8274 2.53047   1
   5   8   3 41.3218 3.68299   1
   6   8   3 47.1472 4.00605   1
   7   8   3 40.1557 4.43850   1
   8   8   3 15.4006 3.48958   1
  -5   8   9 36.7734 7.16106  -2
  -5   9   3 36.7734 7.16106   1
  -4   8   9 30.7125 7.34695  -2
  -4   9   3 30.7125 7.34695   1
  -3   8   9 5.70886 4.47656  -2
  -3   9   3 5.70886 4.47656   1
  -2   8   9 53.6214 7.01472  -2
  -2   9   3 53.6214 7.01472   1
  -1   8   9 34.1626 5.55299  -2
  -1   9   3 34.1626 5.55299   1
   0   8   9 -3.3861 2.83472  -2
   0   9   3 -3.3861 2.83472   1
   1   8   9 23.9344 6.01354  -2
   1   9   3 23.9344 6.01354   1
   2   8   9 39.7172 7.33545  -2
   2   9   3 39.7172 7.33545   1
   3   9   3 42.6117 3.71969   1
   4   9   3 42.2689 4.38098   1
   5   9   3 20.6921 3.34179   1
   6   9   3 10.4531 2.95025   1
   7   9   3 19.9242 4.08671   1
  -4   9  10 -0.3753 5.04867  -2
  -4  10   3 -0.3753 5.04867   1
  -3   9  10 11.6672 5.08739  -2
  -3  10   3 11.6672 5.08739   1
  -2   9  10 19.4560 5.35666  -2
  -2  10   3 19.4560 5.35666   1
  -1   9  10 4.36124 4.48766  -2
  -1  10   3 4.36124 4.48766   1
   0   9  10 6.16448 4.80900  -2
   0  10   3 6.16448 4.80900   1
   1   9  10 9.59527 4.71088  -2
   1  10   3 9.59527 4.71088   1
   2   9  10 72.8062 8.55764  -2
   2  10   3 72.8062 8.55764   1
   3   9  10 1.49004 5.75508  -2
   3  10   3 1.49004 5.75508   1
   4   9  10 -0.0856 5.55456  -2
   4  10   3 -0.0856 5.55456   1
   5  10   3 17.6080 3.62929   1
   6  10   3 4.52598 3.41774   1
  -2  11   3 11.1153 5.19615   1
  -1  10  11 14.9110 7.43533  -2
  -1  11   3 14.9110 7.43533   1
   0  10  11 26.8175 11.0527  -2
   0  11   3 26.8175 11.0527   1
   1  10  10 34.0989 10.5953  -2
   1  11   3 34.0989 10.5953   1
   2  10  11 89.7201 19.8500  -2
   2  11   3 89.7201 19.8500   1
   3  11   3 15.2615 4.12000   1
   4  11   3 1.39672 2.84827   1
   4  11   4 28.7389 8.23420  -2
  -4 -11   4 28.7389 8.23420   1
   3  11   4 12.2474 4.86177  -2
  -3 -11   4 12.2474 4.86177   1
   2  11   4 69.8079 6.62545  -2
  -2 -11   4 69.8079 6.62545   1
   1  11   4 18.0796 5.28971  -2
  -1 -11   4 18.0796 5.28971   1
   0  11   4 18.8942 4.83473  -2
   0 -11   4 18.8942 4.83473   1
  -1  11   4 132.093 13.1233  -2
   1 -11   4 132.093 13.1233   1
  -2  11   4 34.9781 7.39385  -2
   2 -11   4 34.9781 7.39385   1
  -6 -10   4 25.8993 4.84980   1
  -5 -10   4 30.3360 5.87731   1
   4  10   3 7.07711 8.38548  -2
  -4 -10   4 7.07711 8.38548   1
   3  10   3 26.4278 6.71777  -2
  -3 -10   4 26.4278 6.71777   1
   2  10   3 82.9651 9.44082  -2
  -2 -10   4 82.9651 9.44082   1
   1  10   3 10.9495 3.59710  -2
  -1 -10   4 10.9495 3.59710   1
   0  10   3 27.4633 4.22668  -2
   0 -10   4 27.4633 4.22668   1
  -1  10   3 28.3256 5.08917  -2
   1 -10   4 28.3256 5.08917   1
  -2  10   3 18.2367 4.41771  -2
   2 -10   4 18.2367 4.41771   1
  -3  10   3 15.6945 6.95469  -2
   3 -10   4 15.6945 6.95469   1
  -4  10   3 20.5640 7.47180  -2
   4 -10   4 20.5640 7.47180   1
  -7  -9   4 4.62365 3.84587   1
  -6  -9   4 75.0818 7.14237   1
  -5  -9   4 81.2043 6.65330   1
  -4  -9   4 17.3466 3.07348   1
  -3  -9   4 38.9303 4.27174   1
   2   9   2 18.6048 8.65151  -2
  -2  -9   4 18.6048 8.65151   1
   1   9   2 24.1175 9.07463  -2
  -1  -9   4 24.1175 9.07463   1
   0  -9   4 9.76877 4.32252   1
   1  -9   4 101.006 9.07669   1
   2  -9   4 30.7106 5.76817   1
  -3   9   3 49.8179 12.9916  -2
   3  -9   4 49.8179 12.9916   1
  -4   9   3 35.8812 12.2563  -2
   4  -9   4 35.8812 12.2563   1
  -5   9   3 19.0787 12.1026  -2
   5  -9   4 19.0787 12.1026   1
  -8  -8   4 16.8209 5.53309   1
  -7  -8   4 10.2202 3.62283   1
  -6  -8   4 1.73973 2.73669   1
  -5  -8   4 22.8056 2.99897   1
  -4  -8   4 37.4740 3.54301   1
  -3  -8   4 4.97506 1.88456   1
   2   8   2 117.558 16.9659  -2
  -2  -8   4 117.558 16.9659   1
  -1  -8   4 35.3852 3.72417   1
   0   8   2 44.8997 11.3667  -2
   0  -8   4 44.8997 11.3667   1
  -1   8   2 101.535 11.4952  -2
   1  -8   4 101.535 11.4952   1
  -2   8   2 77.5922 14.8671  -2
   2  -8   4 77.5922 14.8671   1
  -3   8   2 65.0783 9.24417  -2
   3  -8   4 65.0783 9.24417   1
  -4   8   2 115.249 13.5711  -2
   4  -8   4 115.249 13.5711   1
  -5   8   2 87.1825 9.52299  -2
   5  -8   4 87.1825 9.52299   1
  -6   8   2 37.1705 8.00805  -2
   6  -8   4 37.1705 8.00805   1
  -8  -7   4 33.3411 5.53742   1
  -7  -7   4 17.8004 3.84525   1
  -6  -7   4 28.8117 3.73639   1
  -5  -7   4 17.2988 2.39422   1
  -4  -7   4 8.04332 1.95891   1
  -3  -7   4 3.96217 1.75402   1
  -2  -7   4 7.09344 1.81364   1
   1   7   1 48.1292 8.31961  -2
  -1  -7   4 48.1292 8.31961   1
   0   7   1 230.526 22.4619  -2
   0  -7   4 230.526 22.4619   1
  -1   7   1 201.833 15.7894  -2
   1  -7   4 201.833 15.7894   1
  -2   7   1 355.291 22.6605  -2
   2  -7   4 355.291 22.6605   1
  -3   7   1 345.821 20.3201  -2
   3  -7   4 345.821 20.3201   1
  -4   7   1 48.0518 3.67243  -2
   4  -7   4 48.0518 3.67243   1
  -5   7   1 22.5930 3.40111  -2
   5  -7   4 22.5930 3.40111   1
  -6   7   1 51.5034 6.62485  -2
   6  -7   4 51.5034 6.62485   1
  -7   7   1 37.5329 6.64741  -2
   7  -7   4 37.5329 6.64741   1
  -9  -6   4 -0.7898 3.64253   1
  -8  -6   4 3.58101 3.25927   1
  -7  -6   4 98.6177 7.90663   1
  -6  -6   4 141.653 9.03947   1
  -5  -6   4 78.3940 5.27455   1
  -4  -6   4 19.6418 2.35444   1
  -3  -6   4 80.6892 5.03612   1
  -2  -6   4 17.3577 1.89797   1
  -1  -6   4 6.22545 1.41015   1
   0  -6   4 0.58271 0.99185   1
   1  -6   4 343.663 16.4251   1
  -2   6   0 363.464 26.8629  -2
   2  -6   4 363.464 26.8629   1
  -3   6   0 191.990 11.4101  -2
   3  -6   4 191.990 11.4101   1
  -4   6   0 212.064 29.9123  -2
   4  -6   4 212.064 29.9123   1
  -5   6   0 28.0479 5.81258  -2
   5  -6   4 28.0479 5.81258   1
  -6   6   0 10.2302 6.59432  -2
   6  -6   4 10.2302 6.59432   1
  -7   6   1 12.6829 10.3848  -2
   7  -6   4 12.6829 10.3848   1
  -8   6   1 21.1406 11.4982  -2
   8  -6   4 21.1406 11.4982   1
  -9  -5   4 2.17324 2.90979   1
  -8  -5   4 1.43038 2.62181   1
  -7  -5   4 3.70871 2.28543   1
  -6  -5   4 26.9952 3.24384   1
  -5  -5   4 -1.7041 1.25310   1
  -4  -5   4 77.4848 4.85469   1
  -3  -5   4 9.23598 1.55142   1
  -2  -5   4 28.5144 1.96951   1
  -1  -5   4 31.1618 2.09717   1
   0  -5   4 22.5604 1.81348   1
   1  -5   4 456.749 21.6810   1
   2  -5   4 94.0388 4.90661   1
   3  -5   4 315.834 16.5403   1
  -4   5   0 240.862 23.1391  -2
   4  -5   4 240.862 23.1391   1
  -5   5   0 35.7216 6.05082  -2
   5  -5   4 35.7216 6.05082   1
  -6   5   0 15.2552 5.90866  -2
   6  -5   4 15.2552 5.90866   1
  -7   5   0 37.3191 6.31747  -2
   7  -5   4 37.3191 6.31747   1
  -8   5   0 31.1207 7.42251  -2
   8  -5   4 31.1207 7.42251   1
  -9   5   0 9.76359 6.51863  -2
   9  -5   4 9.76359 6.51863   1
 -10  -4   4 46.7277 13.6796   1
  -9  -5   1 6.87125 9.73252  -2
  -9  -4   4 6.87125 9.73252   1
  -8  -5   1 83.7575 17.6769  -2
  -8  -4   4 83.7575 17.6769   1
  -7  -4   4 9.15012 2.54521   1
  -6  -4   4 35.3075 3.79273   1
  -5  -4   4 115.578 6.22408   1
  -4  -4   4 -0.3180 0.92426   1
  -3  -4   4 51.6721 3.43734   1
  -2  -4   4 429.979 18.0657   1
  -1  -4   4 6.98151 0.91235   1
   0  -4   4 49.8133 2.79540   1
   1  -4   4 96.5707 5.15048   1
   2  -4   4 0.54072 0.94672   1
   3  -4   1 237.756 21.9272  -2
   3  -4   4 237.756 21.9272   1
   4  -4   1 314.803 18.3020  -2
   4  -4   4 314.803 18.3020   1
   5  -4   1 38.3009 3.39698  -2
   5  -4   4 38.3009 3.39698   1
   6  -4   1 20.3137 4.18375  -2
   6  -4   4 20.3137 4.18375   1
   7  -4   1 2.81139 3.46774  -2
   7  -4   4 2.81139 3.46774   1
   8  -4   1 2.45120 4.53319  -2
   8  -4   4 2.45120 4.53319   1
   9  -4   1 7.53920 4.08808  -2
   9  -4   4 7.53920 4.08808   1
 -10  -4   2 31.6581 12.5358  -2
 -10  -3   4 31.6581 12.5358   1
  -9  -4   1 17.6487 9.33968  -2
  -9  -3   4 17.6487 9.33968   1
  -9  -4   2 13.8061 10.1654  -2
  -9  -3   4 13.8061 10.1654   1
  -8  -4   2 145.431 16.5868  -2
  -8  -3   4 145.431 16.5868   1
  -8  -4   1 168.285 25.1104  -2
  -8  -3   4 168.285 25.1104   1
  -7  -4   2 85.2201 15.9369  -2
  -7  -3   4 85.2201 15.9369   1
  -6  -3   4 15.3007 2.21560   1
  -5  -3   4 19.4428 2.14903   1
  -4  -3   4 2.79563 0.81063   1
  -3  -3   4 42.0140 2.23248   1
  -2  -3   4 483.297 17.2975   1
  -1  -3   4 1125.16 39.5166   1
   0  -3   4 7.35880 0.72987   1
   1  -3   4 321.634 13.3533   1
   2  -3   4 13.5361 1.20458   1
   3  -3   4 10.0443 1.16124   1
   4  -3   2 81.5548 11.5909  -2
   4  -3   4 81.5548 11.5909   1
   5  -3   2 128.324 10.5484  -2
   5  -3   4 128.324 10.5484   1
   6  -3   2 38.5844 4.23994  -2
   6  -3   4 38.5844 4.23994   1
   7  -3   2 156.212 9.87018  -2
   7  -3   4 156.212 9.87018   1
   8  -3   2 30.2273 5.56377  -2
   8  -3   4 30.2273 5.56377   1
   9  -3   2 -0.0728 5.52330  -2
   9  -3   4 -0.0728 5.52330   1
 -10  -3   3 -10.261 8.03149  -2
 -10  -2   4 -10.261 8.03149   1
 -10  -3   2 21.1003 9.18077  -2
 -10  -2   4 21.1003 9.18077   1
  -9  -3   3 7.26001 9.23143  -2
  -9  -2   4 7.26001 9.23143   1
  -9  -3   2 37.2860 10.2587  -2
  -9  -2   4 37.2860 10.2587   1
  -8  -3   2 9.79789 7.53656  -2
  -8  -2   4 9.79789 7.53656   1
  -7  -3   2 295.024 39.9012  -2
  -7  -2   4 295.024 39.9012   1
  -6  -2   4 -0.3078 1.40075   1
  -5  -2   4 4.60072 1.18586   1
  -4  -2   4 429.269 20.2467   1
  -3  -2   4 1.88071 0.57393   1
  -2  -2   4 848.822 27.7443   1
  -1  -2   4 1475.25 59.1468   1
   0  -2   4 57.1985 2.44411   1
   1  -2   4 494.553 19.9993   1
   2  -2   4 316.407 11.3638   1
   3  -2   4 1333.66 51.3967   1
   4  -2   4 200.217 9.12901   1
   5  -2   4 20.7610 1.95364   1
   6  -2   2 66.2133 6.94914  -2
   6  -2   4 66.2133 6.94914   1
   6  -2   3 148.943 19.3974  -2
   6  -2   4 148.943 19.3974   1
   7  -2   3 74.8983 8.10998  -2
   7  -2   4 74.8983 8.10998   1
   7  -2   2 47.3310 12.1887  -2
   7  -2   4 47.3310 12.1887   1
   8  -2   3 60.8817 13.6448  -2
   8  -2   4 60.8817 13.6448   1
   8  -2   2 73.7695 15.1491  -2
   8  -2   4 73.7695 15.1491   1
   9  -2   2 30.6238 8.36383  -2
   9  -2   4 30.6238 8.36383   1
  10  -2   2 37.2495 12.8904  -2
  10  -2   4 37.2495 12.8904   1
 -10  -2   3 39.6546 7.87016  -2
 -10  -1   4 39.6546 7.87016   1
  -9  -2   3 27.2682 6.94540  -2
  -9  -1   4 27.2682 6.94540   1
  -8  -2   3 12.0391 4.43282  -2
  -8  -1   4 12.0391 4.43282   1
  -7  -2   3 13.4538 4.09254  -2
  -7  -1   4 13.4538 4.09254   1
  -6  -2   3 44.0598 7.01407  -2
  -6  -1   4 44.0598 7.01407   1
  -5  -2   3 17.6497 6.50502  -2
  -5  -1   4 17.6497 6.50502   1
  -4  -1   4 397.087 16.3612   1
  -3  -1   4 650.508 25.1640   1
  -2  -1   4 724.655 23.4701   1
  -1  -1   4 136.436 4.98875   1
   0  -1   4 977.592 35.3954   1
   1  -1   4 7.54180 0.61096   1
   2  -1   4 -0.3392 0.39434   1
   3  -1   4 124.535 4.95480   1
   4  -1   4 255.003 11.4992   1
   5  -1   4 3.06938 1.11487   1
   6  -1   4 306.530 15.1663   1
   7  -1   3 236.476 21.8175  -2
   7  -1   4 236.476 21.8175   1
   8  -1   3 55.7924 6.11991  -2
   8  -1   4 55.7924 6.11991   1
   9  -1   3 42.7461 5.66123  -2
   9  -1   4 42.7461 5.66123   1
  10  -1   3 2.61039 4.91703  -2
  10  -1   4 2.61039 4.91703   1
 -10  -1   4 40.7788 6.36040  -2
 -10   0   4 40.7788 6.36040   1
  -9  -1   4 4.01206 4.31712  -2
  -9   0   4 4.01206 4.31712   1
  -8  -1   4 79.4465 8.43349  -2
  -8   0   4 79.4465 8.43349   1
  -7  -1   4 53.3594 6.11264  -2
  -7   0   4 53.3594 6.11264   1
  -6  -1   4 181.751 14.0446  -2
  -6   0   4 181.751 14.0446   1
  -5  -1   4 86.2099 14.9080  -2
  -5   0   4 86.2099 14.9080   1
  -4   0   4 519.541 24.2881   1
  -3   0   4 290.455 12.0829   1
  -2   0   4 71.2961 2.71469   1
  -1   0   4 85.7141 3.36009   1
   0   0   4 480.216 20.5067   1
   1   0   4 13.2767 0.74359   1
   2   0   4 730.750 26.5470   1
   3   0   4 145.596 5.70844   1
   4   0   4 567.438 26.6240   1
   5   0   4 11.7515 1.73656   1
   6   0   4 659.148 80.1796  -2
   6   0   4 659.148 80.1796   1
   7   0   4 467.795 29.1452  -2
   7   0   4 467.795 29.1452   1
   8   0   4 3.43123 4.09624  -2
   8   0   4 3.43123 4.09624   1
   9   0   4 -7.3426 4.12726  -2
   9   0   4 -7.3426 4.12726   1
  10   0   4 87.1931 9.48461  -2
  10   0   4 87.1931 9.48461   1
 -10   0   5 27.0125 10.7660  -2
 -10   1   4 27.0125 10.7660   1
  -9   0   5 23.1905 10.2370  -2
  -9   1   4 23.1905 10.2370   1
  -8   1   4 38.9236 9.47277   1
  -7   0   5 6.21208 5.84349  -2
  -7   1   4 6.21208 5.84349   1
  -6   0   5 169.883 24.3977  -2
  -6   1   4 169.883 24.3977   1
  -5   1   4 94.4188 5.27604   1
  -4   1   4 271.914 13.2049   1
  -3   1   4 11.4255 0.98785   1
  -2   1   4 11.6747 0.75357   1
  -1   1   4 465.958 20.9820   1
   0   1   4 137.050 4.89439   1
   1   1   4 2550.54 93.0790   1
   2   1   4 730.808 24.8188   1
   3   1   4 398.125 14.3702   1
   4   1   4 83.9259 4.34545   1
   5   1   4 219.131 10.2224   1
   6   1   4 176.853 9.09342   1
   7   1   4 27.9731 3.03801   1
   8   1   4 69.8559 13.0416  -2
   8   1   4 69.8559 13.0416   1
   8   1   5 89.4568 11.0072  -2
   8   1   4 89.4568 11.0072   1
   9   1   4 -9.3737 9.49447  -2
   9   1   4 -9.3737 9.49447   1
   9   1   5 -5.4086 8.59743  -2
   9   1   4 -5.4086 8.59743   1
  10   1   4 14.9257 11.8044  -2
  10   1   4 14.9257 11.8044   1
  10   1   5 39.7347 12.7044  -2
  10   1   4 39.7347 12.7044   1
  -9   1   5 26.5225 10.0012  -2
  -9   2   4 26.5225 10.0012   1
  -8   1   5 97.1965 11.8391  -2
  -8   2   4 97.1965 11.8391   1
  -7   1   5 106.221 9.93703  -2
  -7   2   4 106.221 9.93703   1
  -6   1   5 74.4858 6.10011  -2
  -6   2   4 74.4858 6.10011   1
  -5   1   5 80.6189 6.05727  -2
  -5   2   4 80.6189 6.05727   1
  -4   1   5 117.575 15.5665  -2
  -4   2   4 117.575 15.5665   1
  -3   2   4 400.322 15.8815   1
  -2   2   4 60.7841 2.56213   1
  -1   2   4 59.3201 2.23304   1
   0   2   4 11.0001 0.61924   1
   1   2   4 521.215 17.0400   1
   2   2   4 1757.52 57.2467   1
   3   2   4 14.1882 1.13873   1
   4   2   4 550.656 23.1306   1
   5   2   4 59.5499 3.60601   1
   6   2   4 344.033 16.7568   1
   7   2   4 -1.1377 1.75569   1
   8   2   5 -4.0542 6.89861  -2
   8   2   4 -4.0542 6.89861   1
   9   2   5 22.5732 9.79978  -2
   9   2   4 22.5732 9.79978   1
  10   2   5 -11.457 5.95321  -2
  10   2   4 -11.457 5.95321   1
  -9   2   6 27.8318 5.80321  -2
  -9   3   4 27.8318 5.80321   1
  -8   2   6 99.5153 9.89974  -2
  -8   3   4 99.5153 9.89974   1
  -7   2   6 40.3992 5.53652  -2
  -7   3   4 40.3992 5.53652   1
  -6   2   6 64.3835 5.81635  -2
  -6   3   4 64.3835 5.81635   1
  -5   2   6 243.840 16.4481  -2
  -5   3   4 243.840 16.4481   1
  -4   2   6 194.753 13.0495  -2
  -4   3   4 194.753 13.0495   1
  -3   2   6 47.5015 4.18391  -2
  -3   3   4 47.5015 4.18391   1
  -2   2   6 158.115 21.4945  -2
  -2   3   4 158.115 21.4945   1
  -1   3   4 263.372 10.4728   1
   0   3   4 315.706 10.9882   1
   1   3   4 23.5955 1.19775   1
   2   3   4 716.472 28.1959   1
   3   3   4 19.3099 1.49569   1
   4   3   4 95.4723 4.90818   1
   5   3   4 22.0892 2.09053   1
   6   3   4 647.887 33.4670   1
   7   3   4 50.8487 4.37669   1
   8   3   4 -3.7231 2.38616   1
   9   3   4 2.20567 2.87125   1
  10   3   6 11.5509 10.1210  -2
  10   3   4 11.5509 10.1210   1
  -9   3   7 21.1375 11.6233  -2
  -9   4   4 21.1375 11.6233   1
  -8   3   7 150.054 17.2548  -2
  -8   4   4 150.054 17.2548   1
  -7   3   7 16.0488 6.08428  -2
  -7   4   4 16.0488 6.08428   1
  -6   3   7 59.4414 8.56061  -2
  -6   4   4 59.4414 8.56061   1
  -5   3   7 80.3200 9.57687  -2
  -5   4   4 80.3200 9.57687   1
  -4   3   7 84.8762 9.39025  -2
  -4   4   4 84.8762 9.39025   1
  -3   3   7 233.858 31.9041  -2
  -3   4   4 233.858 31.9041   1
  -2   4   4 44.2241 2.32527   1
  -1   4   4 213.778 8.64234   1
   0   4   4 43.0491 2.20213   1
   1   4   4 44.1232 2.42530   1
   2   4   4 -1.3577 0.68711   1
   3   4   4 68.7369 3.91729   1
   4   4   4 139.472 6.89578   1
   5   4   4 563.635 26.8435   1
   6   4   4 24.4772 2.57761   1
   7   4   4 41.0354 3.90327   1
   8   4   4 75.7222 5.87096   1
   9   4   4 77.4220 6.94041   1
  10   4   4 72.1850 7.07791   1
  -8   4   8 11.0407 10.8155  -2
  -8   5   4 11.0407 10.8155   1
  -7   4   7 87.4605 15.2609  -2
  -7   5   4 87.4605 15.2609   1
  -7   4   8 64.4691 16.3176  -2
  -7   5   4 64.4691 16.3176   1
  -6   4   7 9.17896 5.23888  -2
  -6   5   4 9.17896 5.23888   1
  -6   4   8 -11.087 7.99145  -2
  -6   5   4 -11.087 7.99145   1
  -5   4   8 18.7517 9.25773  -2
  -5   5   4 18.7517 9.25773   1
  -5   4   7 16.9219 3.42384  -2
  -5   5   4 16.9219 3.42384   1
  -4   4   7 120.335 8.97419  -2
  -4   5   4 120.335 8.97419   1
  -3   4   7 76.3528 6.08935  -2
  -3   5   4 76.3528 6.08935   1
  -2   4   7 17.1100 2.48733  -2
  -2   5   4 17.1100 2.48733   1
  -1   4   7 16.3460 4.84918  -2
  -1   5   4 16.3460 4.84918   1
   0   5   4 58.6464 4.01261   1
   1   5   4 34.2565 2.36176   1
   2   5   4 119.711 5.20510   1
   3   5   4 396.980 17.9413   1
   4   5   4 105.633 5.68131   1
   5   5   4 31.9244 2.67236   1
   6   5   4 61.8649 4.43509   1
   7   5   4 51.5217 5.12102   1
   8   5   4 86.8435 7.31371   1
   9   5   4 86.5630 7.60988   1
  10   5   4 58.2466 6.19844   1
  -8   5   8 46.2771 8.85766  -2
  -8   6   4 46.2771 8.85766   1
  -7   5   8 33.3054 7.26533  -2
  -7   6   4 33.3054 7.26533   1
  -6   5   8 38.8062 5.25360  -2
  -6   6   4 38.8062 5.25360   1
  -5   5   8 96.5937 7.93359  -2
  -5   6   4 96.5937 7.93359   1
  -4   5   8 264.162 15.8942  -2
  -4   6   4 264.162 15.8942   1
  -3   5   8 72.3847 4.74663  -2
  -3   6   4 72.3847 4.74663   1
  -2   5   8 33.1988 2.72053  -2
  -2   6   4 33.1988 2.72053   1
  -1   5   8 80.7468 4.84637  -2
  -1   6   4 80.7468 4.84637   1
   0   5   8 47.9748 4.42927  -2
   0   6   4 47.9748 4.42927   1
   1   5   8 36.4834 5.31775  -2
   1   6   4 36.4834 5.31775   1
   2   5   8 152.093 15.0964  -2
   2   6   4 152.093 15.0964   1
   3   6   4 22.0496 2.02042   1
   4   6   4 266.411 12.5946   1
   5   6   4 24.6411 2.50918   1
   6   6   4 149.641 8.80024   1
   7   6   4 25.2947 3.32185   1
   8   6   4 9.16069 3.06758   1
   9   6   4 27.0561 4.41376   1
  -7   6   9 12.3263 7.65538  -2
  -7   7   4 12.3263 7.65538   1
  -6   6   9 11.9155 7.16825  -2
  -6   7   4 11.9155 7.16825   1
  -5   6   9 54.0069 9.50496  -2
  -5   7   4 54.0069 9.50496   1
  -4   6   9 28.3153 5.80670  -2
  -4   7   4 28.3153 5.80670   1
  -3   6   9 15.0424 4.14986  -2
  -3   7   4 15.0424 4.14986   1
  -2   6   8 204.589 27.7128  -2
  -2   7   4 204.589 27.7128   1
  -2   6   9 236.782 30.5723  -2
  -2   7   4 236.782 30.5723   1
  -1   6   9 92.3079 10.6001  -2
  -1   7   4 92.3079 10.6001   1
  -1   6   8 104.447 16.1004  -2
  -1   7   4 104.447 16.1004   1
   0   6   9 -6.3270 3.49063  -2
   0   7   4 -6.3270 3.49063   1
   1   6   9 31.1252 7.24546  -2
   1   7   4 31.1252 7.24546   1
   2   6   9 49.7166 7.08299  -2
   2   7   4 49.7166 7.08299   1
   3   6   9 88.8595 15.5747  -2
   3   7   4 88.8595 15.5747   1
   4   6   9 100.943 16.9073  -2
   4   7   4 100.943 16.9073   1
   5   7   4 238.580 11.5913   1
   6   7   4 63.6710 4.82942   1
   7   7   4 10.7451 2.93034   1
   8   7   4 49.5386 4.95069   1
   9   7   4 19.4211 3.87100   1
  -6   8   4 4.64310 4.26697   1
  -5   8   4 47.1511 6.73164   1
  -4   8   4 8.59893 3.74000   1
  -3   7   9 33.2673 11.2872  -2
  -3   8   4 33.2673 11.2872   1
  -2   7   9 67.5290 8.23485  -2
  -2   8   4 67.5290 8.23485   1
  -1   7   9 30.2765 5.92416  -2
  -1   8   4 30.2765 5.92416   1
   0   7   9 46.0417 9.80133  -2
   0   8   4 46.0417 9.80133   1
   1   7   9 36.6211 6.99278  -2
   1   8   4 36.6211 6.99278   1
   2   7   9 96.1680 16.1524  -2
   2   8   4 96.1680 16.1524   1
   3   8   4 6.33799 1.95050   1
   4   8   4 30.4359 2.80633   1
   5   8   4 41.2173 3.83962   1
   6   8   4 90.3410 6.29114   1
   7   8   4 63.6924 5.79825   1
   8   8   4 0.21160 2.88833   1
  -5   8  10 74.5446 16.6616  -2
  -5   9   4 74.5446 16.6616   1
  -4   8  10 4.87677 6.57942  -2
  -4   9   4 4.87677 6.57942   1
  -3   8  10 3.79612 4.84702  -2
  -3   9   4 3.79612 4.84702   1
  -2   8  10 53.2292 7.07691  -2
  -2   9   4 53.2292 7.07691   1
  -1   8  10 88.0554 7.53625  -2
  -1   9   4 88.0554 7.53625   1
   0   8  10 2.59536 3.05707  -2
   0   9   4 2.59536 3.05707   1
   1   8  10 65.4225 5.61458  -2
   1   9   4 65.4225 5.61458   1
   2   8  10 26.1775 3.93075  -2
   2   9   4 26.1775 3.93075   1
   3   8  10 93.2685 7.26852  -2
   3   9   4 93.2685 7.26852   1
   4   8  10 20.9829 6.08641  -2
   4   9   4 20.9829 6.08641   1
   5   8  10 6.31682 5.95428  -2
   5   9   4 6.31682 5.95428   1
   6   8  10 11.9440 6.92021  -2
   6   9   4 11.9440 6.92021   1
   7   9   4 39.0198 5.16714   1
  -4  10   4 2.76561 3.45419   1
  -3   9  11 20.5390 11.1725  -2
  -3  10   4 20.5390 11.1725   1
  -2   9  11 28.5136 11.1941  -2
  -2  10   4 28.5136 11.1941   1
  -1   9  11 11.5554 4.80073  -2
  -1  10   4 11.5554 4.80073   1
   0   9  11 3.25508 3.83030  -2
   0  10   4 3.25508 3.83030   1
   1   9  11 21.5196 4.70716  -2
   1  10   4 21.5196 4.70716   1
   1   9  10 22.8529 8.72020  -2
   1  10   4 22.8529 8.72020   1
   2   9  11 65.0649 7.03113  -2
   2  10   4 65.0649 7.03113   1
   3   9  11 9.76391 4.27246  -2
   3  10   4 9.76391 4.27246   1
   4   9  11 13.1003 5.19423  -2
   4  10   4 13.1003 5.19423   1
   5   9  11 11.7927 6.72203  -2
   5  10   4 11.7927 6.72203   1
   6   9  11 -6.7674 9.20597  -2
   6  10   4 -6.7674 9.20597   1
  -2  11   4 8.50301 4.74701   1
  -1  11   4 4.16159 3.51827   1
   0  11   4 23.6507 4.79294   1
   1  10  11 -1.1852 7.20654  -2
   1  11   4 -1.1852 7.20654   1
   1  10  12 7.56321 9.89156  -2
   1  11   4 7.56321 9.89156   1
   2  10  11 40.5116 11.1230  -2
   2  11   4 40.5116 11.1230   1
   2  10  12 51.6224 13.0095  -2
   2  11   4 51.6224 13.0095   1
   3  10  11 28.2517 10.3335  -2
   3  11   4 28.2517 10.3335   1
   3  10  12 -2.6531 9.25235  -2
   3  11   4 -2.6531 9.25235   1
   4  10  11 12.2329 13.1152  -2
   4  10  12 12.2329 13.1152  -2
   4  11   4 12.2329 13.1152   1
  -3 -11   5 36.0951 4.93975   1
   2  11   3 103.223 20.2003  -2
  -2 -11   5 103.223 20.2003   1
   1  11   3 25.9807 7.67933  -2
  -1 -11   5 25.9807 7.67933   1
   0  11   3 10.4684 5.63926  -2
   0 -11   5 10.4684 5.63926   1
  -1  11   3 83.6191 12.5975  -2
   1 -11   5 83.6191 12.5975   1
  -2  11   3 18.7697 7.49217  -2
   2 -11   5 18.7697 7.49217   1
  -5 -10   5 22.1224 4.73049   1
  -4 -10   5 6.92913 3.19262   1
  -3 -10   5 15.5487 3.22956   1
  -2 -10   5 7.37245 3.09996   1
  -1 -10   5 4.65475 3.19986   1
   0  10   2 96.9203 9.61396  -2
   0 -10   5 96.9203 9.61396   1
  -1  10   2 19.3874 6.70173  -2
   1 -10   5 19.3874 6.70173   1
  -2  10   2 8.92504 5.13788  -2
   2 -10   5 8.92504 5.13788   1
  -3  10   2 10.8673 6.69736  -2
   3 -10   5 10.8673 6.69736   1
  -4  10   2 20.7378 6.76567  -2
   4 -10   5 20.7378 6.76567   1
  -7  -9   5 4.47871 3.80793   1
  -6  -9   5 37.7816 5.30027   1
  -5  -9   5 32.6442 4.14674   1
  -4  -9   5 -0.3825 2.29169   1
  -3  -9   5 25.7365 3.60483   1
  -2  -9   5 -2.6835 2.01053   1
  -1  -9   5 10.7486 3.00318   1
   0  -9   5 21.0326 4.32460   1
   1  -9   5 32.1110 4.16963   1
   2  -9   5 55.6597 6.45192   1
   3  -9   5 26.2861 4.79731   1
   4  -9   5 10.8002 4.35758   1
  -5   9   2 13.0622 10.7862  -2
   5  -9   5 13.0622 10.7862   1
  -8  -8   5 -0.6276 5.56214   1
  -7  -8   5 8.89851 3.72707   1
  -6  -8   5 49.8485 5.89471   1
  -5  -8   5 9.49085 2.46917   1
  -4  -8   5 8.38446 2.16792   1
  -3  -8   5 2.01827 1.75445   1
  -2  -8   5 4.96309 1.99265   1
  -1  -8   5 2.00997 2.06154   1
   0  -8   5 4.37972 2.77171   1
   1  -8   5 28.2803 3.67122   1
  -2   8   1 126.079 19.4583  -2
   2  -8   5 126.079 19.4583   1
  -3   8   1 67.6595 10.0010  -2
   3  -8   5 67.6595 10.0010   1
  -4   8   1 49.5559 7.00292  -2
   4  -8   5 49.5559 7.00292   1
  -5   8   1 99.3943 10.3751  -2
   5  -8   5 99.3943 10.3751   1
  -6   8   1 28.0924 5.84895  -2
   6  -8   5 28.0924 5.84895   1
  -8  -7   5 8.33566 3.99026   1
  -7  -7   5 0.15538 2.94356   1
  -6  -7   5 0.78831 2.57397   1
  -5  -7   5 0.24451 1.67303   1
  -4  -7   5 -1.0401 1.55499   1
  -3  -7   5 9.62247 1.94519   1
  -2  -7   5 70.8392 4.95306   1
  -1  -7   5 42.0208 3.71647   1
   0  -7   5 37.0459 3.15308   1
   1  -7   5 97.4957 5.34581   1
   2  -7   5 250.684 12.7533   1
  -3   7   0 202.122 28.4198  -2
   3  -7   5 202.122 28.4198   1
  -4   7   0 52.2408 5.67340  -2
   4  -7   5 52.2408 5.67340   1
  -5   7   0 23.3082 3.75883  -2
   5  -7   5 23.3082 3.75883   1
  -6   7   0 17.3615 5.14717  -2
   6  -7   5 17.3615 5.14717   1
  -7   7   0 21.1363 5.65088  -2
   7  -7   5 21.1363 5.65088   1
  -9  -7   1 39.9528 14.8026  -2
  -9  -6   5 39.9528 14.8026   1
  -8  -6   5 28.8286 4.86513   1
  -7  -6   5 7.19444 3.31524   1
  -6  -6   5 42.3535 4.17386   1
  -5  -6   5 40.2521 3.46886   1
  -4  -6   5 5.60464 1.73659   1
  -3  -6   5 2.35713 1.52745   1
  -2  -6   5 89.3901 4.61685   1
  -1  -6   5 -0.7248 1.06036   1
   0  -6   5 -1.4182 1.09378   1
   1  -6   5 25.5264 3.26036   1
   2  -6   5 107.795 6.00652   1
   3  -6   5 99.5771 5.52546   1
   4  -6   5 24.4680 3.35450   1
   5  -6   1 36.4517 6.76968  -2
   5  -6   5 36.4517 6.76968   1
   6  -6   1 29.0043 9.99727  -2
   6  -6   5 29.0043 9.99727   1
   7  -6   1 36.9338 11.7263  -2
   7  -6   5 36.9338 11.7263   1
   8  -6   1 72.1124 16.2961  -2
   8  -6   5 72.1124 16.2961   1
  -9  -6   1 83.6978 12.1256  -2
  -9  -5   5 83.6978 12.1256   1
  -8  -6   1 -4.5112 8.09665  -2
  -8  -5   5 -4.5112 8.09665   1
  -7  -5   5 0.97469 2.82302   1
  -6  -5   5 39.2232 3.90232   1
  -5  -5   5 5.88576 1.60777   1
  -4  -5   5 127.885 7.05896   1
  -3  -5   5 26.5270 2.48228   1
  -2  -5   5 1.49176 0.92326   1
  -1  -5   5 164.186 7.33905   1
   0  -5   5 543.018 21.3862   1
   1  -5   5 331.421 16.0072   1
   2  -5   5 96.8756 5.13879   1
   3  -5   5 274.274 12.4835   1
   4  -5   5 74.3530 5.26191   1
   5  -5   2 42.5341 9.39998  -2
   5  -5   5 42.5341 9.39998   1
   5  -5   1 40.0295 10.6315  -2
   5  -5   5 40.0295 10.6315   1
   6  -5   2 24.7474 4.81999  -2
   6  -5   5 24.7474 4.81999   1
   6  -5   1 23.4791 9.37904  -2
   6  -5   5 23.4791 9.37904   1
   7  -5   1 21.4903 6.52641  -2
   7  -5   5 21.4903 6.52641   1
   8  -5   1 33.0696 7.95858  -2
   8  -5   5 33.0696 7.95858   1
   9  -5   1 13.9873 6.84823  -2
   9  -5   5 13.9873 6.84823   1
  -9  -5   2 101.249 10.6462  -2
  -9  -4   5 101.249 10.6462   1
  -8  -5   2 6.07955 4.04847  -2
  -8  -4   5 6.07955 4.04847   1
  -7  -5   2 26.1839 4.00103  -2
  -7  -4   5 26.1839 4.00103   1
  -6  -5   2 50.3682 6.23670  -2
  -6  -4   5 50.3682 6.23670   1
  -5  -5   2 199.702 29.3803  -2
  -5  -4   5 199.702 29.3803   1
  -4  -4   5 63.2023 3.64037   1
  -3  -4   5 51.3884 3.13113   1
  -2  -4   5 89.8565 4.11415   1
  -1  -4   5 99.5577 4.66823   1
   0  -4   5 263.172 11.8046   1
   1  -4   5 5.07889 1.05077   1
   2  -4   5 44.1214 3.03333   1
   3  -4   5 472.744 24.1696   1
   4  -4   5 105.096 7.24831   1
   5  -4   2 81.4542 14.3820  -2
   5  -4   5 81.4542 14.3820   1
   6  -4   2 13.8344 4.30754  -2
   6  -4   5 13.8344 4.30754   1
   7  -4   2 13.5801 3.25179  -2
   7  -4   5 13.5801 3.25179   1
   8  -4   2 4.09438 4.20872  -2
   8  -4   5 4.09438 4.20872   1
   9  -4   2 52.6309 8.80916  -2
   9  -4   5 52.6309 8.80916   1
 -10  -4   3 1.47840 5.85754  -2
 -10  -3   5 1.47840 5.85754   1
  -9  -4   3 111.655 13.7382  -2
  -9  -3   5 111.655 13.7382   1
  -8  -4   3 59.7633 7.36931  -2
  -8  -3   5 59.7633 7.36931   1
  -7  -4   2 106.699 14.9334  -2
  -7  -3   5 106.699 14.9334   1
  -7  -4   3 83.5399 10.2685  -2
  -7  -3   5 83.5399 10.2685   1
  -6  -4   3 76.5819 14.7448  -2
  -6  -3   5 76.5819 14.7448   1
  -5  -3   5 17.3774 1.81540   1
  -4  -3   5 41.4734 2.41819   1
  -3  -3   5 43.8816 2.28998   1
  -2  -3   5 209.051 8.10011   1
  -1  -3   5 16.6912 1.22054   1
   0  -3   5 1934.70 77.6832   1
   1  -3   5 464.201 18.0246   1
   2  -3   5 84.7651 4.00568   1
   3  -3   5 124.953 6.98479   1
   4  -3   5 16.7630 2.27448   1
   5  -3   5 6.27425 1.94753   1
   6  -3   3 173.810 17.0441  -2
   6  -3   5 173.810 17.0441   1
   7  -3   3 48.3978 6.86896  -2
   7  -3   5 48.3978 6.86896   1
   8  -3   3 35.1049 6.56423  -2
   8  -3   5 35.1049 6.56423   1
   9  -3   3 6.20643 8.74693  -2
   9  -3   5 6.20643 8.74693   1
 -10  -3   4 -2.0246 7.96527  -2
 -10  -2   5 -2.0246 7.96527   1
  -9  -2   5 10.2766 5.92180   1
  -8  -2   5 122.126 13.5793   1
  -7  -3   3 49.2866 7.38396  -2
  -7  -2   5 49.2866 7.38396   1
  -6  -3   3 260.945 25.4107  -2
  -6  -2   5 260.945 25.4107   1
  -5  -3   3 23.0165 4.06686  -2
  -5  -2   5 23.0165 4.06686   1
  -4  -2   5 6.32412 0.97216   1
  -3  -2   5 15.2476 1.12571   1
  -2  -2   5 228.869 8.26244   1
  -1  -2   5 373.221 13.2846   1
   0  -2   5 203.925 7.21232   1
   1  -2   5 861.782 28.8711   1
   2  -2   5 62.4613 2.55927   1
   3  -2   5 266.793 11.8493   1
   4  -2   5 138.329 6.55079   1
   5  -2   5 52.7785 3.49681   1
   6  -2   5 19.2225 2.20970   1
   7  -2   5 232.367 14.3149   1
   8  -2   3 53.2768 13.9267  -2
   8  -2   5 53.2768 13.9267   1
   8  -2   4 46.3333 12.6602  -2
   8  -2   5 46.3333 12.6602   1
   9  -2   3 129.340 22.9582  -2
   9  -2   5 129.340 22.9582   1
   9  -2   4 135.969 22.9536  -2
   9  -2   5 135.969 22.9536   1
  10  -2   4 6.09717 11.7878  -2
  10  -2   5 6.09717 11.7878   1
  10  -2   3 9.46260 11.3977  -2
  10  -2   5 9.46260 11.3977   1
 -10  -2   4 6.61897 4.44681  -2
 -10  -1   5 6.61897 4.44681   1
  -9  -2   4 2.54054 4.18326  -2
  -9  -1   5 2.54054 4.18326   1
  -8  -2   4 28.9595 5.26402  -2
  -8  -1   5 28.9595 5.26402   1
  -7  -2   4 55.5480 6.14412  -2
  -7  -1   5 55.5480 6.14412   1
  -6  -2   4 31.8581 3.84603  -2
  -6  -1   5 31.8581 3.84603   1
  -5  -2   4 116.243 7.31509  -2
  -5  -1   5 116.243 7.31509   1
  -4  -2   4 1217.97 87.6792  -2
  -4  -1   5 1217.97 87.6792   1
  -3  -2   4 34.7567 6.31699  -2
  -3  -1   5 34.7567 6.31699   1
  -2  -1   5 112.056 3.79577   1
  -1  -1   5 244.905 8.39364   1
   0  -1   5 75.4991 3.42166   1
   1  -1   5 78.5527 2.82710   1
   2  -1   5 5.94588 0.67496   1
   3  -1   5 983.668 39.9925   1
   4  -1   5 6.13088 0.98116   1
   5  -1   5 28.3124 2.39778   1
   6  -1   5 94.1796 5.68890   1
   7  -1   5 52.5439 4.04005   1
   8  -1   5 41.6999 4.67794   1
   9  -1   4 135.079 15.2288  -2
   9  -1   5 135.079 15.2288   1
  10  -1   4 23.6821 10.4173  -2
  10  -1   5 23.6821 10.4173   1
 -10  -1   5 36.5925 6.38137  -2
 -10   0   5 36.5925 6.38137   1
  -9  -1   5 -0.8403 4.15945  -2
  -9   0   5 -0.8403 4.15945   1
  -8  -1   5 9.90037 4.06618  -2
  -8   0   5 9.90037 4.06618   1
  -7  -1   5 10.1930 2.70819  -2
  -7   0   5 10.1930 2.70819   1
  -6  -1   5 4.27259 2.62891  -2
  -6   0   5 4.27259 2.62891   1
  -5  -1   5 57.6671 4.06554  -2
  -5   0   5 57.6671 4.06554   1
  -4  -1   5 584.471 53.7158  -2
  -4   0   5 584.471 53.7158   1
  -3  -1   5 1330.50 119.715  -2
  -3   0   5 1330.50 119.715   1
  -2   0   5 60.7664 2.23345   1
  -1   0   5 39.5264 1.65826   1
   0   0   5 14.4169 0.73794   1
   1   0   5 300.143 10.9626   1
   2   0   5 43.9597 1.83706   1
   3   0   5 1036.68 44.3967   1
   4   0   5 523.699 24.6354   1
   5   0   5 3.42070 1.34043   1
   6   0   5 666.082 31.4922   1
   7   0   5 300.566 15.2024   1
   8   0   5 2.85969 2.27586   1
   9   0   5 2.66092 8.40454  -2
   9   0   5 2.66092 8.40454   1
  10   0   5 17.3400 6.32066  -2
  10   0   5 17.3400 6.32066   1
 -10   1   5 51.9367 12.6087   1
  -9   0   6 82.1826 15.9916  -2
  -9   1   5 82.1826 15.9916   1
  -8   0   6 67.1532 13.8224  -2
  -8   1   5 67.1532 13.8224   1
  -7   0   6 179.360 18.6039  -2
  -7   1   5 179.360 18.6039   1
  -6   0   6 345.427 46.2918  -2
  -6   1   5 345.427 46.2918   1
  -5   1   5 3.63916 1.44325   1
  -4   1   5 311.966 14.2353   1
  -3   1   5 37.1938 1.77543   1
  -2   1   5 118.961 4.46688   1
  -1   1   5 240.375 9.78963   1
   0   1   5 213.971 7.10972   1
   1   1   5 1.10689 0.31521   1
   2   1   5 233.160 8.12124   1
   3   1   5 30.1206 1.70549   1
   4   1   5 118.846 5.86542   1
   5   1   5 -0.8670 1.13602   1
   6   1   5 1090.06 54.4838   1
   7   1   5 15.7637 2.50916   1
   8   1   5 11.1238 2.65695   1
   9   1   5 -3.4601 2.55562   1
  10   1   5 99.7177 8.60168   1
  -9   1   6 14.2225 5.95351  -2
  -9   2   5 14.2225 5.95351   1
  -9   1   7 23.8257 9.99747  -2
  -9   2   5 23.8257 9.99747   1
  -8   1   6 25.0300 6.19038  -2
  -8   2   5 25.0300 6.19038   1
  -8   1   7 11.9730 9.23743  -2
  -8   2   5 11.9730 9.23743   1
  -7   1   6 30.7838 4.96807  -2
  -7   2   5 30.7838 4.96807   1
  -6   1   6 222.648 13.4615  -2
  -6   2   5 222.648 13.4615   1
  -5   1   6 72.8342 5.04520  -2
  -5   2   5 72.8342 5.04520   1
  -4   1   6 57.3743 2.79049  -2
  -4   2   5 57.3743 2.79049   1
  -3   1   6 683.044 37.6624  -2
  -3   2   5 683.044 37.6624   1
  -2   1   6 14.6423 2.10054  -2
  -2   2   5 14.6423 2.10054   1
  -1   2   5 1300.13 53.1088   1
   0   2   5 598.821 19.6065   1
   1   2   5 202.511 6.35831   1
   2   2   5 66.3113 2.46664   1
   3   2   5 1.09147 0.97831   1
   4   2   5 -0.6962 0.86751   1
   5   2   5 189.589 9.56193   1
   6   2   5 7.69568 2.16244   1
   7   2   5 15.1121 2.51666   1
   8   2   5 -1.0364 2.34179   1
   9   2   5 6.51989 2.70318   1
  10   2   5 3.82874 3.31264   1
  -9   2   7 -0.5584 5.51632  -2
  -9   3   5 -0.5584 5.51632   1
  -8   2   7 37.7204 7.12380  -2
  -8   3   5 37.7204 7.12380   1
  -7   2   7 43.5043 5.66979  -2
  -7   3   5 43.5043 5.66979   1
  -6   2   7 96.2886 7.75368  -2
  -6   3   5 96.2886 7.75368   1
  -5   2   7 24.8978 2.35942  -2
  -5   3   5 24.8978 2.35942   1
  -4   2   7 89.0505 5.11612  -2
  -4   3   5 89.0505 5.11612   1
  -3   2   7 859.952 48.1513  -2
  -3   3   5 859.952 48.1513   1
  -2   2   7 21.4404 1.73972  -2
  -2   3   5 21.4404 1.73972   1
  -1   2   7 134.219 7.60388  -2
  -1   3   5 134.219 7.60388   1
   0   2   7 453.495 39.1979  -2
   0   3   5 453.495 39.1979   1
   1   3   5 73.8837 3.09914   1
   2   3   5 380.769 14.3027   1
   3   3   5 1269.28 58.7191   1
   4   3   5 66.0134 4.07407   1
   5   3   5 761.742 35.3617   1
   6   3   5 2.66711 1.77772   1
   7   3   5 10.6138 2.43936   1
   8   3   5 4.07358 2.17620   1
   9   3   5 58.4000 6.10692   1
  10   3   5 23.3423 3.98640   1
  -9   4   5 38.3419 6.47387   1
  -8   3   8 93.7726 19.7343  -2
  -8   4   5 93.7726 19.7343   1
  -7   3   8 -7.2777 9.44727  -2
  -7   4   5 -7.2777 9.44727   1
  -6   3   8 35.7725 11.6187  -2
  -6   4   5 35.7725 11.6187   1
  -5   3   8 177.778 18.4216  -2
  -5   4   5 177.778 18.4216   1
  -4   3   8 154.834 15.9316  -2
  -4   4   5 154.834 15.9316   1
  -3   3   8 9.77546 2.78261  -2
  -3   4   5 9.77546 2.78261   1
  -3   3   7 93.3681 15.1399  -2
  -3   4   5 93.3681 15.1399   1
  -2   3   8 50.5451 4.76153  -2
  -2   4   5 50.5451 4.76153   1
  -2   3   7 37.5085 8.23819  -2
  -2   4   5 37.5085 8.23819   1
  -1   4   5 26.9707 1.81551   1
   0   4   5 50.6808 2.46184   1
   1   4   5 26.9013 1.73641   1
   2   4   5 27.5399 1.79571   1
   3   4   5 111.819 5.16918   1
   4   4   5 59.9509 3.66522   1
   5   4   5 47.4360 3.60836   1
   6   4   5 179.286 9.51995   1
   7   4   5 3.65218 2.08992   1
   8   4   5 -5.3140 2.43325   1
   9   4   5 10.0845 3.45804   1
  10   4   5 70.6739 7.13076   1
  -8   5   5 4.81253 4.71703   1
  -7   5   5 0.89274 3.39566   1
  -6   4   8 6.58901 5.89236  -2
  -6   5   5 6.58901 5.89236   1
  -5   4   8 73.7710 10.0475  -2
  -5   5   5 73.7710 10.0475   1
  -4   4   8 80.7837 5.70425  -2
  -4   5   5 80.7837 5.70425   1
  -3   4   8 115.496 6.58328  -2
  -3   5   5 115.496 6.58328   1
  -2   4   8 126.896 6.49463  -2
  -2   5   5 126.896 6.49463   1
  -1   4   8 117.788 5.73056  -2
  -1   5   5 117.788 5.73056   1
   0   4   8 64.4622 4.09678  -2
   0   5   5 64.4622 4.09678   1
   1   4   8 18.2466 1.85704  -2
   1   5   5 18.2466 1.85704   1
   2   4   8 88.2397 5.67299  -2
   2   5   5 88.2397 5.67299   1
   3   4   8 81.5817 9.03791  -2
   3   5   5 81.5817 9.03791   1
   4   5   5 71.0185 4.34058   1
   5   5   5 129.485 6.74121   1
   6   5   5 4.81834 1.73172   1
   7   5   5 22.9030 3.63780   1
   8   5   5 88.3810 6.28707   1
   9   5   5 80.5065 7.28993   1
  10   5   5 4.00552 3.90581   1
  -8   6   5 40.0128 6.67420   1
  -7   5   9 47.2289 12.4997  -2
  -7   6   5 47.2289 12.4997   1
  -6   5   9 108.020 12.8291  -2
  -6   6   5 108.020 12.8291   1
  -5   5   9 94.0873 11.1430  -2
  -5   6   5 94.0873 11.1430   1
  -4   5   9 50.3629 7.11854  -2
  -4   6   5 50.3629 7.11854   1
  -3   5   9 31.8494 4.33882  -2
  -3   6   5 31.8494 4.33882   1
  -2   5   9 28.6833 2.64902  -2
  -2   6   5 28.6833 2.64902   1
  -1   5   9 20.8750 2.10887  -2
  -1   6   5 20.8750 2.10887   1
   0   5   9 121.787 7.02488  -2
   0   6   5 121.787 7.02488   1
   1   5   9 50.9981 3.68453  -2
   1   6   5 50.9981 3.68453   1
   2   5   9 46.3825 3.09987  -2
   2   6   5 46.3825 3.09987   1
   3   5   9 69.0121 4.84910  -2
   3   6   5 69.0121 4.84910   1
   4   5   9 76.3818 7.58447  -2
   4   6   5 76.3818 7.58447   1
   5   5   9 35.5444 9.03968  -2
   5   6   5 35.5444 9.03968   1
   6   5   9 345.691 44.7973  -2
   6   6   5 345.691 44.7973   1
   7   5   9 53.0393 11.6471  -2
   7   6   5 53.0393 11.6471   1
   8   6   5 10.6144 3.28312   1
   9   6   5 70.0615 6.71893   1
  -7   7   5 17.4207 4.89937   1
  -6   7   5 15.5159 4.15653   1
  -5   6  10 119.834 21.6595  -2
  -5   7   5 119.834 21.6595   1
  -4   6  10 46.3569 12.3363  -2
  -4   7   5 46.3569 12.3363   1
  -3   7   5 19.5997 2.98145   1
  -2   6   9 55.2419 9.74802  -2
  -2   7   5 55.2419 9.74802   1
  -2   6  10 46.6106 10.6638  -2
  -2   7   5 46.6106 10.6638   1
  -1   6   9 67.6697 11.6948  -2
  -1   7   5 67.6697 11.6948   1
  -1   6  10 18.4466 5.15492  -2
  -1   7   5 18.4466 5.15492   1
   0   6  10 75.6203 6.72726  -2
   0   7   5 75.6203 6.72726   1
   1   6  10 171.600 13.3117  -2
   1   7   5 171.600 13.3117   1
   1   6   9 190.196 27.1092  -2
   1   7   5 190.196 27.1092   1
   2   6   9 120.424 18.6337  -2
   2   7   5 120.424 18.6337   1
   2   6  10 132.436 9.61057  -2
   2   7   5 132.436 9.61057   1
   3   6  10 117.159 8.87021  -2
   3   7   5 117.159 8.87021   1
   4   6  10 82.0266 8.19155  -2
   4   7   5 82.0266 8.19155   1
   5   6  10 67.9104 7.67333  -2
   5   7   5 67.9104 7.67333   1
   6   6  10 52.3921 8.53358  -2
   6   7   5 52.3921 8.53358   1
   7   6  10 2.95037 7.66333  -2
   7   7   5 2.95037 7.66333   1
   8   7   5 52.9459 5.38772   1
   9   7   5 45.2549 5.73408   1
  -6   8   5 -4.6012 3.66600   1
  -5   8   5 94.3712 8.92409   1
  -4   8   5 1.19376 3.00838   1
  -3   8   5 26.0768 4.21258   1
  -2   7  10 29.6142 8.06980  -2
  -2   8   5 29.6142 8.06980   1
  -1   7  10 55.7851 8.34136  -2
  -1   8   5 55.7851 8.34136   1
   0   7  10 18.5909 5.39855  -2
   0   8   5 18.5909 5.39855   1
   1   7  10 46.4771 6.39655  -2
   1   8   5 46.4771 6.39655   1
   2   7  10 99.7050 11.9125  -2
   2   8   5 99.7050 11.9125   1
   3   7  10 -6.2986 3.69193  -2
   3   8   5 -6.2986 3.69193   1
   4   7  10 106.582 10.4572  -2
   4   8   5 106.582 10.4572   1
   5   7  10 54.7146 6.96071  -2
   5   8   5 54.7146 6.96071   1
   6   7  10 69.6251 15.4473  -2
   6   8   5 69.6251 15.4473   1
   7   8   5 24.3188 3.76132   1
   8   8   5 3.65521 2.99934   1
  -5   9   5 47.8839 6.37359   1
  -4   8  11 9.65431 9.99879  -2
  -4   9   5 9.65431 9.99879   1
  -3   8  11 1.34350 9.30540  -2
  -3   9   5 1.34350 9.30540   1
  -2   8  11 75.4695 15.3405  -2
  -2   9   5 75.4695 15.3405   1
  -1   8  11 41.8783 11.3806  -2
  -1   9   5 41.8783 11.3806   1
   0   8  11 40.1810 7.41541  -2
   0   9   5 40.1810 7.41541   1
   1   8  11 59.4964 6.26679  -2
   1   9   5 59.4964 6.26679   1
   2   8  11 10.9334 3.46330  -2
   2   9   5 10.9334 3.46330   1
   3   8  11 28.9253 4.01090  -2
   3   9   5 28.9253 4.01090   1
   4   8  11 33.4319 4.55422  -2
   4   9   5 33.4319 4.55422   1
   5   8  11 15.8238 4.00618  -2
   5   9   5 15.8238 4.00618   1
   6   8  11 40.0879 6.06723  -2
   6   9   5 40.0879 6.06723   1
   7   8  11 73.4199 9.30948  -2
   7   9   5 73.4199 9.30948   1
  -4  10   5 0.85866 4.36307   1
  -3  10   5 2.97422 3.42056   1
  -2  10   5 7.23592 4.15184   1
  -1  10   5 13.0200 3.80348   1
   0   9  11 13.0707 8.05103  -2
   0  10   5 13.0707 8.05103   1
   1   9  12 40.2206 8.60731  -2
   1  10   5 40.2206 8.60731   1
   1   9  11 58.8476 12.8974  -2
   1  10   5 58.8476 12.8974   1
   2   9  12 50.4173 8.76258  -2
   2  10   5 50.4173 8.76258   1
   3   9  12 14.5554 6.81802  -2
   3  10   5 14.5554 6.81802   1
   4   9  12 2.14220 4.35064  -2
   4  10   5 2.14220 4.35064   1
   4   9  11 16.8899 9.30527  -2
   4  10   5 16.8899 9.30527   1
   5   9  12 -4.9911 4.53980  -2
   5  10   5 -4.9911 4.53980   1
   6   9  12 19.5602 7.28068  -2
   6  10   5 19.5602 7.28068   1
  -1  11   5 7.19486 3.81432   1
   0  11   5 14.5805 4.16679   1
   1  11   5 4.87340 3.22731   1
   2  10  12 64.6789 14.8542  -2
   2  11   5 64.6789 14.8542   1
   3  10  12 3.95880 7.76769  -2
   3  11   5 3.95880 7.76769   1
   4  10  12 13.2216 9.05254  -2
   4  11   5 13.2216 9.05254   1
  -3 -11   6 9.83166 3.80412   1
  -2 -11   6 15.9088 4.36893   1
  -1 -11   6 0.77773 2.47991   1
   0 -11   6 1.76848 3.02326   1
   1 -11   6 7.89664 4.50606   1
   2 -11   6 19.1444 8.40164   1
  -5 -10   6 6.69147 4.06037   1
  -4 -10   6 1.87391 2.98318   1
  -3 -10   6 46.0008 5.62356   1
  -2 -10   6 2.76416 2.72618   1
  -1 -10   6 79.3546 7.16764   1
   0 -10   6 39.6399 5.85571   1
   1 -10   6 0.13158 3.44836   1
   2 -10   6 24.2150 4.16164   1
  -3  10   1 44.1150 12.2743  -2
   3 -10   6 44.1150 12.2743   1
  -4  10   1 13.2821 5.43781  -2
   4 -10   6 13.2821 5.43781   1
  -6  -9   6 63.3631 6.87584   1
  -5  -9   6 3.20139 3.11659   1
  -4  -9   6 -3.4010 2.46714   1
  -3  -9   6 8.08198 2.67858   1
  -2  -9   6 8.29666 2.78254   1
  -1  -9   6 1.70510 2.50662   1
   0  -9   6 39.1352 5.55680   1
   1  -9   6 5.34955 2.65088   1
   2  -9   6 42.2285 4.98920   1
   3  -9   6 12.0470 3.12804   1
   4  -9   6 6.55269 3.32051   1
   5  -9   6 3.93156 4.16239   1
   7   9   0 16.0627 13.5838  -2
  -7  -8   6 16.0627 13.5838   1
  -6  -8   6 116.722 9.37058   1
  -5  -8   6 9.38825 2.67996   1
  -4  -8   6 -2.4119 1.66621   1
  -3  -8   6 0.63323 1.64274   1
  -2  -8   6 -2.3902 1.68166   1
  -1  -8   6 11.4664 2.63809   1
   0  -8   6 6.96859 2.64230   1
   1  -8   6 8.96019 2.35786   1
   2  -8   6 70.1859 5.58026   1
   3  -8   6 61.3007 5.35697   1
   4  -8   6 39.1238 4.49530   1
   5  -8   1 74.8114 14.8662  -2
   5  -8   6 74.8114 14.8662   1
  -6   8   0 35.0111 7.19546  -2
   6  -8   6 35.0111 7.19546   1
  -8  -8   1 4.62525 5.63979  -2
  -8  -7   6 4.62525 5.63979   1
  -7  -8   1 12.4963 7.31460  -2
  -7  -7   6 12.4963 7.31460   1
  -6  -7   6 40.4517 5.06813   1
  -5  -7   6 -0.0660 1.64926   1
  -4  -7   6 36.0928 3.33129   1
  -3  -7   6 12.5704 2.22275   1
  -2  -7   6 9.08783 2.04391   1
  -1  -7   6 53.4055 4.36580   1
   0  -7   6 206.838 10.5594   1
   1  -7   6 197.371 9.55021   1
   2  -7   6 68.8992 5.18090   1
   3  -7   6 143.405 8.65239   1
   4  -7   6 36.2637 3.53126   1
   5  -7   6 25.7419 3.28170   1
   6  -7   1 5.01787 4.95737  -2
   6  -7   6 5.01787 4.95737   1
   7  -7   1 17.6192 6.21232  -2
   7  -7   6 17.6192 6.21232   1
  -9  -7   2 32.5953 11.3588  -2
  -9  -6   6 32.5953 11.3588   1
  -8  -7   2 -8.8971 9.62976  -2
  -8  -6   6 -8.8971 9.62976   1
  -7  -6   6 5.51547 3.13641   1
  -6  -6   6 16.4913 3.32008   1
  -5  -6   6 9.44494 1.97178   1
  -4  -6   6 17.0797 2.32430   1
  -3  -6   6 93.9015 5.71482   1
  -2  -6   6 92.1323 5.19135   1
  -1  -6   6 5.09394 1.38525   1
   0  -6   6 69.5959 4.05176   1
   1  -6   6 269.888 13.2948   1
   2  -6   6 13.2254 1.88757   1
   3  -6   6 71.0390 4.85359   1
   4  -6   6 9.47131 2.15097   1
   5  -6   6 40.5894 3.99049   1
   6  -6   6 23.3225 3.15694   1
   7  -6   2 16.2983 6.38244  -2
   7  -6   6 16.2983 6.38244   1
   8  -6   2 42.2837 8.31735  -2
   8  -6   6 42.2837 8.31735   1
  -9  -6   2 64.6640 11.3867  -2
  -9  -5   6 64.6640 11.3867   1
  -8  -6   2 7.37442 4.23277  -2
  -8  -5   6 7.37442 4.23277   1
  -7  -6   2 91.6055 12.1398  -2
  -7  -5   6 91.6055 12.1398   1
  -6  -6   2 5.76097 4.21508  -2
  -6  -5   6 5.76097 4.21508   1
  -5  -6   2 494.333 44.5836  -2
  -5  -5   6 494.333 44.5836   1
  -4  -6   2 133.811 14.8286  -2
  -4  -5   6 133.811 14.8286   1
  -3  -5   6 2.71442 1.16571   1
  -2  -5   6 261.371 11.4914   1
  -1  -5   6 9.90870 1.35380   1
   0  -5   6 634.805 26.3164   1
   1  -5   6 39.1428 3.26386   1
   2  -5   6 94.7281 5.48249   1
   3  -5   6 7.00762 1.70101   1
   4  -5   6 40.6877 3.66244   1
   5  -5   6 18.6921 2.69023   1
   6  -5   6 42.3989 4.00911   1
   7  -5   3 29.4450 5.84660  -2
   7  -5   6 29.4450 5.84660   1
   8  -5   2 29.1131 10.9979  -2
   8  -5   6 29.1131 10.9979   1
   8  -5   3 26.0194 9.19331  -2
   8  -5   6 26.0194 9.19331   1
   9  -5   6 -0.5288 6.45765   1
  -9  -5   3 13.3962 4.39984  -2
  -9  -4   6 13.3962 4.39984   1
  -8  -5   3 29.6469 4.14745  -2
  -8  -4   6 29.6469 4.14745   1
  -7  -5   3 4.83668 3.19652  -2
  -7  -4   6 4.83668 3.19652   1
  -6  -5   3 107.343 7.38942  -2
  -6  -4   6 107.343 7.38942   1
  -5  -5   3 12.5707 2.35480  -2
  -5  -4   6 12.5707 2.35480   1
  -4  -5   3 129.736 10.8794  -2
  -4  -4   6 129.736 10.8794   1
  -3  -5   3 260.290 23.2928  -2
  -3  -4   6 260.290 23.2928   1
  -2  -4   6 29.3406 1.90290   1
  -1  -4   6 265.180 11.4941   1
   0  -4   6 564.670 24.6444   1
   1  -4   6 42.8704 2.84940   1
   2  -4   6 61.3908 3.85440   1
   3  -4   6 98.1647 5.57470   1
   4  -4   6 40.8940 3.19939   1
   5  -4   6 11.1684 2.35579   1
   6  -4   6 4.80878 1.98824   1
   7  -4   6 23.1170 3.02250   1
   8  -4   3 1.75774 4.71861  -2
   8  -4   6 1.75774 4.71861   1
   9  -4   3 92.7460 11.9871  -2
   9  -4   6 92.7460 11.9871   1
  -9  -4   4 26.9584 6.46737  -2
  -9  -3   6 26.9584 6.46737   1
  -8  -4   4 22.0695 5.57114  -2
  -8  -3   6 22.0695 5.57114   1
  -7  -4   4 0.18988 2.95639  -2
  -7  -3   6 0.18988 2.95639   1
  -6  -4   4 62.1753 6.75524  -2
  -6  -3   6 62.1753 6.75524   1
  -5  -4   4 46.2705 4.35163  -2
  -5  -3   6 46.2705 4.35163   1
  -4  -4   4 41.6888 9.65698  -2
  -4  -3   6 41.6888 9.65698   1
  -3  -3   6 160.398 7.57452   1
  -2  -3   6 188.364 8.21795   1
  -1  -3   6 12.1290 1.06423   1
   0  -3   6 8.32153 0.82540   1
   1  -3   6 13.8328 1.23233   1
   2  -3   6 19.6244 1.56472   1
   3  -3   6 -0.4875 0.92149   1
   4  -3   6 137.479 7.87129   1
   5  -3   6 115.919 7.71857   1
   6  -3   6 56.6895 5.00634   1
   7  -3   6 46.3896 4.63736   1
   8  -3   4 -2.6346 8.26161  -2
   8  -3   6 -2.6346 8.26161   1
   9  -3   4 14.2643 10.4609  -2
   9  -3   6 14.2643 10.4609   1
 -10  -2   6 5.55495 5.17015   1
  -9  -3   5 118.887 20.6182  -2
  -9  -2   6 118.887 20.6182   1
  -9  -3   4 65.0346 14.3967  -2
  -9  -2   6 65.0346 14.3967   1
  -8  -3   5 20.6458 9.05120  -2
  -8  -2   6 20.6458 9.05120   1
  -8  -3   4 48.9592 12.0328  -2
  -8  -2   6 48.9592 12.0328   1
  -7  -3   4 37.0474 10.2974  -2
  -7  -2   6 37.0474 10.2974   1
  -6  -3   4 110.372 17.2069  -2
  -6  -2   6 110.372 17.2069   1
  -5  -3   4 12.9128 1.94553  -2
  -5  -2   6 12.9128 1.94553   1
  -4  -3   4 268.060 15.0184  -2
  -4  -2   6 268.060 15.0184   1
  -3  -3   4 450.952 40.6286  -2
  -3  -2   6 450.952 40.6286   1
  -2  -2   6 405.477 15.1978   1
  -1  -2   6 482.147 17.7654   1
   0  -2   6 172.371 6.70985   1
   1  -2   6 187.661 6.33903   1
   2  -2   6 974.233 39.5651   1
   3  -2   6 67.3226 3.68898   1
   4  -2   6 29.9818 2.20472   1
   5  -2   6 355.178 17.1258   1
   6  -2   6 286.766 14.2140   1
   7  -2   6 178.575 10.5072   1
   8  -2   6 12.2269 3.78104   1
   9  -2   6 8.93459 3.67992   1
  10  -2   5 -9.8983 10.8305  -2
  10  -2   6 -9.8983 10.8305   1
 -10  -2   5 18.4819 6.60583  -2
 -10  -1   6 18.4819 6.60583   1
  -9  -2   5 53.8071 8.68303  -2
  -9  -1   6 53.8071 8.68303   1
  -8  -2   5 120.196 13.7034  -2
  -8  -1   6 120.196 13.7034   1
  -7  -2   5 103.824 8.09908  -2
  -7  -1   6 103.824 8.09908   1
  -6  -2   5 68.3551 5.19396  -2
  -6  -1   6 68.3551 5.19396   1
  -5  -2   5 7.58925 1.81354  -2
  -5  -1   6 7.58925 1.81354   1
  -4  -2   5 790.798 34.2842  -2
  -4  -1   6 790.798 34.2842   1
  -3  -2   5 146.577 7.15722  -2
  -3  -1   6 146.577 7.15722   1
  -2  -2   5 337.558 18.9048  -2
  -2  -1   6 337.558 18.9048   1
  -1  -2   5 386.926 33.0782  -2
  -1  -1   6 386.926 33.0782   1
   0  -1   6 58.0054 2.18711   1
   1  -1   6 163.523 5.60096   1
   2  -1   6 177.707 6.52291   1
   3  -1   6 125.553 6.06888   1
   4  -1   6 67.1564 3.73431   1
   5  -1   6 96.7876 5.47794   1
   6  -1   6 752.940 35.5526   1
   7  -1   6 28.1353 2.96510   1
   8  -1   6 100.297 7.95278   1
   9  -1   6 9.14211 3.45018   1
  10  -1   5 45.7994 12.4353  -2
  10  -1   6 45.7994 12.4353   1
 -10   0   6 5.43821 5.23753   1
  -9   0   6 18.4963 4.67979   1
  -8  -1   6 62.4184 9.36390  -2
  -8   0   6 62.4184 9.36390   1
  -7  -1   6 62.1412 8.65104  -2
  -7   0   6 62.1412 8.65104   1
  -6  -1   6 571.143 51.7195  -2
  -6   0   6 571.143 51.7195   1
  -5  -1   6 8.50801 3.38706  -2
  -5   0   6 8.50801 3.38706   1
  -4  -1   6 858.038 74.6384  -2
  -4   0   6 858.038 74.6384   1
  -3  -1   6 41.8295 2.52531  -2
  -3   0   6 41.8295 2.52531   1
  -2  -1   6 654.900 42.0657  -2
  -2   0   6 654.900 42.0657   1
  -1   0   6 69.5461 2.52734   1
   0   0   6 604.617 20.4182   1
   1   0   6 5.32255 0.57223   1
   2   0   6 3.01495 0.53643   1
   3   0   6 749.733 32.3619   1
   4   0   6 65.0838 3.60396   1
   5   0   6 24.8159 2.37899   1
   6   0   6 6.97239 2.00387   1
   7   0   6 60.4252 4.47768   1
   8   0   6 58.6791 5.12615   1
   9   0   6 90.4785 7.75191   1
  10   0   6 64.7181 6.65009   1
  -9   1   6 7.78972 3.83751   1
  -8   1   6 3.59177 3.03948   1
  -7   0   7 116.716 19.2027  -2
  -7   1   6 116.716 19.2027   1
  -6   0   7 81.6166 14.4331  -2
  -6   1   6 81.6166 14.4331   1
  -5   0   6 168.245 22.3769  -2
  -5   1   6 168.245 22.3769   1
  -4   1   6 85.2869 4.98491   1
  -3   1   6 681.135 29.6946   1
  -2   1   6 3.00506 0.48356   1
  -1   1   6 155.739 6.15830   1
   0   1   6 10.6322 0.59910   1
   1   1   6 682.610 22.9749   1
   2   1   6 12.6720 0.85147   1
   3   1   6 4473.97 171.768   1
   4   1   6 1.34686 0.91775   1
   5   1   6 159.301 8.33340   1
   6   1   6 89.9577 5.98285   1
   7   1   6 135.555 8.33588   1
   8   1   6 -3.5181 2.01311   1
   9   1   6 62.5766 6.19912   1
  10   1   6 143.144 10.8678   1
  -9   1   7 8.36005 9.05526  -2
  -9   2   6 8.36005 9.05526   1
  -8   1   7 31.5489 6.79340  -2
  -8   2   6 31.5489 6.79340   1
  -7   1   7 100.902 11.4785  -2
  -7   2   6 100.902 11.4785   1
  -6   1   7 188.038 18.2080  -2
  -6   2   6 188.038 18.2080   1
  -5   1   7 123.468 7.55706  -2
  -5   2   6 123.468 7.55706   1
  -4   1   7 171.950 9.24307  -2
  -4   2   6 171.950 9.24307   1
  -3   1   7 20.8949 1.71861  -2
  -3   2   6 20.8949 1.71861   1
  -2   1   7 241.438 12.4125  -2
  -2   2   6 241.438 12.4125   1
  -1   1   7 190.375 9.32517  -2
  -1   2   6 190.375 9.32517   1
   0   1   7 20.1393 1.17046  -2
   0   2   6 20.1393 1.17046   1
   1   1   7 14.2904 1.27988  -2
   1   2   6 14.2904 1.27988   1
   2   1   7 1185.74 71.5046  -2
   2   2   6 1185.74 71.5046   1
   3   1   7 507.233 62.8619  -2
   3   2   6 507.233 62.8619   1
   4   2   6 552.351 24.4603   1
   5   2   6 80.9265 4.82057   1
   6   2   6 72.5194 4.72113   1
   7   2   6 24.5331 2.97707   1
   8   2   6 74.9141 5.72055   1
   9   2   6 12.8836 3.16245   1
  10   2   6 -5.9835 2.77064   1
  -9   3   6 -0.1902 3.42710   1
  -8   3   6 -0.7779 3.00043   1
  -7   2   8 2.71035 5.79526  -2
  -7   3   6 2.71035 5.79526   1
  -6   2   8 36.2643 5.95161  -2
  -6   3   6 36.2643 5.95161   1
  -5   2   8 88.8521 12.6565  -2
  -5   3   6 88.8521 12.6565   1
  -4   2   8 115.192 7.81019  -2
  -4   3   6 115.192 7.81019   1
  -3   2   8 635.351 39.5834  -2
  -3   3   6 635.351 39.5834   1
  -2   2   8 374.534 19.2027  -2
  -2   3   6 374.534 19.2027   1
  -1   2   8 44.1338 2.13202  -2
  -1   3   6 44.1338 2.13202   1
   0   2   8 21.9582 1.31718  -2
   0   3   6 21.9582 1.31718   1
   1   2   8 224.109 9.44292  -2
   1   3   6 224.109 9.44292   1
   2   2   8 67.6193 4.48130  -2
   2   3   6 67.6193 4.48130   1
   3   2   8 606.874 43.1735  -2
   3   3   6 606.874 43.1735   1
   4   2   8 78.1150 9.16239  -2
   4   3   6 78.1150 9.16239   1
   5   2   8 48.1001 11.1557  -2
   5   3   6 48.1001 11.1557   1
   6   2   8 28.5259 6.76864  -2
   6   3   6 28.5259 6.76864   1
   7   3   6 -3.0822 1.67977   1
   8   3   6 136.957 8.66109   1
   9   3   6 -1.1148 2.99791   1
  10   3   6 3.76368 3.05807   1
  -9   4   6 9.44982 7.04692   1
  -8   4   6 38.0560 5.95552   1
  -7   4   6 22.5601 4.47183   1
  -6   4   6 77.0084 6.82612   1
  -5   4   6 21.5386 3.12205   1
  -4   4   6 97.5318 5.79431   1
  -3   4   6 35.7106 2.85715   1
  -2   3   9 75.8712 10.8314  -2
  -2   4   6 75.8712 10.8314   1
  -2   3   8 90.5059 12.9894  -2
  -2   4   6 90.5059 12.9894   1
  -1   3   9 -3.5265 2.84911  -2
  -1   4   6 -3.5265 2.84911   1
  -1   3   8 3.37757 3.33314  -2
  -1   4   6 3.37757 3.33314   1
   0   3   8 146.392 20.3454  -2
   0   4   6 146.392 20.3454   1
   0   3   9 140.424 18.5627  -2
   0   4   6 140.424 18.5627   1
   1   3   8 108.824 15.8895  -2
   1   4   6 108.824 15.8895   1
   1   3   9 6.00503 4.21815  -2
   1   4   6 6.00503 4.21815   1
   2   3   8 43.9746 5.00744  -2
   2   4   6 43.9746 5.00744   1
   3   4   6 1.31669 0.88324   1
   4   4   6 4.53241 1.48173   1
   5   4   6 55.1407 4.41137   1
   6   4   6 61.2003 4.90091   1
   7   4   6 77.9733 5.84827   1
   8   4   6 7.17968 2.53259   1
   9   4   6 53.4418 5.75332   1
  10   4   6 10.5854 3.68781   1
  -8   5   6 1.95947 4.47892   1
  -7   5   6 11.0489 4.86520   1
  -6   5   6 48.2747 4.88756   1
  -5   5   6 91.4584 6.89669   1
  -4   5   6 74.5116 5.71963   1
  -3   4   9 217.075 29.7979  -2
  -3   5   6 217.075 29.7979   1
  -2   4   9 114.018 9.44766  -2
  -2   5   6 114.018 9.44766   1
  -1   4   9 33.6450 4.27358  -2
  -1   5   6 33.6450 4.27358   1
   0   4   9 152.692 8.39952  -2
   0   5   6 152.692 8.39952   1
   1   4   9 33.8058 2.36184  -2
   1   5   6 33.8058 2.36184   1
   2   4   9 12.8476 1.47099  -2
   2   5   6 12.8476 1.47099   1
   3   4   9 66.5537 3.57668  -2
   3   5   6 66.5537 3.57668   1
   4   4   9 54.6851 3.93865  -2
   4   5   6 54.6851 3.93865   1
   5   4   9 29.2706 4.06768  -2
   5   5   6 29.2706 4.06768   1
   6   4   9 5.84110 4.81738  -2
   6   5   6 5.84110 4.81738   1
   7   4   9 8.90480 5.66306  -2
   7   5   6 8.90480 5.66306   1
   8   4   9 23.4558 10.2344  -2
   8   5   6 23.4558 10.2344   1
   9   5   6 86.6196 7.78320   1
  -7   5  10 20.9954 10.4102  -2
  -7   6   6 20.9954 10.4102   1
  -6   5  10 55.5485 14.0562  -2
  -6   6   6 55.5485 14.0562   1
  -5   5  10 34.0834 10.7660  -2
  -5   6   6 34.0834 10.7660   1
  -4   5  10 133.667 21.1626  -2
  -4   6   6 133.667 21.1626   1
  -3   5  10 45.2429 10.5847  -2
  -3   6   6 45.2429 10.5847   1
  -2   5  10 37.0296 8.69717  -2
  -2   6   6 37.0296 8.69717   1
  -1   5  10 64.8303 7.28397  -2
  -1   6   6 64.8303 7.28397   1
   0   5  10 21.9935 2.39942  -2
   0   6   6 21.9935 2.39942   1
   1   5  10 19.7712 2.45119  -2
   1   6   6 19.7712 2.45119   1
   2   5  10 192.221 10.1678  -2
   2   6   6 192.221 10.1678   1
   3   5  10 92.7662 5.40729  -2
   3   6   6 92.7662 5.40729   1
   4   5  10 279.116 12.5838  -2
   4   6   6 279.116 12.5838   1
   5   5  10 44.7010 4.02277  -2
   5   6   6 44.7010 4.02277   1
   6   5  10 404.374 26.1124  -2
   6   6   6 404.374 26.1124   1
   7   5  10 33.2931 5.14775  -2
   7   6   6 33.2931 5.14775   1
   8   5  10 58.4526 9.57936  -2
   8   6   6 58.4526 9.57936   1
   9   5  10 32.8953 8.63955  -2
   9   6   6 32.8953 8.63955   1
  -7   7   6 10.4471 4.55145   1
  -6   7   6 45.0511 5.92313   1
  -5   7   6 12.6600 3.49506   1
  -4   7   6 61.3613 6.38831   1
  -3   7   6 4.91954 2.19012   1
  -2   7   6 6.29633 2.19308   1
  -1   7   6 9.73416 2.18447   1
   0   6  10 403.516 53.1212  -2
   0   7   6 403.516 53.1212   1
   1   6  10 82.3363 14.3758  -2
   1   7   6 82.3363 14.3758   1
   2   6  11 133.009 18.9151  -2
   2   7   6 133.009 18.9151   1
   2   6  10 104.313 16.8567  -2
   2   7   6 104.313 16.8567   1
   3   6  11 35.9135 6.10212  -2
   3   7   6 35.9135 6.10212   1
   4   6  10 99.0475 14.0694  -2
   4   7   6 99.0475 14.0694   1
   4   6  11 119.896 12.7860  -2
   4   7   6 119.896 12.7860   1
   5   6  11 71.7959 9.12663  -2
   5   7   6 71.7959 9.12663   1
   5   6  10 29.4391 8.96050  -2
   5   7   6 29.4391 8.96050   1
   6   6  11 13.6879 7.88260  -2
   6   7   6 13.6879 7.88260   1
   7   6  11 67.8818 10.2318  -2
   7   7   6 67.8818 10.2318   1
   8   6  11 12.7747 6.24030  -2
   8   7   6 12.7747 6.24030   1
   9   6  11 62.0783 10.6549  -2
   9   7   6 62.0783 10.6549   1
  -6   8   6 5.93785 3.75306   1
  -5   8   6 30.9192 4.82871   1
  -4   8   6 15.5470 3.86805   1
  -3   8   6 31.4535 4.55473   1
  -2   8   6 29.3440 3.78301   1
  -1   8   6 20.3727 3.64336   1
   0   8   6 41.6912 4.37575   1
   1   7  11 71.9305 14.8684  -2
   1   8   6 71.9305 14.8684   1
   2   7  11 57.0580 8.95624  -2
   2   8   6 57.0580 8.95624   1
   3   7  11 36.0907 5.85200  -2
   3   8   6 36.0907 5.85200   1
   4   7  11 77.2727 6.40348  -2
   4   8   6 77.2727 6.40348   1
   5   7  11 12.4865 4.25865  -2
   5   8   6 12.4865 4.25865   1
   6   7  11 50.8223 6.09129  -2
   6   8   6 50.8223 6.09129   1
   7   7  11 16.6824 6.89430  -2
   7   8   6 16.6824 6.89430   1
   8   7  11 -1.9207 4.61937  -2
   8   8   6 -1.9207 4.61937   1
  -5   9   6 6.75748 3.81361   1
  -4   9   6 -0.4268 3.02116   1
  -3   9   6 6.76564 3.33185   1
  -2   9   6 29.6992 4.63390   1
  -1   9   6 14.2457 3.25276   1
   0   9   6 42.5278 4.82955   1
   1   9   6 46.7808 4.97771   1
   2   9   6 5.63437 2.80945   1
   3   8  12 21.0054 6.64527  -2
   3   9   6 21.0054 6.64527   1
   4   8  12 16.1863 5.42878  -2
   4   9   6 16.1863 5.42878   1
   5   8  12 48.1850 6.05396  -2
   5   9   6 48.1850 6.05396   1
   6   8  12 31.8924 6.11498  -2
   6   9   6 31.8924 6.11498   1
   7   8  12 30.4808 7.68174  -2
   7   9   6 30.4808 7.68174   1
  -3  10   6 8.23557 3.76634   1
  -2  10   6 12.3283 4.43624   1
  -1  10   6 16.0168 3.97494   1
   0  10   6 15.1215 3.54257   1
   1  10   6 21.7775 3.93586   1
   2  10   6 75.4236 6.89529   1
   3  10   6 2.64187 2.86048   1
   4   9  12 14.8495 10.0200  -2
   4  10   6 14.8495 10.0200   1
   5   9  13 40.7732 9.07677  -2
   5  10   6 40.7732 9.07677   1
   6  10   6 13.8857 4.31233   1
  -1  11   6 27.3805 4.89430   1
   0  11   6 33.6129 5.60940   1
   1  11   6 7.67148 3.48095   1
   2  11   6 67.2379 6.77330   1
   3  11   6 -2.7993 2.89012   1
   4  11   6 12.4340 4.19505   1
  -3 -11   7 -0.0591 3.86861   1
  -2 -11   7 16.7626 3.78971   1
  -1 -11   7 10.0459 4.10359   1
   0 -11   7 14.4163 3.87959   1
   1 -11   7 6.22794 4.30631   1
  -5 -10   7 23.5452 5.21224   1
  -4 -10   7 12.6070 4.00127   1
  -3 -10   7 6.79097 3.36678   1
  -2 -10   7 1.04134 2.69540   1
  -1 -10   7 16.8224 3.72368   1
   0 -10   7 30.5936 5.27813   1
   1 -10   7 -0.7295 3.35791   1
   2 -10   7 65.8781 6.64406   1
   3 -10   7 26.5310 4.83226   1
   4 -10   7 7.78513 3.60197   1
  -6  -9   7 20.7081 4.58738   1
  -5  -9   7 -0.2824 2.94784   1
  -4  -9   7 19.6291 3.66554   1
  -3  -9   7 -1.7951 2.49262   1
  -2  -9   7 -3.5608 2.20451   1
  -1  -9   7 45.3793 4.92690   1
   0  -9   7 36.2082 5.19387   1
   1  -9   7 22.1151 3.89145   1
   2  -9   7 22.8522 3.43861   1
   3  -9   7 22.1755 3.57295   1
   4  -9   7 10.7390 3.59043   1
   5  -9   7 7.77518 3.64158   1
  -7  -9   1 65.0502 9.19891  -2
  -7  -8   7 65.0502 9.19891   1
  -6  -9   1 21.5684 8.31761  -2
  -6  -8   7 21.5684 8.31761   1
  -5  -9   1 17.2766 6.31219  -2
  -5  -8   7 17.2766 6.31219   1
  -4  -8   7 1.53770 2.09663   1
  -3  -8   7 3.14597 1.90153   1
  -2  -8   7 0.83970 1.75114   1
  -1  -8   7 18.9064 2.84027   1
   0  -8   7 40.5942 4.07940   1
   1  -8   7 138.082 8.74740   1
   2  -8   7 34.0505 3.59458   1
   3  -8   7 21.9162 3.26448   1
   4  -8   7 22.7933 3.51843   1
   5  -8   7 4.39775 2.50268   1
   6  -8   7 7.55786 2.85260   1
  -8  -8   2 2.63524 4.63765  -2
  -8  -7   7 2.63524 4.63765   1
  -7  -8   2 89.8049 8.60833  -2
  -7  -7   7 89.8049 8.60833   1
  -6  -8   2 12.7140 5.32405  -2
  -6  -7   7 12.7140 5.32405   1
  -5  -8   2 43.0367 8.52573  -2
  -5  -7   7 43.0367 8.52573   1
  -4  -7   7 0.32295 1.68716   1
  -3  -7   7 -2.3022 1.51657   1
  -2  -7   7 35.1415 2.98382   1
  -1  -7   7 0.37706 1.69853   1
   0  -7   7 548.513 26.2866   1
   1  -7   7 37.8245 3.02062   1
   2  -7   7 114.600 6.97049   1
   3  -7   7 31.0954 3.16511   1
   4  -7   7 67.6139 5.13721   1
   5  -7   7 12.8343 2.63916   1
   6  -7   7 3.77555 2.24809   1
   7  -7   7 13.7070 3.57133   1
  -8  -7   3 -5.8268 7.27400  -2
  -8  -6   7 -5.8268 7.27400   1
  -7  -7   2 42.9509 13.2751  -2
  -7  -6   7 42.9509 13.2751   1
  -7  -7   3 16.3590 8.73029  -2
  -7  -6   7 16.3590 8.73029   1
  -6  -7   3 16.8918 8.02121  -2
  -6  -6   7 16.8918 8.02121   1
  -6  -7   2 38.1670 12.2324  -2
  -6  -6   7 38.1670 12.2324   1
  -5  -6   7 5.47279 1.76817   1
  -4  -7   2 96.3390 17.1261  -2
  -4  -6   7 96.3390 17.1261   1
  -3  -6   7 8.83029 1.69995   1
  -2  -6   7 27.7802 2.27623   1
  -1  -6   7 3.48646 1.35187   1
   0  -6   7 61.9152 4.22348   1
   1  -6   7 129.961 7.16603   1
   2  -6   7 51.5725 3.87918   1
   3  -6   7 65.7223 4.61505   1
   4  -6   7 25.1697 2.91770   1
   5  -6   7 29.6660 3.26214   1
   6  -6   7 7.65801 2.36190   1
   7  -6   7 1.96343 2.26915   1
   8  -6   7 8.62232 3.50147   1
  -9  -6   3 45.2232 9.99778  -2
  -9  -5   7 45.2232 9.99778   1
  -8  -6   3 7.86124 4.90858  -2
  -8  -5   7 7.86124 4.90858   1
  -7  -6   3 29.9680 4.71607  -2
  -7  -5   7 29.9680 4.71607   1
  -6  -6   3 16.2256 4.51879  -2
  -6  -5   7 16.2256 4.51879   1
  -5  -6   3 51.4138 4.97200  -2
  -5  -5   7 51.4138 4.97200   1
  -4  -6   3 216.513 16.8359  -2
  -4  -5   7 216.513 16.8359   1
  -3  -6   3 171.144 11.8516  -2
  -3  -5   7 171.144 11.8516   1
  -2  -6   3 53.3497 5.57293  -2
  -2  -5   7 53.3497 5.57293   1
  -1  -5   7 1.25815 1.03541   1
   0  -5   7 60.6877 3.71971   1
   1  -5   7 216.174 12.5129   1
   2  -5   7 179.486 10.0777   1
   3  -5   7 49.1870 3.56032   1
   4  -5   7 6.85605 1.95437   1
   5  -5   7 65.1366 5.54895   1
   6  -5   7 13.5698 2.55374   1
   7  -5   7 22.6963 3.15888   1
   8  -5   7 4.56034 2.73152   1
  -9  -5   4 29.0327 7.55698  -2
  -9  -4   7 29.0327 7.55698   1
  -8  -5   4 0.42792 3.54308  -2
  -8  -4   7 0.42792 3.54308   1
  -7  -5   4 4.55605 2.97277  -2
  -7  -4   7 4.55605 2.97277   1
  -6  -5   4 7.87011 2.28580  -2
  -6  -4   7 7.87011 2.28580   1
  -5  -5   4 130.207 8.33186  -2
  -5  -4   7 130.207 8.33186   1
  -4  -5   4 23.1566 2.68643  -2
  -4  -4   7 23.1566 2.68643   1
  -3  -5   4 108.772 7.06051  -2
  -3  -4   7 108.772 7.06051   1
  -2  -5   4 153.398 9.02426  -2
  -2  -4   7 153.398 9.02426   1
  -1  -5   4 343.213 24.7205  -2
  -1  -4   7 343.213 24.7205   1
   0  -4   7 71.9089 3.60859   1
   1  -4   7 86.0745 4.84881   1
   2  -4   7 -1.2007 0.91309   1
   3  -4   7 69.8233 4.28309   1
   4  -4   7 63.5938 4.33075   1
   5  -4   7 163.116 10.4530   1
   6  -4   7 57.4040 5.24378   1
   7  -4   7 8.10725 2.30256   1
   8  -4   7 9.70632 2.81805   1
   9  -4   7 22.3197 5.36655   1
  -9  -3   7 41.4544 5.75946   1
  -8  -4   5 70.9949 9.84334  -2
  -8  -3   7 70.9949 9.84334   1
  -7  -4   5 86.2903 10.8379  -2
  -7  -3   7 86.2903 10.8379   1
  -6  -4   5 34.1014 4.92782  -2
  -6  -3   7 34.1014 4.92782   1
  -5  -4   5 105.230 7.65313  -2
  -5  -3   7 105.230 7.65313   1
  -4  -4   5 17.1261 2.86649  -2
  -4  -3   7 17.1261 2.86649   1
  -3  -4   5 130.014 18.6688  -2
  -3  -3   7 130.014 18.6688   1
  -2  -3   7 3.60645 0.83956   1
  -1  -3   7 0.15925 0.73689   1
   0  -3   7 429.836 15.8506   1
   1  -3   7 3.21524 0.86600   1
   2  -3   7 231.856 11.4153   1
   3  -3   7 3.88551 1.24579   1
   4  -3   7 16.7385 1.94235   1
   5  -3   7 0.31194 1.71418   1
   6  -3   7 90.9874 6.90253   1
   7  -3   7 42.0475 4.42427   1
   8  -3   7 12.2277 3.73736   1
   9  -3   7 1.25091 3.58816   1
  -9  -2   7 3.80876 3.51509   1
  -8  -2   7 33.5265 5.01163   1
  -7  -2   7 51.0521 5.42947   1
  -6  -3   5 69.9708 10.8186  -2
  -6  -2   7 69.9708 10.8186   1
  -5  -3   5 12.3095 2.18744  -2
  -5  -2   7 12.3095 2.18744   1
  -4  -3   5 94.6550 5.86809  -2
  -4  -2   7 94.6550 5.86809   1
  -3  -3   5 29.2253 2.03484  -2
  -3  -2   7 29.2253 2.03484   1
  -2  -3   5 365.013 19.9761  -2
  -2  -2   7 365.013 19.9761   1
  -1  -3   5 16.4376 1.80250  -2
  -1  -2   7 16.4376 1.80250   1
   0  -3   5 512.593 44.7637  -2
   0  -2   7 512.593 44.7637   1
   1  -3   5 2355.38 277.543  -2
   1  -2   7 2355.38 277.543   1
   2  -2   7 402.463 17.7838   1
   3  -2   7 338.868 14.2248   1
   4  -2   7 492.547 21.8566   1
   5  -2   7 146.213 7.11736   1
   6  -2   7 29.5468 2.83864   1
   7  -2   7 54.8586 4.71186   1
   8  -2   7 66.5499 6.38253   1
   9  -2   7 -4.0092 3.18910   1
  10  -2   7 55.0882 8.30395   1
  -9  -1   7 106.825 9.68441   1
  -8  -2   6 13.0061 8.44513  -2
  -8  -1   7 13.0061 8.44513   1
  -7  -2   6 23.9123 8.30246  -2
  -7  -1   7 23.9123 8.30246   1
  -6  -2   6 150.714 12.0811  -2
  -6  -1   7 150.714 12.0811   1
  -5  -2   6 0.17738 1.83968  -2
  -5  -1   7 0.17738 1.83968   1
  -4  -2   6 96.7848 4.32909  -2
  -4  -1   7 96.7848 4.32909   1
  -3  -2   6 139.918 6.04858  -2
  -3  -1   7 139.918 6.04858   1
  -2  -2   6 720.419 31.2083  -2
  -2  -1   7 720.419 31.2083   1
  -1  -2   6 305.493 11.3705  -2
  -1  -1   7 305.493 11.3705   1
   0  -2   6 525.552 21.2579  -2
   0  -1   7 525.552 21.2579   1
   1  -2   6 189.217 8.20501  -2
   1  -1   7 189.217 8.20501   1
   2  -2   6 283.708 15.5062  -2
   2  -1   7 283.708 15.5062   1
   3  -1   7 0.18598 0.87119   1
   4  -1   7 19.3014 1.86800   1
   5  -1   7 268.192 12.4772   1
   6  -1   7 164.304 8.92514   1
   7  -1   7 164.542 9.18098   1
   8  -1   7 9.90856 3.24747   1
   9  -1   7 -3.2504 2.88611   1
  10  -1   7 92.0555 9.62801   1
  -9   0   7 22.0455 4.85549   1
  -8   0   7 2.18950 2.82875   1
  -7   0   7 68.5280 6.64178   1
  -6   0   7 179.115 11.2194   1
  -5  -1   7 -2.5360 4.28087  -2
  -5   0   7 -2.5360 4.28087   1
  -4  -1   7 25.1486 3.12603  -2
  -4   0   7 25.1486 3.12603   1
  -3  -1   7 122.398 9.79007  -2
  -3   0   7 122.398 9.79007   1
  -2  -1   7 154.988 10.0158  -2
  -2   0   7 154.988 10.0158   1
  -1  -1   7 167.139 9.54613  -2
  -1   0   7 167.139 9.54613   1
   0  -1   7 713.824 59.7706  -2
   0   0   7 713.824 59.7706   1
   1  -1   7 52.9051 5.44414  -2
   1   0   7 52.9051 5.44414   1
   2   0   7 16.8573 1.13303   1
   3   0   7 149.159 6.54455   1
   4   0   7 58.1705 3.65372   1
   5   0   7 106.887 6.47078   1
   6   0   7 80.2360 5.44992   1
   7   0   7 23.9405 2.80141   1
   8   0   7 390.030 19.3831   1
   9   0   7 5.78628 3.14367   1
  10   0   7 25.8645 4.66307   1
  -9   1   7 3.11676 3.31442   1
  -8   1   7 7.57298 3.46362   1
  -7   1   7 8.48404 3.02084   1
  -6   1   7 35.3944 3.87431   1
  -5   1   7 179.574 9.93303   1
  -4   1   7 130.605 6.20959   1
  -3   1   7 32.3446 2.13919   1
  -2   1   7 248.431 8.92734   1
  -1   0   7 233.575 29.8529  -2
  -1   1   7 233.575 29.8529   1
   0   0   7 201.320 16.9824  -2
   0   1   7 201.320 16.9824   1
   1   0   7 18.2406 1.45326  -2
   1   1   7 18.2406 1.45326   1
   2   0   7 1058.22 63.6415  -2
   2   1   7 1058.22 63.6415   1
   3   0   7 1717.36 147.375  -2
   3   1   7 1717.36 147.375   1
   4   0   7 42.5976 5.49094  -2
   4   1   7 42.5976 5.49094   1
   5   0   7 68.0393 11.1122  -2
   5   1   7 68.0393 11.1122   1
   6   0   7 276.069 24.2718  -2
   6   1   7 276.069 24.2718   1
   7   0   7 14.2400 5.61585  -2
   7   1   7 14.2400 5.61585   1
   8   1   7 5.87635 2.60950   1
   9   1   7 24.0680 4.18115   1
  10   1   7 15.2830 3.96064   1
  -9   2   7 4.75116 3.68578   1
  -8   2   7 5.16513 3.26768   1
  -7   2   7 44.2795 5.74973   1
  -6   2   7 52.6380 5.13581   1
  -5   1   8 12.1918 4.55063  -2
  -5   2   7 12.1918 4.55063   1
  -4   1   8 169.204 21.2345  -2
  -4   2   7 169.204 21.2345   1
  -3   1   8 56.5375 4.50559  -2
  -3   2   7 56.5375 4.50559   1
  -2   1   8 97.5503 6.94274  -2
  -2   2   7 97.5503 6.94274   1
  -1   1   8 546.051 28.1346  -2
  -1   2   7 546.051 28.1346   1
   0   1   8 23.9854 1.34180  -2
   0   2   7 23.9854 1.34180   1
   1   1   8 61.8014 2.46560  -2
   1   2   7 61.8014 2.46560   1
   2   1   8 99.2730 4.74818  -2
   2   2   7 99.2730 4.74818   1
   3   1   8 570.760 27.9961  -2
   3   2   7 570.760 27.9961   1
   4   1   8 25.0455 2.75237  -2
   4   2   7 25.0455 2.75237   1
   5   1   8 60.0053 3.83462  -2
   5   2   7 60.0053 3.83462   1
   6   1   8 77.2943 5.17215  -2
   6   2   7 77.2943 5.17215   1
   7   1   8 46.0819 4.95755  -2
   7   2   7 46.0819 4.95755   1
   8   1   8 85.2482 10.0093  -2
   8   2   7 85.2482 10.0093   1
   9   1   8 135.359 22.3163  -2
   9   2   7 135.359 22.3163   1
  10   1   8 11.5037 9.94610  -2
  10   2   7 11.5037 9.94610   1
  -9   3   7 16.5012 4.47326   1
  -8   3   7 3.64495 3.28503   1
  -7   3   7 41.1080 5.67568   1
  -6   3   7 38.9265 4.43415   1
  -5   3   7 184.944 11.2893   1
  -4   3   7 10.1735 1.54329   1
  -3   3   7 192.489 10.0866   1
  -2   2   9 45.7561 5.34850  -2
  -2   3   7 45.7561 5.34850   1
  -1   2   9 620.512 53.4644  -2
  -1   3   7 620.512 53.4644   1
   0   2   9 583.200 31.7528  -2
   0   3   7 583.200 31.7528   1
   1   2   9 142.338 9.07047  -2
   1   3   7 142.338 9.07047   1
   2   2   9 143.324 7.66431  -2
   2   3   7 143.324 7.66431   1
   3   2   9 701.131 37.4738  -2
   3   3   7 701.131 37.4738   1
   4   2   9 493.387 35.4783  -2
   4   3   7 493.387 35.4783   1
   5   2   9 76.5913 5.65698  -2
   5   3   7 76.5913 5.65698   1
   6   2   9 19.4663 3.50888  -2
   6   3   7 19.4663 3.50888   1
   7   2   9 58.7066 5.78238  -2
   7   3   7 58.7066 5.78238   1
   8   2   9 75.9026 7.11740  -2
   8   3   7 75.9026 7.11740   1
   9   2   9 20.8197 7.51175  -2
   9   3   7 20.8197 7.51175   1
  10   2   9 15.5940 7.93649  -2
  10   3   7 15.5940 7.93649   1
  -8   4   7 17.8338 4.43507   1
  -7   4   7 -6.6193 2.78177   1
  -6   4   7 19.8574 3.52274   1
  -5   4   7 17.8183 3.11072   1
  -4   4   7 229.792 13.4007   1
  -3   4   7 1.67089 1.03961   1
  -2   4   7 5.66263 0.90287   1
  -1   4   7 21.9431 1.43482   1
   0   4   7 142.103 6.20377   1
   1   3   9 199.030 26.3213  -2
   1   4   7 199.030 26.3213   1
   2   3   9 317.534 28.8678  -2
   2   4   7 317.534 28.8678   1
   3   3   9 -1.2167 2.71638  -2
   3   4   7 -1.2167 2.71638   1
   4   3   9 38.7244 6.32829  -2
   4   4   7 38.7244 6.32829   1
   5   3   9 14.3378 4.22150  -2
   5   4   7 14.3378 4.22150   1
   6   3   9 204.586 19.8147  -2
   6   4   7 204.586 19.8147   1
   7   3   9 33.8326 9.19787  -2
   7   4   7 33.8326 9.19787   1
   8   3   9 77.4195 14.5615  -2
   8   4   7 77.4195 14.5615   1
   9   3   9 21.1965 10.2642  -2
   9   4   7 21.1965 10.2642   1
  10   3   9 136.863 22.7843  -2
  10   4   7 136.863 22.7843   1
  -8   5   7 7.03798 5.07220   1
  -7   5   7 0.35380 4.26295   1
  -6   5   7 103.196 7.66866   1
  -5   5   7 49.3208 4.66691   1
  -4   5   7 226.968 13.6976   1
  -3   5   7 5.39683 1.35143   1
  -2   5   7 13.4440 1.61377   1
  -1   4  10 87.9210 13.5628  -2
  -1   5   7 87.9210 13.5628   1
   0   4  10 10.0866 1.96807  -2
   0   5   7 10.0866 1.96807   1
   1   4  10 86.4324 7.33298  -2
   1   5   7 86.4324 7.33298   1
   2   4  10 177.321 11.8426  -2
   2   5   7 177.321 11.8426   1
   3   4  10 173.168 8.13985  -2
   3   5   7 173.168 8.13985   1
   4   4  10 234.807 12.2662  -2
   4   5   7 234.807 12.2662   1
   5   4  10 64.1112 4.74463  -2
   5   5   7 64.1112 4.74463   1
   6   4  10 17.4439 3.57046  -2
   6   5   7 17.4439 3.57046   1
   7   4  10 116.099 8.25360  -2
   7   5   7 116.099 8.25360   1
   8   4  10 36.2825 4.44817  -2
   8   5   7 36.2825 4.44817   1
   9   4  10 208.044 17.6921  -2
   9   5   7 208.044 17.6921   1
  -7   6   7 36.6489 6.28908   1
  -6   6   7 6.21865 3.12148   1
  -5   6   7 35.3361 4.47852   1
  -4   6   7 172.223 12.5717   1
  -3   6   7 39.8170 3.45826   1
  -2   6   7 7.06715 1.51659   1
  -1   6   7 0.80244 1.15287   1
   0   5  11 14.9460 3.05109  -2
   0   6   7 14.9460 3.05109   1
   1   5  11 68.9192 9.91141  -2
   1   6   7 68.9192 9.91141   1
   2   5  11 26.4898 6.79112  -2
   2   6   7 26.4898 6.79112   1
   3   5  11 385.893 27.8811  -2
   3   6   7 385.893 27.8811   1
   4   5  11 455.960 25.4075  -2
   4   6   7 455.960 25.4075   1
   5   5  11 160.933 10.9854  -2
   5   6   7 160.933 10.9854   1
   6   5  11 92.9165 10.7903  -2
   6   6   7 92.9165 10.7903   1
   7   5  11 12.4410 4.27561  -2
   7   6   7 12.4410 4.27561   1
   8   5  11 35.3170 6.00910  -2
   8   6   7 35.3170 6.00910   1
   9   5  11 4.11102 4.62287  -2
   9   6   7 4.11102 4.62287   1
  -7   7   7 11.5660 4.77449   1
  -6   7   7 1.87291 3.23012   1
  -5   7   7 -2.4001 2.80359   1
  -4   7   7 16.8089 3.53944   1
  -3   7   7 12.0194 2.53530   1
  -2   7   7 9.53755 2.34358   1
  -1   7   7 67.5216 5.61892   1
   0   7   7 13.5419 2.12171   1
   1   7   7 9.37348 2.21587   1
   2   7   7 52.7113 5.14698   1
   3   6  11 19.2353 8.73250  -2
   3   7   7 19.2353 8.73250   1
   4   6  11 66.4071 13.7581  -2
   4   7   7 66.4071 13.7581   1
   5   6  11 186.483 28.6114  -2
   5   7   7 186.483 28.6114   1
   6   7   7 22.1192 3.53682   1
   7   7   7 14.9963 3.76690   1
   8   6  12 45.1176 12.1003  -2
   8   7   7 45.1176 12.1003   1
  -6   8   7 25.1532 5.49836   1
  -5   8   7 3.07601 3.12883   1
  -4   8   7 0.27622 2.85975   1
  -3   8   7 16.8350 3.67602   1
  -2   8   7 6.10507 2.60345   1
  -1   8   7 54.1791 5.80022   1
   0   8   7 103.361 7.73486   1
   1   8   7 6.90284 2.43381   1
   2   8   7 61.9046 5.64606   1
   3   8   7 16.2195 2.81915   1
   4   7  12 26.0372 10.1584  -2
   4   8   7 26.0372 10.1584   1
   5   7  12 24.3985 9.80065  -2
   5   8   7 24.3985 9.80065   1
   6   7  12 91.0094 8.66747  -2
   6   8   7 91.0094 8.66747   1
   7   7  12 34.8404 6.71720  -2
   7   8   7 34.8404 6.71720   1
   8   7  12 27.6514 6.58777  -2
   8   8   7 27.6514 6.58777   1
  -5   9   7 5.10024 3.94511   1
  -4   9   7 -1.2311 3.02237   1
  -3   9   7 -5.2861 2.71082   1
  -2   9   7 10.9444 3.52149   1
  -1   9   7 11.9965 3.07116   1
   0   9   7 34.9899 4.50670   1
   1   9   7 94.7625 7.71180   1
   2   9   7 5.10509 2.78412   1
   3   9   7 4.27053 2.72711   1
   4   9   7 23.2785 3.87319   1
   5   9   7 21.9957 3.86036   1
   6   8  13 16.9100 6.90832  -2
   6   9   7 16.9100 6.90832   1
   7   9   7 16.3940 5.95774   1
  -3  10   7 13.8521 4.08628   1
  -2  10   7 6.56729 4.20530   1
  -1  10   7 26.2497 4.88740   1
   0  10   7 6.74815 3.02887   1
   1  10   7 2.93021 2.96454   1
   2  10   7 4.86446 2.89941   1
   3  10   7 0.51542 2.63346   1
   4  10   7 15.2144 3.77564   1
   5  10   7 52.8133 6.61888   1
   6  10   7 9.88611 8.72158   1
  -1  11   7 96.8334 11.0612   1
   0  11   7 34.6350 5.71625   1
   1  11   7 30.3802 4.76869   1
   2  11   7 16.0074 3.94898   1
   3  11   7 -2.8056 3.38906   1
  -2 -11   8 29.6992 5.43148   1
  -1 -11   8 20.1005 4.99768   1
   0 -11   8 4.59295 2.99684   1
   1 -11   8 1.55480 3.59495   1
  -5 -10   8 23.4228 6.05306   1
  -4 -10   8 -4.8201 2.87272   1
  -3 -10   8 -4.0172 2.77380   1
  -2 -10   8 -2.7353 2.84494   1
  -1 -10   8 8.27856 3.11994   1
   0 -10   8 17.0634 4.54603   1
   1 -10   8 26.9822 5.49105   1
   2 -10   8 30.7809 5.52000   1
   3 -10   8 11.9797 4.78312   1
  -6 -10   1 25.4832 12.9525  -2
  -6  -9   8 25.4832 12.9525   1
  -5 -10   1 32.5471 9.67033  -2
  -5  -9   8 32.5471 9.67033   1
  -4 -10   1 21.2038 8.94520  -2
  -4  -9   8 21.2038 8.94520   1
  -3 -10   1 29.2918 13.6298  -2
  -3  -9   8 29.2918 13.6298   1
  -2  -9   8 -4.6349 2.20594   1
  -1  -9   8 0.41270 2.65650   1
   0  -9   8 94.5415 8.07311   1
   1  -9   8 15.9985 3.54293   1
   2  -9   8 50.9879 4.92473   1
   3  -9   8 2.22195 2.45368   1
   4  -9   8 30.3313 4.73815   1
   5  -9   8 3.91695 2.76032   1
  -7  -9   2 20.2583 5.06982  -2
  -7  -8   8 20.2583 5.06982   1
  -6  -9   2 9.47155 4.33058  -2
  -6  -8   8 9.47155 4.33058   1
  -5  -9   2 9.63417 4.77790  -2
  -5  -8   8 9.63417 4.77790   1
  -4  -9   2 59.9025 8.13915  -2
  -4  -8   8 59.9025 8.13915   1
  -3  -9   2 19.5986 5.86816  -2
  -3  -8   8 19.5986 5.86816   1
  -2  -9   2 45.8991 7.74895  -2
  -2  -8   8 45.8991 7.74895   1
  -1  -8   8 17.7915 2.79665   1
   0  -8   8 -0.3635 1.98248   1
   1  -8   8 59.0047 4.92826   1
   2  -8   8 6.61701 2.32919   1
   3  -8   8 31.8104 3.75851   1
   4  -8   8 1.65892 2.50474   1
   5  -8   8 -0.4203 2.34127   1
   6  -8   8 4.43207 2.87358   1
  -8  -8   3 10.6396 7.28513  -2
  -8  -7   8 10.6396 7.28513   1
  -7  -8   3 21.8679 5.40125  -2
  -7  -7   8 21.8679 5.40125   1
  -6  -8   3 2.54212 3.50225  -2
  -6  -7   8 2.54212 3.50225   1
  -5  -8   3 17.2063 4.32763  -2
  -5  -7   8 17.2063 4.32763   1
  -4  -8   3 5.15263 3.22051  -2
  -4  -7   8 5.15263 3.22051   1
  -3  -8   3 0.47835 3.19270  -2
  -3  -7   8 0.47835 3.19270   1
  -2  -8   3 96.4486 12.4507  -2
  -2  -7   8 96.4486 12.4507   1
  -1  -7   8 20.6764 2.53139   1
   0  -7   8 22.9969 3.18034   1
   1  -7   8 78.9655 5.20841   1
   2  -7   8 9.16989 2.12480   1
   3  -7   8 13.4289 2.46630   1
   4  -7   8 19.1923 2.80589   1
   5  -7   8 39.5799 4.01259   1
   6  -7   8 19.9721 3.09913   1
   7  -7   8 37.4575 5.12655   1
  -8  -7   4 12.6847 8.26050  -2
  -8  -6   8 12.6847 8.26050   1
  -7  -7   4 33.4058 10.2119  -2
  -7  -6   8 33.4058 10.2119   1
  -6  -7   4 7.88342 6.87352  -2
  -6  -6   8 7.88342 6.87352   1
  -5  -7   4 47.4239 10.2245  -2
  -5  -6   8 47.4239 10.2245   1
  -4  -7   4 68.8255 8.47942  -2
  -4  -6   8 68.8255 8.47942   1
  -4  -7   3 84.7369 11.4075  -2
  -4  -6   8 84.7369 11.4075   1
  -3  -7   3 18.3201 6.61230  -2
  -3  -6   8 18.3201 6.61230   1
  -2  -7   3 175.093 18.3879  -2
  -2  -6   8 175.093 18.3879   1
  -1  -7   3 327.507 43.4376  -2
  -1  -6   8 327.507 43.4376   1
   0  -6   8 32.5875 2.94326   1
   1  -6   8 149.766 8.18673   1
   2  -6   8 5.28418 1.92750   1
   3  -6   8 2.91709 1.80833   1
   4  -6   8 50.3896 4.22223   1
   5  -6   8 20.8415 2.86676   1
   6  -6   8 18.1085 2.85460   1
   7  -6   8 4.59230 2.32958   1
   8  -6   8 17.5648 4.04707   1
  -9  -5   8 17.0589 5.07441   1
  -8  -5   8 8.46378 6.17228   1
  -7  -6   4 62.0240 12.3327  -2
  -7  -5   8 62.0240 12.3327   1
  -6  -6   4 88.9081 8.18275  -2
  -6  -5   8 88.9081 8.18275   1
  -5  -6   4 87.0522 6.51758  -2
  -5  -5   8 87.0522 6.51758   1
  -4  -6   4 42.9226 3.52467  -2
  -4  -5   8 42.9226 3.52467   1
  -3  -6   4 29.7428 2.69444  -2
  -3  -5   8 29.7428 2.69444   1
  -2  -6   4 20.0870 1.98318  -2
  -2  -5   8 20.0870 1.98318   1
  -1  -6   4 57.6107 4.10367  -2
  -1  -5   8 57.6107 4.10367   1
   0  -6   4 0.29381 2.08533  -2
   0  -5   8 0.29381 2.08533   1
   1  -6   4 149.985 20.0306  -2
   1  -5   8 149.985 20.0306   1
   2  -5   8 103.079 6.39715   1
   3  -5   8 3.88842 1.49967   1
   4  -5   8 60.5953 4.88407   1
   5  -5   8 18.6368 2.96104   1
   6  -5   8 6.81376 2.68433   1
   7  -5   8 72.9483 5.84228   1
   8  -5   8 -0.6279 2.52131   1
  -9  -4   8 3.27247 4.32322   1
  -8  -5   5 8.80201 8.18602  -2
  -8  -4   8 8.80201 8.18602   1
  -7  -5   5 17.9682 7.82901  -2
  -7  -4   8 17.9682 7.82901   1
  -6  -5   5 8.88194 3.44596  -2
  -6  -4   8 8.88194 3.44596   1
  -5  -5   5 7.01035 1.60361  -2
  -5  -4   8 7.01035 1.60361   1
  -4  -5   5 92.2578 6.28611  -2
  -4  -4   8 92.2578 6.28611   1
  -3  -5   5 72.4637 5.21859  -2
  -3  -4   8 72.4637 5.21859   1
  -2  -5   5 549.879 27.9451  -2
  -2  -4   8 549.879 27.9451   1
  -1  -5   5 61.1263 3.40757  -2
  -1  -4   8 61.1263 3.40757   1
   0  -5   5 627.159 45.0059  -2
   0  -4   8 627.159 45.0059   1
   1  -5   5 204.032 15.2491  -2
   1  -4   8 204.032 15.2491   1
   2  -5   5 98.3388 14.4514  -2
   2  -4   8 98.3388 14.4514   1
   3  -4   8 92.3578 5.43185   1
   4  -4   8 98.3881 5.69327   1
   5  -4   8 120.941 8.43160   1
   6  -4   8 4.13046 2.30960   1
   7  -4   8 13.7466 2.98997   1
   8  -4   8 52.0691 5.51380   1
   9  -4   8 19.3757 4.79948   1
  -9  -3   8 36.1376 5.43002   1
  -8  -3   8 47.9841 5.82955   1
  -7  -3   8 112.906 8.53118   1
  -6  -3   8 34.4780 3.79726   1
  -5  -4   6 19.5682 4.70589  -2
  -5  -3   8 19.5682 4.70589   1
  -4  -4   6 103.009 8.55302  -2
  -4  -3   8 103.009 8.55302   1
  -3  -4   6 106.976 10.7354  -2
  -3  -3   8 106.976 10.7354   1
  -2  -4   6 46.3677 5.55007  -2
  -2  -3   8 46.3677 5.55007   1
  -1  -3   8 544.041 23.8036   1
   0  -3   8 70.7955 3.42366   1
   1  -3   8 187.331 9.24082   1
   2  -3   8 64.1018 3.88137   1
   3  -3   8 14.4422 1.68940   1
   4  -3   8 54.5911 3.71917   1
   5  -3   8 238.317 12.9763   1
   6  -3   8 77.3790 6.28335   1
   7  -3   8 367.852 22.0345   1
   8  -3   8 15.3376 4.12432   1
   9  -3   8 27.1928 5.07279   1
  -9  -2   8 5.29617 3.53785   1
  -8  -2   8 20.2384 4.01348   1
  -7  -2   8 244.290 16.8451   1
  -6  -2   8 343.106 19.9350   1
  -5  -2   8 1.00310 1.21567   1
  -4  -3   6 116.076 10.3903  -2
  -4  -2   8 116.076 10.3903   1
  -3  -3   6 56.8230 6.01010  -2
  -3  -2   8 56.8230 6.01010   1
  -2  -3   6 96.6189 6.60709  -2
  -2  -2   8 96.6189 6.60709   1
  -1  -3   6 115.836 6.90466  -2
  -1  -2   8 115.836 6.90466   1
   0  -3   6 4.94522 1.01115  -2
   0  -2   8 4.94522 1.01115   1
   1  -3   6 40.7424 2.25717  -2
   1  -2   8 40.7424 2.25717   1
   2  -3   6 84.7222 5.88905  -2
   2  -2   8 84.7222 5.88905   1
   3  -3   6 2.46087 2.28063  -2
   3  -2   8 2.46087 2.28063   1
   4  -3   6 178.690 16.9854  -2
   4  -2   8 178.690 16.9854   1
   5  -3   6 91.3282 9.91220  -2
   5  -2   8 91.3282 9.91220   1
   6  -3   6 31.6840 6.19198  -2
   6  -2   8 31.6840 6.19198   1
   7  -3   6 34.5745 6.75761  -2
   7  -2   8 34.5745 6.75761   1
   8  -2   8 72.0993 6.59683   1
   9  -2   8 2.58693 3.48501   1
  10  -2   8 17.3646 4.93256   1
  -9  -1   8 9.37500 3.55438   1
  -8  -1   8 7.06658 3.23148   1
  -7  -1   8 44.5232 5.35920   1
  -6  -1   8 30.3963 3.58612   1
  -5  -2   7 47.3402 5.90977  -2
  -5  -1   8 47.3402 5.90977   1
  -4  -2   7 38.9835 3.18463  -2
  -4  -1   8 38.9835 3.18463   1
  -3  -2   7 246.851 18.1966  -2
  -3  -1   8 246.851 18.1966   1
  -2  -2   7 170.990 8.37703  -2
  -2  -1   8 170.990 8.37703   1
  -1  -2   7 58.0394 3.26110  -2
  -1  -1   8 58.0394 3.26110   1
   0  -2   7 12.3186 0.96153  -2
   0  -1   8 12.3186 0.96153   1
   1  -2   7 555.586 22.5384  -2
   1  -1   8 555.586 22.5384   1
   2  -2   7 135.705 6.16064  -2
   2  -1   8 135.705 6.16064   1
   3  -2   7 506.378 27.8378  -2
   3  -1   8 506.378 27.8378   1
   4  -2   7 1019.59 55.3431  -2
   4  -1   8 1019.59 55.3431   1
   5  -2   7 174.555 9.65130  -2
   5  -1   8 174.555 9.65130   1
   6  -2   7 57.7723 7.98642  -2
   6  -1   8 57.7723 7.98642   1
   7  -2   7 22.7949 6.39357  -2
   7  -1   8 22.7949 6.39357   1
   8  -2   7 30.2966 7.40456  -2
   8  -1   8 30.2966 7.40456   1
   9  -1   8 7.46030 3.21381   1
  10  -1   8 28.3944 4.78486   1
  -9   0   8 3.78512 3.35919   1
  -8   0   8 7.72601 3.27055   1
  -7   0   8 1.94793 2.73181   1
  -6   0   8 92.4295 6.78353   1
  -5   0   8 90.7491 5.80545   1
  -4   0   8 135.011 5.89288   1
  -3   0   8 201.784 8.25906   1
  -2   0   8 82.8154 3.66049   1
  -1   0   8 300.125 11.3423   1
   0   0   8 422.410 15.6352   1
   1   0   8 15.9979 1.12442   1
   2  -1   8 36.9686 5.92721  -2
   2   0   8 36.9686 5.92721   1
   3  -1   8 191.220 16.6643  -2
   3   0   8 191.220 16.6643   1
   4  -1   8 582.562 70.3449  -2
   4   0   8 582.562 70.3449   1
   5  -1   8 943.828 113.160  -2
   5   0   8 943.828 113.160   1
   6  -1   8 27.4428 5.26652  -2
   6   0   8 27.4428 5.26652   1
   6  -1   7 53.3172 10.3448  -2
   6   0   8 53.3172 10.3448   1
   7  -1   8 23.8518 5.65955  -2
   7   0   8 23.8518 5.65955   1
   7  -1   7 67.1457 9.11971  -2
   7   0   8 67.1457 9.11971   1
   8  -1   7 287.452 40.1030  -2
   8   0   8 287.452 40.1030   1
   8  -1   8 357.888 46.8348  -2
   8   0   8 357.888 46.8348   1
   9  -1   7 143.349 23.8733  -2
   9   0   8 143.349 23.8733   1
   9  -1   8 146.327 23.1563  -2
   9   0   8 146.327 23.1563   1
  10   0   8 8.64092 5.36543   1
  -9   1   8 34.2244 5.69931   1
  -8   1   8 13.8607 4.14157   1
  -7   1   8 9.23677 3.09087   1
  -6   1   8 26.9481 4.09301   1
  -5   1   8 1.26943 1.10722   1
  -4   1   8 42.2345 2.79451   1
  -3   1   8 153.331 7.75809   1
  -2   1   8 37.6801 1.80455   1
  -1   1   8 165.506 5.65130   1
   0   1   8 9.86623 0.73064   1
   1   0   8 43.9633 4.00696  -2
   1   1   8 43.9633 4.00696   1
   2   0   8 129.271 7.78232  -2
   2   1   8 129.271 7.78232   1
   3   0   8 298.852 16.5807  -2
   3   1   8 298.852 16.5807   1
   4   0   8 171.016 11.2714  -2
   4   1   8 171.016 11.2714   1
   5   0   8 385.232 27.9821  -2
   5   1   8 385.232 27.9821   1
   6   0   8 140.476 11.2775  -2
   6   1   8 140.476 11.2775   1
   7   0   8 26.2825 4.28006  -2
   7   1   8 26.2825 4.28006   1
   8   0   8 105.963 11.6430  -2
   8   1   8 105.963 11.6430   1
   9   0   8 136.539 15.5324  -2
   9   1   8 136.539 15.5324   1
  10   0   8 14.2754 11.9914  -2
  10   1   8 14.2754 11.9914   1
  -9   2   8 7.24451 4.00796   1
  -8   2   8 -4.3940 2.75651   1
  -7   2   8 4.50004 2.86688   1
  -6   2   8 11.3044 2.51070   1
  -5   2   8 289.389 14.9886   1
  -4   2   8 378.611 18.0687   1
  -3   2   8 62.7774 2.94739   1
  -2   2   8 48.9347 3.53391   1
  -1   2   8 58.8131 3.82544   1
   0   1   9 93.0846 8.74093  -2
   0   2   8 93.0846 8.74093   1
   1   1   9 944.106 47.1491  -2
   1   2   8 944.106 47.1491   1
   2   1   9 302.846 15.3091  -2
   2   2   8 302.846 15.3091   1
   3   1   9 824.204 40.6687  -2
   3   2   8 824.204 40.6687   1
   4   1   9 147.713 8.95646  -2
   4   2   8 147.713 8.95646   1
   5   1   9 198.398 10.7359  -2
   5   2   8 198.398 10.7359   1
   6   1   9 26.7729 3.22340  -2
   6   2   8 26.7729 3.22340   1
   7   1   9 38.9222 3.73429  -2
   7   2   8 38.9222 3.73429   1
   8   1   9 326.067 17.7618  -2
   8   2   8 326.067 17.7618   1
   9   1   9 66.7518 7.20195  -2
   9   2   8 66.7518 7.20195   1
  10   1   9 84.7677 12.2897  -2
  10   2   8 84.7677 12.2897   1
  -9   3   8 6.36685 3.90920   1
  -8   3   8 6.37668 3.38770   1
  -7   3   8 9.42629 3.30509   1
  -6   3   8 52.5130 5.25721   1
  -5   3   8 255.937 14.8424   1
  -4   3   8 207.385 10.9606   1
  -3   3   8 2.08329 1.07887   1
  -2   3   8 80.0292 5.31613   1
  -1   3   8 6.59722 1.51435   1
   0   3   8 8.59813 0.77696   1
   1   3   8 289.246 10.9908   1
   2   3   8 100.296 4.69227   1
   3   2  10 150.677 13.9791  -2
   3   3   8 150.677 13.9791   1
   4   2  10 71.6115 7.50492  -2
   4   3   8 71.6115 7.50492   1
   5   2  10 115.122 9.19809  -2
   5   3   8 115.122 9.19809   1
   6   2  10 -2.9015 3.08789  -2
   6   3   8 -2.9015 3.08789   1
   7   2  10 3.52170 3.62087  -2
   7   3   8 3.52170 3.62087   1
   8   2  10 82.4289 7.42906  -2
   8   3   8 82.4289 7.42906   1
   9   2  10 95.6508 10.4831  -2
   9   3   8 95.6508 10.4831   1
  10   2   9 27.1507 10.7923  -2
  10   3   8 27.1507 10.7923   1
  10   2  10 14.9591 7.96459  -2
  10   3   8 14.9591 7.96459   1
  -8   4   8 -2.9052 3.10506   1
  -7   4   8 14.4138 3.88288   1
  -6   4   8 8.14089 2.83894   1
  -5   4   8 30.1671 3.82354   1
  -4   4   8 203.076 11.8160   1
  -3   4   8 3.39028 1.01246   1
  -2   4   8 11.8530 1.28341   1
  -1   4   8 112.271 5.06508   1
   0   4   8 203.132 9.25156   1
   1   4   8 37.6981 2.12580   1
   2   4   8 43.4676 2.60182   1
   3   3  10 56.0986 11.0691  -2
   3   4   8 56.0986 11.0691   1
   4   3  10 232.838 32.5402  -2
   4   4   8 232.838 32.5402   1
   5   3  10 190.207 27.7324  -2
   5   4   8 190.207 27.7324   1
   6   3  10 50.5284 6.43181  -2
   6   4   8 50.5284 6.43181   1
   7   3  10 53.9535 6.84987  -2
   7   4   8 53.9535 6.84987   1
   8   3  10 31.8392 6.57270  -2
   8   4   8 31.8392 6.57270   1
   9   3  10 17.2722 9.93398  -2
   9   4   8 17.2722 9.93398   1
  10   3  10 49.3574 12.0141  -2
  10   4   8 49.3574 12.0141   1
  -8   5   8 9.08527 5.04545   1
  -7   5   8 67.2218 9.76994   1
  -6   5   8 2.82037 2.48694   1
  -5   5   8 15.0722 2.74749   1
  -4   5   8 3.91515 1.91552   1
  -3   5   8 7.78312 1.50739   1
  -2   5   8 20.5724 1.73149   1
  -1   5   8 2.31907 0.95581   1
   0   5   8 18.6207 1.57301   1
   1   4  11 139.228 18.9167  -2
   1   5   8 139.228 18.9167   1
   2   5   8 26.5566 2.08335   1
   3   5   8 177.010 7.93848   1
   4   4  11 257.802 34.1051  -2
   4   5   8 257.802 34.1051   1
   5   4  11 126.263 10.5295  -2
   5   5   8 126.263 10.5295   1
   6   4  11 29.4172 4.32189  -2
   6   5   8 29.4172 4.32189   1
   7   4  11 31.9007 3.60429  -2
   7   5   8 31.9007 3.60429   1
   8   4  11 137.044 8.55996  -2
   8   5   8 137.044 8.55996   1
   9   4  11 42.1299 6.19277  -2
   9   5   8 42.1299 6.19277   1
  -7   6   8 25.4852 5.41349   1
  -6   6   8 43.2013 5.67611   1
  -5   6   8 30.5921 4.49240   1
  -4   6   8 11.9985 2.97585   1
  -3   6   8 -1.1617 1.49903   1
  -2   6   8 10.1867 1.91322   1
  -1   6   8 -0.4772 1.01259   1
   0   6   8 30.2788 2.23356   1
   1   6   8 67.0985 3.69597   1
   2   6   8 73.5163 4.20334   1
   3   6   8 17.3348 2.32126   1
   4   6   8 22.9078 2.64839   1
   5   5  11 23.8818 9.63996  -2
   5   6   8 23.8818 9.63996   1
   6   5  12 126.698 13.5118  -2
   6   6   8 126.698 13.5118   1
   7   5  12 19.3653 6.21612  -2
   7   6   8 19.3653 6.21612   1
   8   5  12 107.181 10.1192  -2
   8   6   8 107.181 10.1192   1
   9   5  12 13.8987 6.28618  -2
   9   6   8 13.8987 6.28618   1
  -6   7   8 11.0419 3.60516   1
  -5   7   8 12.7665 3.53242   1
  -4   7   8 26.8968 4.37062   1
  -3   7   8 3.86841 2.17824   1
  -2   7   8 0.20476 1.92579   1
  -1   7   8 1.76418 2.02426   1
   0   7   8 4.68919 2.18103   1
   1   7   8 2.02340 1.82679   1
   2   7   8 407.504 19.3524   1
   3   7   8 -1.0853 1.65429   1
   4   7   8 84.0557 5.57044   1
   5   7   8 46.6434 3.73708   1
   6   7   8 4.91369 1.98083   1
   7   6  12 9.15671 10.9578  -2
   7   7   8 9.15671 10.9578   1
   8   7   8 14.5424 3.95929   1
  -5   8   8 6.42445 3.46412   1
  -4   8   8 20.5264 4.06670   1
  -3   8   8 64.0450 6.77550   1
  -2   8   8 2.31918 2.46097   1
  -1   8   8 157.371 10.7038   1
   0   8   8 8.26915 2.54980   1
   1   8   8 0.91119 2.23008   1
   2   8   8 19.6631 3.34625   1
   3   8   8 12.3923 2.97836   1
   4   8   8 -2.9319 2.36453   1
   5   8   8 45.1548 4.21721   1
   6   8   8 37.2383 3.90936   1
   7   8   8 10.3034 3.70998   1
   8   8   8 10.3626 3.65415   1
  -4   9   8 1.86453 3.18687   1
  -3   9   8 0.61040 3.02598   1
  -2   9   8 38.2746 6.07501   1
  -1   9   8 48.5449 5.34596   1
   0   9   8 19.5790 3.68012   1
   1   9   8 10.6708 3.06750   1
   2   9   8 14.1064 3.38836   1
   3   9   8 4.29107 2.78412   1
   4   9   8 5.95897 2.99257   1
   5   9   8 2.50369 2.92886   1
   6   9   8 14.0568 4.13030   1
   7   9   8 4.64349 4.19663   1
  -3  10   8 0.67975 3.36331   1
  -2  10   8 -0.7129 3.06971   1
  -1  10   8 4.91354 3.47914   1
   0  10   8 17.1463 3.80956   1
   1  10   8 7.56179 3.07287   1
   2  10   8 -3.6247 2.51578   1
   3  10   8 3.60733 2.93615   1
   4  10   8 38.2232 5.16416   1
   5  10   8 19.7879 4.65384   1
   0  11   8 4.51405 3.86698   1
   1  11   8 15.8167 4.02253   1
   2  11   8 -5.3041 2.84556   1
   3  11   8 2.92531 3.74466   1
  -1 -11   9 2.63006 3.88819   1
   0 -11   9 -7.6224 11.0029   1
  -4 -11   2 23.4604 9.04368  -2
  -4 -10   9 23.4604 9.04368   1
  -3 -11   2 3.63854 11.4767  -2
  -3 -10   9 3.63854 11.4767   1
  -2 -10   9 7.41336 3.53847   1
  -1 -10   9 5.72674 3.56759   1
   0 -10   9 -0.7881 3.35081   1
   1 -10   9 10.1395 4.27502   1
   2 -10   9 -0.9906 3.82289   1
   3 -10   9 -1.0073 3.59596   1
  -6 -10   2 42.9547 11.1609  -2
  -6  -9   9 42.9547 11.1609   1
  -5 -10   2 55.8904 11.5457  -2
  -5  -9   9 55.8904 11.5457   1
  -4 -10   2 0.44128 6.07258  -2
  -4  -9   9 0.44128 6.07258   1
  -4 -10   3 -5.4445 7.50706  -2
  -4  -9   9 -5.4445 7.50706   1
  -3 -10   2 32.4717 7.18035  -2
  -3  -9   9 32.4717 7.18035   1
  -2 -10   2 29.2610 9.14311  -2
  -2  -9   9 29.2610 9.14311   1
  -1 -10   2 9.37241 8.21860  -2
  -1  -9   9 9.37241 8.21860   1
   0  -9   9 8.91884 3.15291   1
   1  -9   9 202.858 13.8093   1
   2  -9   9 5.31620 2.57834   1
   3  -9   9 12.9738 3.12826   1
   4  -9   9 39.8484 4.58559   1
   5  -9   9 5.46558 2.90127   1
  -7  -9   3 15.2415 5.74027  -2
  -7  -8   9 15.2415 5.74027   1
  -6  -9   3 35.8717 6.94500  -2
  -6  -8   9 35.8717 6.94500   1
  -5  -9   3 105.129 9.44544  -2
  -5  -8   9 105.129 9.44544   1
  -4  -9   3 57.3887 5.21134  -2
  -4  -8   9 57.3887 5.21134   1
  -3  -9   3 13.0295 3.11467  -2
  -3  -8   9 13.0295 3.11467   1
  -2  -9   3 100.121 6.33028  -2
  -2  -8   9 100.121 6.33028   1
  -1  -9   3 46.4300 7.23486  -2
  -1  -8   9 46.4300 7.23486   1
   0  -9   3 39.2105 8.44532  -2
   0  -8   9 39.2105 8.44532   1
   1  -8   9 64.0009 5.29640   1
   2  -8   9 7.93588 2.44477   1
   3  -8   9 12.3890 2.89993   1
   4  -8   9 5.26860 2.63851   1
   5  -8   9 5.26079 2.45634   1
   6  -8   9 -0.3888 2.60147   1
  -7  -8   4 -1.1943 7.05927  -2
  -7  -7   9 -1.1943 7.05927   1
  -6  -8   4 0.32958 5.06874  -2
  -6  -7   9 0.32958 5.06874   1
  -5  -8   4 26.5778 6.01882  -2
  -5  -7   9 26.5778 6.01882   1
  -4  -8   4 27.4439 4.19738  -2
  -4  -7   9 27.4439 4.19738   1
  -3  -8   4 5.34031 3.04732  -2
  -3  -7   9 5.34031 3.04732   1
  -2  -8   4 59.2752 4.66001  -2
  -2  -7   9 59.2752 4.66001   1
  -1  -8   4 111.772 7.26588  -2
  -1  -7   9 111.772 7.26588   1
   0  -8   4 9.67542 4.37178  -2
   0  -7   9 9.67542 4.37178   1
   1  -7   9 2.83643 1.54381   1
   2  -7   9 14.7807 2.35410   1
   3  -7   9 1.66718 1.92996   1
   4  -7   9 61.7036 4.96387   1
   5  -7   9 8.92501 2.51579   1
   6  -7   9 52.2155 4.85810   1
   7  -7   9 16.3774 3.17095   1
  -8  -6   9 9.77799 4.88912   1
  -7  -6   9 3.47792 3.22957   1
  -6  -7   5 37.0612 10.2558  -2
  -6  -6   9 37.0612 10.2558   1
  -5  -7   5 5.70725 6.51686  -2
  -5  -6   9 5.70725 6.51686   1
  -4  -7   5 2.45831 3.41606  -2
  -4  -6   9 2.45831 3.41606   1
  -3  -7   5 -0.0923 3.69576  -2
  -3  -6   9 -0.0923 3.69576   1
  -2  -7   4 233.831 18.7470  -2
  -2  -6   9 233.831 18.7470   1
  -2  -7   5 269.795 25.7118  -2
  -2  -6   9 269.795 25.7118   1
  -1  -7   4 189.060 16.0820  -2
  -1  -6   9 189.060 16.0820   1
  -1  -7   5 195.277 28.3984  -2
  -1  -6   9 195.277 28.3984   1
   0  -7   4 225.695 17.3415  -2
   0  -6   9 225.695 17.3415   1
   1  -7   4 103.018 9.17168  -2
   1  -6   9 103.018 9.17168   1
   2  -7   4 100.830 15.9374  -2
   2  -6   9 100.830 15.9374   1
   3  -6   9 18.5645 2.58441   1
   4  -6   9 22.0228 3.18626   1
   5  -6   9 91.8734 6.31387   1
   6  -6   9 0.60050 2.01729   1
   7  -6   9 34.7381 3.93424   1
   8  -6   9 10.0636 3.50189   1
  -8  -5   9 -0.8201 3.96129   1
  -7  -5   9 120.624 10.4150   1
  -6  -5   9 4.25294 2.81706   1
  -5  -6   5 42.3166 6.59714  -2
  -5  -5   9 42.3166 6.59714   1
  -4  -6   5 36.5779 4.50216  -2
  -4  -5   9 36.5779 4.50216   1
  -3  -6   5 9.35654 2.01302  -2
  -3  -5   9 9.35654 2.01302   1
  -2  -6   5 53.1035 3.30531  -2
  -2  -5   9 53.1035 3.30531   1
  -1  -6   5 332.800 17.4018  -2
  -1  -5   9 332.800 17.4018   1
   0  -6   5 46.8603 3.79452  -2
   0  -5   9 46.8603 3.79452   1
   1  -6   5 22.4980 2.39108  -2
   1  -5   9 22.4980 2.39108   1
   2  -6   5 35.3580 3.50267  -2
   2  -5   9 35.3580 3.50267   1
   3  -6   5 99.3000 7.76198  -2
   3  -5   9 99.3000 7.76198   1
   4  -6   5 79.3141 9.82906  -2
   4  -5   9 79.3141 9.82906   1
   5  -5   9 85.5203 6.26369   1
   6  -5   9 0.34254 2.12817   1
   7  -5   9 146.584 10.4582   1
   8  -5   9 6.22253 3.07155   1
  -9  -4   9 7.93224 4.49504   1
  -8  -4   9 0.27997 3.88327   1
  -7  -4   9 88.1992 7.35084   1
  -6  -4   9 2.24149 2.08985   1
  -5  -5   6 129.682 12.2918  -2
  -5  -4   9 129.682 12.2918   1
  -4  -5   6 27.4234 4.52648  -2
  -4  -4   9 27.4234 4.52648   1
  -3  -5   6 303.156 22.4040  -2
  -3  -4   9 303.156 22.4040   1
  -2  -5   6 86.6163 7.39272  -2
  -2  -4   9 86.6163 7.39272   1
  -1  -5   6 73.1227 4.89852  -2
  -1  -4   9 73.1227 4.89852   1
   0  -5   6 296.491 16.3700  -2
   0  -4   9 296.491 16.3700   1
   1  -5   6 65.8605 4.26618  -2
   1  -4   9 65.8605 4.26618   1
   2  -5   6 62.1859 4.16657  -2
   2  -4   9 62.1859 4.16657   1
   3  -5   6 13.5786 2.93605  -2
   3  -4   9 13.5786 2.93605   1
   4  -5   6 232.093 18.1564  -2
   4  -4   9 232.093 18.1564   1
   5  -4   9 16.5632 2.66835   1
   6  -4   9 3.28930 2.26407   1
   7  -4   9 0.36034 2.28212   1
   8  -4   9 13.3755 3.95173   1
   9  -4   9 8.25097 4.00465   1
  -9  -3   9 8.20847 4.56352   1
  -8  -3   9 48.9761 6.03219   1
  -7  -3   9 12.3487 3.44545   1
  -6  -3   9 11.4282 2.53970   1
  -5  -3   9 22.0455 2.43141   1
  -4  -3   9 56.2687 4.11012   1
  -3  -3   9 52.7416 3.46249   1
  -2  -3   9 302.330 13.6890   1
  -1  -3   9 147.791 6.60259   1
   0  -4   7 192.872 25.0856  -2
   0  -3   9 192.872 25.0856   1
   1  -4   7 61.1042 9.62848  -2
   1  -3   9 61.1042 9.62848   1
   1  -4   6 40.3798 6.99082  -2
   1  -3   9 40.3798 6.99082   1
   2  -4   6 232.367 14.9097  -2
   2  -3   9 232.367 14.9097   1
   3  -4   6 115.860 8.23565  -2
   3  -3   9 115.860 8.23565   1
   4  -4   6 284.215 21.4796  -2
   4  -3   9 284.215 21.4796   1
   5  -4   6 30.7274 5.51910  -2
   5  -3   9 30.7274 5.51910   1
   6  -4   6 136.889 14.2209  -2
   6  -3   9 136.889 14.2209   1
   7  -4   6 28.8703 6.00614  -2
   7  -3   9 28.8703 6.00614   1
   8  -4   6 12.0329 8.09298  -2
   8  -3   9 12.0329 8.09298   1
   9  -4   6 42.1132 12.5848  -2
   9  -3   9 42.1132 12.5848   1
  -9  -2   9 3.42706 3.28830   1
  -8  -2   9 59.2188 6.70319   1
  -7  -2   9 29.5502 4.51510   1
  -6  -2   9 35.6668 3.90166   1
  -5  -2   9 1.17377 1.19087   1
  -4  -2   9 94.2870 4.55978   1
  -3  -2   9 5.33205 1.17947   1
  -2  -2   9 -1.0320 0.91835   1
  -1  -2   9 16.3110 1.50069   1
   0  -3   7 361.676 22.2183  -2
   0  -2   9 361.676 22.2183   1
   1  -3   7 13.0071 1.19487  -2
   1  -2   9 13.0071 1.19487   1
   2  -3   7 74.5473 4.34146  -2
   2  -2   9 74.5473 4.34146   1
   3  -3   7 381.105 26.6858  -2
   3  -2   9 381.105 26.6858   1
   4  -3   7 30.4075 3.11297  -2
   4  -2   9 30.4075 3.11297   1
   5  -3   7 44.9443 4.58859  -2
   5  -2   9 44.9443 4.58859   1
   6  -3   7 372.621 23.9650  -2
   6  -2   9 372.621 23.9650   1
   7  -3   7 131.324 11.4411  -2
   7  -2   9 131.324 11.4411   1
   8  -3   7 123.077 20.1887  -2
   8  -2   9 123.077 20.1887   1
   9  -3   7 1.58330 6.03984  -2
   9  -2   9 1.58330 6.03984   1
  -9  -1   9 -0.1851 3.19106   1
  -8  -1   9 165.520 12.7161   1
  -7  -1   9 90.4091 7.92427   1
  -6  -1   9 34.5083 3.81061   1
  -5  -1   9 154.298 8.14140   1
  -4  -1   9 3.12134 0.77962   1
  -3  -1   9 23.9614 1.52305   1
  -2  -1   9 0.68960 0.59859   1
  -1  -1   9 17.7752 1.18838   1
   0  -1   9 58.2860 2.85902   1
   1  -2   8 183.521 13.3883  -2
   1  -1   9 183.521 13.3883   1
   2  -2   8 52.9078 3.66589  -2
   2  -1   9 52.9078 3.66589   1
   3  -2   8 264.350 13.7126  -2
   3  -1   9 264.350 13.7126   1
   4  -2   8 64.3121 4.22252  -2
   4  -1   9 64.3121 4.22252   1
   5  -2   8 10.6921 2.13399  -2
   5  -1   9 10.6921 2.13399   1
   6  -2   8 192.670 10.8158  -2
   6  -1   9 192.670 10.8158   1
   7  -2   8 27.6131 3.72255  -2
   7  -1   9 27.6131 3.72255   1
   8  -2   8 27.0810 4.70864  -2
   8  -1   9 27.0810 4.70864   1
   9  -2   8 142.802 16.5911  -2
   9  -1   9 142.802 16.5911   1
  10  -2   8 10.3994 7.33207  -2
  10  -1   9 10.3994 7.33207   1
  -9   0   9 21.4117 4.95403   1
  -8   0   9 40.3846 5.48560   1
  -7   0   9 25.5198 4.11043   1
  -6   0   9 16.6757 3.31638   1
  -5   0   9 161.309 9.06308   1
  -4   0   9 110.110 5.40057   1
  -3   0   9 150.835 6.62625   1
  -2   0   9 5.35079 0.68204   1
  -1   0   9 5.97094 0.70797   1
   0   0   9 283.547 9.89148   1
   1   0   9 58.1066 2.97163   1
   2   0   9 174.865 8.11875   1
   3   0   9 15.9699 1.65375   1
   4  -1   9 364.186 45.9362  -2
   4   0   9 364.186 45.9362   1
   5  -1   9 16.0399 5.74397  -2
   5   0   9 16.0399 5.74397   1
   6   0   9 17.4914 2.55835   1
   7  -1   8 24.1729 8.13747  -2
   7   0   9 24.1729 8.13747   1
   8  -1   8 566.529 51.1717  -2
   8   0   9 566.529 51.1717   1
   9  -1   8 34.5632 12.1329  -2
   9   0   9 34.5632 12.1329   1
  10  -1   8 248.256 37.4041  -2
  10   0   9 248.256 37.4041   1
  -9   1   9 0.78281 3.48540   1
  -8   1   9 11.5828 3.69087   1
  -7   1   9 3.17765 2.61956   1
  -6   1   9 -1.3953 2.23531   1
  -5   1   9 3.39723 1.83316   1
  -4   1   9 706.327 33.5221   1
  -3   1   9 5.82074 0.98013   1
  -2   1   9 168.152 6.81485   1
  -1   1   9 10.0131 0.73374   1
   0   1   9 245.358 8.88291   1
   1   1   9 266.771 9.63461   1
   2   1   9 366.786 14.2640   1
   3   0   9 50.8310 8.80748  -2
   3   1   9 50.8310 8.80748   1
   4   0   9 223.824 16.8313  -2
   4   1   9 223.824 16.8313   1
   5   0   9 533.669 29.9847  -2
   5   1   9 533.669 29.9847   1
   6   0   9 75.4706 5.69955  -2
   6   1   9 75.4706 5.69955   1
   7   0   9 179.273 12.4115  -2
   7   1   9 179.273 12.4115   1
   8   0   9 143.688 11.9803  -2
   8   1   9 143.688 11.9803   1
   9   0   9 -10.061 4.52465  -2
   9   1   9 -10.061 4.52465   1
  10   0   9 63.3143 15.6659  -2
  10   1   9 63.3143 15.6659   1
  -9   2   9 19.3733 4.92771   1
  -8   2   9 0.14067 3.11169   1
  -7   2   9 -2.4044 2.62933   1
  -6   2   9 48.5006 5.31182   1
  -5   2   9 152.184 9.01585   1
  -4   2   9 211.277 10.3825   1
  -3   2   9 57.3084 3.35039   1
  -2   2   9 123.118 7.08373   1
  -1   2   9 8.83674 1.50260   1
   0   2   9 59.8264 2.47129   1
   1   2   9 386.701 14.5576   1
   2   2   9 46.8491 2.42829   1
   3   1  10 86.4849 12.9018  -2
   3   2   9 86.4849 12.9018   1
   4   1  10 6.55009 2.39558  -2
   4   2   9 6.55009 2.39558   1
   5   1  10 116.812 8.32897  -2
   5   2   9 116.812 8.32897   1
   6   1  10 44.1371 4.15854  -2
   6   2   9 44.1371 4.15854   1
   7   1  10 72.9575 5.72394  -2
   7   2   9 72.9575 5.72394   1
   8   1  10 63.0392 5.45770  -2
   8   2   9 63.0392 5.45770   1
   9   1  10 85.9535 7.95503  -2
   9   2   9 85.9535 7.95503   1
  10   1  10 65.3468 7.42213  -2
  10   2   9 65.3468 7.42213   1
  -8   3   9 1.26815 3.04443   1
  -7   3   9 2.17753 2.98243   1
  -6   3   9 0.41691 2.29051   1
  -5   3   9 58.5989 4.50686   1
  -4   3   9 313.447 14.7759   1
  -3   3   9 6.50767 1.35742   1
  -2   3   9 57.4834 4.16193   1
  -1   3   9 0.30370 1.11018   1
   0   3   9 173.368 7.46704   1
   1   3   9 0.88307 0.76932   1
   2   3   9 0.95632 0.87866   1
   3   3   9 -0.8701 0.97453   1
   4   3   9 2.96814 1.18606   1
   5   3   9 20.0190 2.24815   1
   6   2  10 39.3837 10.7593  -2
   6   3   9 39.3837 10.7593   1
   7   2  11 47.4151 7.22641  -2
   7   3   9 47.4151 7.22641   1
   8   2  11 114.766 12.4684  -2
   8   3   9 114.766 12.4684   1
   9   2  11 63.0971 9.85745  -2
   9   3   9 63.0971 9.85745   1
  10   2  11 47.9056 14.9230  -2
  10   2  10 47.9056 14.9230  -2
  10   3   9 47.9056 14.9230   1
  10   2  11 18.7287 10.7793  -2
  10   3   9 18.7287 10.7793   1
  -8   4   9 10.3158 4.00633   1
  -7   4   9 39.1213 5.75941   1
  -6   4   9 76.7529 6.98421   1
  -5   4   9 58.4090 5.40347   1
  -4   4   9 136.421 8.41467   1
  -3   4   9 7.52088 1.25809   1
  -2   4   9 32.7476 3.17987   1
  -1   4   9 3.46174 0.89090   1
   0   4   9 94.3847 4.66128   1
   1   4   9 73.9556 3.57580   1
   2   4   9 24.7832 1.88470   1
   3   4   9 7.92795 1.53404   1
   4   4   9 0.86004 1.47397   1
   5   3  11 78.3016 14.7755  -2
   5   4   9 78.3016 14.7755   1
   6   3  11 26.3349 9.62322  -2
   6   4   9 26.3349 9.62322   1
   7   3  11 33.7435 7.53478  -2
   7   4   9 33.7435 7.53478   1
   8   3  11 72.4944 8.11211  -2
   8   4   9 72.4944 8.11211   1
   9   3  11 73.0774 11.0434  -2
   9   4   9 73.0774 11.0434   1
  10   4   9 7.63471 8.84342   1
  -7   5   9 8.19605 3.75054   1
  -6   5   9 2.09981 2.33889   1
  -5   5   9 5.73972 2.29219   1
  -4   5   9 13.8298 2.31011   1
  -3   5   9 2.33143 1.25295   1
  -2   5   9 86.9674 4.91747   1
  -1   5   9 46.0483 2.65430   1
   0   5   9 34.9309 2.16388   1
   1   5   9 56.1464 3.21019   1
   2   5   9 21.8153 1.97470   1
   3   5   9 13.7453 2.02824   1
   4   5   9 94.4664 5.41891   1
   5   5   9 69.8803 4.81051   1
   6   5   9 34.2250 3.65027   1
   7   4  12 0.41574 4.61750  -2
   7   5   9 0.41574 4.61750   1
   8   4  12 13.5375 5.02187  -2
   8   5   9 13.5375 5.02187   1
   9   4  12 7.81637 4.51566  -2
   9   5   9 7.81637 4.51566   1
  -7   4  13 49.3916 15.1929  -2
  -7   6   9 49.3916 15.1929   1
  -6   6   9 0.59722 3.09494   1
  -5   6   9 3.36940 2.77878   1
  -4   6   9 18.4075 3.44630   1
  -3   6   9 2.44509 1.61015   1
  -2   6   9 63.3636 4.51236   1
  -1   6   9 163.947 9.24196   1
   0   6   9 0.62880 1.14172   1
   1   6   9 2.37224 1.26006   1
   2   6   9 94.6150 5.07233   1
   3   6   9 176.084 9.23002   1
   4   6   9 28.8280 2.93796   1
   5   6   9 31.5513 3.07891   1
   6   6   9 39.6531 3.72999   1
   7   6   9 62.3237 5.42630   1
   8   6   9 35.3831 4.59852   1
   9   5  12 59.6868 17.7128  -2
   9   6   9 59.6868 17.7128   1
  -6   7   9 -0.5163 4.27798   1
  -5   7   9 29.6655 4.68644   1
  -4   7   9 4.85284 2.86752   1
  -3   7   9 5.56420 2.34741   1
  -2   7   9 28.3664 3.53362   1
  -1   7   9 0.71182 2.02431   1
   0   7   9 18.2270 2.88633   1
   1   7   9 99.9775 7.49518   1
   2   7   9 235.878 13.1159   1
   3   7   9 1.66645 1.80081   1
   4   7   9 61.8080 4.68614   1
   5   7   9 30.7277 3.14723   1
   6   7   9 22.8457 3.09277   1
   7   7   9 7.49608 2.96621   1
   8   7   9 47.6278 5.81953   1
  -5   8   9 5.40418 4.65572   1
  -4   8   9 71.1465 7.09563   1
  -3   8   9 4.36826 2.93203   1
  -2   8   9 35.1631 4.33486   1
  -1   8   9 45.4064 4.76116   1
   0   8   9 0.69932 2.40464   1
   1   8   9 17.8242 3.25308   1
   2   8   9 -0.7388 2.20298   1
   3   8   9 -2.3283 2.30815   1
   4   8   9 1.71426 2.58950   1
   5   8   9 1.54953 2.72606   1
   6   8   9 7.26668 2.85153   1
   7   8   9 11.0134 4.03300   1
   8   8   9 3.09679 5.28637   1
  -4   9   9 4.94422 6.01583   1
  -3   9   9 6.36396 3.77877   1
  -2   9   9 26.0157 4.44270   1
  -1   9   9 38.6815 4.73147   1
   0   9   9 26.1366 3.98535   1
   1   9   9 60.9313 5.86310   1
   2   9   9 1.33972 2.78348   1
   3   9   9 8.72088 3.23136   1
   4   9   9 2.94546 2.91864   1
   5   9   9 -1.1082 2.90297   1
   6   9   9 6.93203 3.78609   1
   7   9   9 13.9488 8.42876   1
  -2   8  16 17.9096 12.5542  -2
  -2  10   9 17.9096 12.5542   1
  -1   8  16 74.2483 18.5614  -2
  -1  10   9 74.2483 18.5614   1
   0  10   9 -0.4837 2.93445   1
   1  10   9 53.3989 5.82339   1
   2  10   9 -1.0522 2.81947   1
   3  10   9 10.3076 3.55971   1
   4  10   9 5.76275 3.37278   1
   5  10   9 19.9462 4.70254   1
   1  11   9 9.00094 4.24133   1
   2  11   9 -3.2429 3.57948   1
  -4 -11   3 16.4533 8.07632  -2
  -4 -10  10 16.4533 8.07632   1
  -4 -11   2 29.5738 14.7758  -2
  -4 -10  10 29.5738 14.7758   1
  -3 -11   3 16.2945 6.88584  -2
  -3 -10  10 16.2945 6.88584   1
  -2 -11   3 20.3345 6.14949  -2
  -2 -10  10 20.3345 6.14949   1
  -1 -11   3 6.73871 7.43533  -2
  -1 -10  10 6.73871 7.43533   1
  -1 -11   2 -13.564 13.9192  -2
  -1 -10  10 -13.564 13.9192   1
   0 -10  10 -0.6434 3.48622   1
   1 -10  10 40.0590 5.38528   1
   2 -10  10 -3.5259 2.71222   1
   3 -10  10 -4.5420 2.63628   1
  -5 -10   4 7.19742 8.59949  -2
  -5  -9  10 7.19742 8.59949   1
  -4 -10   3 0.19535 11.2106  -2
  -4  -9  10 0.19535 11.2106   1
  -3 -10   3 2.79336 6.16814  -2
  -3  -9  10 2.79336 6.16814   1
  -3 -10   4 25.1653 9.51986  -2
  -3  -9  10 25.1653 9.51986   1
  -2 -10   3 28.1432 6.80055  -2
  -2  -9  10 28.1432 6.80055   1
  -2 -10   4 33.6829 10.9336  -2
  -2  -9  10 33.6829 10.9336   1
  -1 -10   3 14.5183 5.60839  -2
  -1  -9  10 14.5183 5.60839   1
   0 -10   3 29.6766 6.94051  -2
   0  -9  10 29.6766 6.94051   1
   1 -10   3 38.2662 9.66665  -2
   1  -9  10 38.2662 9.66665   1
   2  -9  10 7.47212 3.30861   1
   3  -9  10 15.7665 3.77363   1
   4  -9  10 15.3699 3.47387   1
   5  -9  10 4.21762 3.38831   1
  -6  -8  10 45.7070 6.48556   1
  -5  -9   4 67.9947 9.79269  -2
  -5  -8  10 67.9947 9.79269   1
  -4  -9   4 18.6298 4.61038  -2
  -4  -8  10 18.6298 4.61038   1
  -3  -9   4 36.4502 4.36020  -2
  -3  -8  10 36.4502 4.36020   1
  -2  -9   4 107.138 6.75795  -2
  -2  -8  10 107.138 6.75795   1
  -1  -9   4 54.8787 5.05468  -2
  -1  -8  10 54.8787 5.05468   1
   0  -9   4 75.2921 6.40275  -2
   0  -8  10 75.2921 6.40275   1
   1  -9   4 69.0993 8.19233  -2
   1  -8  10 69.0993 8.19233   1
   2  -9   4 8.97618 9.59201  -2
   2  -8  10 8.97618 9.59201   1
   3  -9   4 7.15320 6.08019  -2
   3  -8  10 7.15320 6.08019   1
   4  -9   4 -0.5180 9.12496  -2
   4  -8  10 -0.5180 9.12496   1
   5  -8  10 7.36994 2.72560   1
   6  -8  10 -0.4205 2.40546   1
  -7  -7  10 28.6222 6.55945   1
  -6  -7  10 50.5677 5.62082   1
  -5  -8   5 65.9375 13.4354  -2
  -5  -7  10 65.9375 13.4354   1
  -4  -8   5 17.6888 4.90241  -2
  -4  -7  10 17.6888 4.90241   1
  -3  -8   5 19.0641 3.94189  -2
  -3  -7  10 19.0641 3.94189   1
  -2  -8   5 5.52320 3.11301  -2
  -2  -7  10 5.52320 3.11301   1
  -1  -8   5 10.5466 3.17194  -2
  -1  -7  10 10.5466 3.17194   1
   0  -8   5 19.4886 2.96693  -2
   0  -7  10 19.4886 2.96693   1
   1  -8   5 17.9999 3.96726  -2
   1  -7  10 17.9999 3.96726   1
   2  -8   5 10.9350 5.37646  -2
   2  -7  10 10.9350 5.37646   1
   3  -8   4 49.1815 8.21018  -2
   3  -7  10 49.1815 8.21018   1
   4  -8   4 35.6057 7.29379  -2
   4  -7  10 35.6057 7.29379   1
   5  -7  10 6.90521 2.61773   1
   6  -7  10 6.76260 2.53382   1
   7  -7  10 20.1473 3.29451   1
  -8  -6  10 0.95588 4.02427   1
  -7  -6  10 6.78683 4.30960   1
  -6  -6  10 25.9858 4.45728   1
  -5  -6  10 21.0546 3.52774   1
  -4  -7   6 25.0511 7.34129  -2
  -4  -6  10 25.0511 7.34129   1
  -3  -7   6 -0.8289 5.50838  -2
  -3  -6  10 -0.8289 5.50838   1
  -2  -7   6 39.5733 5.03981  -2
  -2  -6  10 39.5733 5.03981   1
  -1  -7   6 35.1442 5.74850  -2
  -1  -6  10 35.1442 5.74850   1
  -1  -7   5 49.5472 11.6468  -2
  -1  -6  10 49.5472 11.6468   1
   0  -7   5 113.286 17.9112  -2
   0  -6  10 113.286 17.9112   1
   1  -7   5 83.4997 7.49408  -2
   1  -6  10 83.4997 7.49408   1
   2  -7   5 122.736 8.96275  -2
   2  -6  10 122.736 8.96275   1
   3  -7   5 79.7997 6.76127  -2
   3  -6  10 79.7997 6.76127   1
   4  -7   5 118.416 9.21948  -2
   4  -6  10 118.416 9.21948   1
   5  -7   5 37.2013 5.69188  -2
   5  -6  10 37.2013 5.69188   1
   6  -7   5 23.3799 8.04884  -2
   6  -6  10 23.3799 8.04884   1
   7  -6  10 7.50548 2.50622   1
   8  -6  10 7.44085 4.86652   1
  -8  -5  10 19.3024 5.42057   1
  -7  -5  10 -1.4280 3.66831   1
  -6  -5  10 6.72965 2.86610   1
  -5  -5  10 3.59948 2.53656   1
  -4  -5  10 4.57182 1.37177   1
  -3  -6   6 367.854 49.5509  -2
  -3  -5  10 367.854 49.5509   1
  -2  -6   6 198.406 26.2443  -2
  -2  -5  10 198.406 26.2443   1
  -1  -6   6 70.8250 5.88813  -2
  -1  -5  10 70.8250 5.88813   1
   0  -6   6 26.2040 4.01474  -2
   0  -5  10 26.2040 4.01474   1
   1  -6   6 96.4594 6.18491  -2
   1  -5  10 96.4594 6.18491   1
   2  -6   6 29.4971 2.85192  -2
   2  -5  10 29.4971 2.85192   1
   3  -6   6 62.6080 4.53678  -2
   3  -5  10 62.6080 4.53678   1
   4  -6   6 148.714 8.87331  -2
   4  -5  10 148.714 8.87331   1
   5  -6   6 161.714 9.69883  -2
   5  -5  10 161.714 9.69883   1
   6  -6   6 41.0160 4.51326  -2
   6  -5  10 41.0160 4.51326   1
   7  -6   6 87.9712 8.75949  -2
   7  -5  10 87.9712 8.75949   1
   8  -6   6 23.9111 8.54666  -2
   8  -5  10 23.9111 8.54666   1
  -9  -4  10 4.80887 4.76418   1
  -8  -4  10 21.3214 5.41325   1
  -7  -4  10 14.9879 4.79960   1
  -6  -4  10 15.8120 3.05500   1
  -5  -4  10 9.18761 1.93123   1
  -4  -4  10 5.41855 1.33700   1
  -3  -4  10 68.4322 4.92827   1
  -2  -5   7 153.061 15.0437  -2
  -2  -4  10 153.061 15.0437   1
  -1  -5   7 102.623 14.8631  -2
  -1  -4  10 102.623 14.8631   1
   0  -5   7 61.9722 7.21587  -2
   0  -4  10 61.9722 7.21587   1
   1  -5   7 96.9407 7.00764  -2
   1  -4  10 96.9407 7.00764   1
   2  -5   7 67.3443 4.70365  -2
   2  -4  10 67.3443 4.70365   1
   3  -5   7 48.8286 3.93016  -2
   3  -4  10 48.8286 3.93016   1
   4  -5   7 91.5078 6.10184  -2
   4  -4  10 91.5078 6.10184   1
   5  -5   7 45.1751 4.55085  -2
   5  -4  10 45.1751 4.55085   1
   6  -5   7 141.728 12.6336  -2
   6  -4  10 141.728 12.6336   1
   6  -5   6 106.047 16.3185  -2
   6  -4  10 106.047 16.3185   1
   7  -5   6 21.7437 7.45806  -2
   7  -4  10 21.7437 7.45806   1
   7  -5   7 5.14043 7.33450  -2
   7  -4  10 5.14043 7.33450   1
   8  -5   7 7.44153 8.80478  -2
   8  -4  10 7.44153 8.80478   1
   9  -4  10 19.8268 4.63090   1
  -9  -3  10 9.44705 4.63702   1
  -8  -3  10 38.0384 6.60107   1
  -7  -3  10 27.1723 4.65265   1
  -6  -3  10 15.2497 2.88086   1
  -5  -3  10 27.5635 2.34824   1
  -4  -3  10 20.4481 2.39901   1
  -3  -3  10 202.084 11.2144   1
  -2  -3  10 34.2495 2.55288   1
  -1  -3  10 181.265 9.05887   1
   0  -3  10 195.937 9.61445   1
   1  -3  10 133.435 6.39309   1
   2  -4   8 27.0223 6.40078  -2
   2  -3  10 27.0223 6.40078   1
   3  -4   7 35.4888 4.98146  -2
   3  -3  10 35.4888 4.98146   1
   3  -4   8 38.2257 7.75465  -2
   3  -3  10 38.2257 7.75465   1
   4  -4   7 56.8127 5.90204  -2
   4  -3  10 56.8127 5.90204   1
   5  -4   7 99.1910 7.83413  -2
   5  -3  10 99.1910 7.83413   1
   6  -4   7 30.0789 4.85487  -2
   6  -3  10 30.0789 4.85487   1
   7  -4   7 13.5421 5.08052  -2
   7  -3  10 13.5421 5.08052   1
   8  -4   7 1.48754 8.28011  -2
   8  -3  10 1.48754 8.28011   1
   9  -4   7 5.15850 8.92191  -2
   9  -3  10 5.15850 8.92191   1
  -9  -2  10 7.83302 5.13570   1
  -8  -4   8 4.51187 12.8892  -2
  -8  -2  10 4.51187 12.8892   1
  -7  -2  10 2.15163 2.84778   1
  -6  -2  10 28.3728 3.47502   1
  -5  -2  10 -0.0631 1.27479   1
  -4  -2  10 31.9383 2.33174   1
  -3  -2  10 97.7904 5.02859   1
  -2  -2  10 302.904 14.6354   1
  -1  -2  10 25.5936 1.96951   1
   0  -2  10 158.187 6.56731   1
   1  -2  10 45.2505 2.25235   1
   2  -3   8 691.894 48.7413  -2
   2  -2  10 691.894 48.7413   1
   3  -3   8 34.5542 2.87309  -2
   3  -2  10 34.5542 2.87309   1
   4  -3   8 99.0141 6.02513  -2
   4  -2  10 99.0141 6.02513   1
   5  -3   8 177.330 10.9982  -2
   5  -2  10 177.330 10.9982   1
   6  -3   8 269.705 18.0394  -2
   6  -2  10 269.705 18.0394   1
   7  -3   8 148.805 10.9713  -2
   7  -2  10 148.805 10.9713   1
   8  -3   8 95.7783 10.0424  -2
   8  -2  10 95.7783 10.0424   1
   9  -3   8 9.45006 5.60840  -2
   9  -2  10 9.45006 5.60840   1
  -9  -1  10 -2.5703 3.34204   1
  -8  -1  10 258.078 25.0079   1
  -7  -3   9 8.87964 9.55324  -2
  -7  -1  10 8.87964 9.55324   1
  -6  -1  10 5.94921 2.68593   1
  -5  -1  10 1.70057 1.13391   1
  -4  -1  10 26.2677 1.74527   1
  -3  -1  10 29.2061 1.95153   1
  -2  -1  10 17.9181 1.42194   1
  -1  -1  10 18.6975 1.29916   1
   0  -1  10 269.791 10.8594   1
   1  -1  10 36.3242 2.20401   1
   2  -1  10 0.89077 0.93663   1
   3  -2   9 265.527 19.5562  -2
   3  -1  10 265.527 19.5562   1
   4  -2   9 138.715 8.56677  -2
   4  -1  10 138.715 8.56677   1
   5  -2   9 16.6706 2.58573  -2
   5  -1  10 16.6706 2.58573   1
   6  -2   9 653.196 33.2720  -2
   6  -1  10 653.196 33.2720   1
   7  -2   9 208.754 12.9819  -2
   7  -1  10 208.754 12.9819   1
   8  -2   9 49.5602 5.72078  -2
   8  -1  10 49.5602 5.72078   1
   9  -2   9 23.5542 6.15343  -2
   9  -1  10 23.5542 6.15343   1
  10  -1  10 -0.9266 3.07822   1
  -9   0  10 9.72141 3.63401   1
  -8   0  10 27.1369 4.51942   1
  -7   0  10 1.37532 2.66238   1
  -6   0  10 9.88817 2.90061   1
  -5   0  10 7.51204 1.32497   1
  -4   0  10 7.81639 1.10972   1
  -3   0  10 54.9576 3.04201   1
  -2   0  10 6.09271 0.85503   1
  -1   0  10 46.0967 2.54497   1
   0   0  10 270.356 10.2160   1
   1   0  10 570.806 26.3296   1
   2   0  10 83.6605 4.39099   1
   3   0  10 205.706 10.0576   1
   4   0  10 282.465 13.7787   1
   5  -1   9 40.8577 9.15481  -2
   5   0  10 40.8577 9.15481   1
   6  -1   9 297.729 39.9353  -2
   6   0  10 297.729 39.9353   1
   7  -1   9 37.6711 9.60392  -2
   7   0  10 37.6711 9.60392   1
   8  -1  10 83.3526 16.1015  -2
   8   0  10 83.3526 16.1015   1
   9   0  10 62.5753 8.34601   1
  10  -1   9 37.6127 14.0487  -2
  10   0  10 37.6127 14.0487   1
  -9   1  10 12.0798 4.37385   1
  -8   1  10 5.23701 3.05246   1
  -7   1  10 2.65624 2.76931   1
  -6   1  10 3.95814 2.64354   1
  -5   1  10 47.5965 5.15339   1
  -4   1  10 56.2251 3.84102   1
  -3   1  10 288.142 13.7167   1
  -2   1  10 0.45500 0.50621   1
  -1   1  10 223.530 8.89504   1
   0   1  10 4.27175 0.65585   1
   1   1  10 21.3993 1.48953   1
   2   1  10 81.1380 3.83890   1
   3   1  10 61.2987 3.18536   1
   4   0  10 98.3540 14.9444  -2
   4   1  10 98.3540 14.9444   1
   5   0  10 23.0348 4.16364  -2
   5   1  10 23.0348 4.16364   1
   6   0  10 192.191 13.0520  -2
   6   1  10 192.191 13.0520   1
   7   0  10 96.7836 7.99995  -2
   7   1  10 96.7836 7.99995   1
   8   0  10 45.8563 4.63380  -2
   8   1  10 45.8563 4.63380   1
   9   0  10 85.6987 8.21437  -2
   9   1  10 85.6987 8.21437   1
  10   0  10 112.693 11.7764  -2
  10   1  10 112.693 11.7764   1
  -9   2  10 4.59062 6.03653   1
  -8   2  10 1.01335 3.29845   1
  -7   2  10 22.0526 4.32402   1
  -6   2  10 1.34544 2.47792   1
  -5   2  10 44.7576 3.93863   1
  -4   2  10 213.880 10.3045   1
  -3   2  10 139.964 7.96764   1
  -2   2  10 34.7979 2.94265   1
  -1   2  10 6.94556 1.26609   1
   0   2  10 296.403 11.1338   1
   1   2  10 345.077 13.6942   1
   2   2  10 136.929 5.77150   1
   3   2  10 28.3616 1.98481   1
   4   2  10 125.047 6.66947   1
   5   1  11 183.867 24.8071  -2
   5   2  10 183.867 24.8071   1
   6   1  11 51.6845 5.98454  -2
   6   2  10 51.6845 5.98454   1
   7   1  11 120.621 9.30129  -2
   7   2  10 120.621 9.30129   1
   8   1  11 35.9752 4.97350  -2
   8   2  10 35.9752 4.97350   1
   9   1  11 50.1007 6.12647  -2
   9   2  10 50.1007 6.12647   1
  10   1  11 54.5411 6.48010  -2
  10   2  10 54.5411 6.48010   1
  -8   1  12 -5.2226 5.86072  -2
  -8   3  10 -5.2226 5.86072   1
  -7   1  12 52.4319 14.5330  -2
  -7   3  10 52.4319 14.5330   1
  -6   3  10 122.458 10.8482   1
  -5   3  10 106.864 8.14990   1
  -4   3  10 3.10535 1.25638   1
  -3   3  10 31.1467 3.00275   1
  -2   3  10 137.786 7.78237   1
  -1   3  10 25.2994 2.36472   1
   0   3  10 186.276 7.95519   1
   1   3  10 9.81165 1.04405   1
   2   3  10 2.41505 0.78578   1
   3   3  10 24.3685 1.96397   1
   4   3  10 4.04324 1.45236   1
   5   3  10 88.9871 5.55918   1
   6   3  10 4.69988 2.01049   1
   7   2  11 25.7583 10.2985  -2
   7   3  10 25.7583 10.2985   1
   8   2  11 77.6841 16.7247  -2
   8   3  10 77.6841 16.7247   1
   9   2  11 203.375 31.2549  -2
   9   3  10 203.375 31.2549   1
   9   2  12 99.5294 17.5213  -2
   9   3  10 99.5294 17.5213   1
  10   3  10 -2.0482 3.52342   1
  -8   4  10 16.3550 9.40491   1
  -7   2  13 88.8067 15.9291  -2
  -7   4  10 88.8067 15.9291   1
  -6   4  10 4.99466 2.68356   1
  -5   4  10 221.414 17.1268   1
  -4   4  10 11.3024 1.88352   1
  -3   4  10 3.71719 2.06070   1
  -2   4  10 26.9486 2.88655   1
  -1   4  10 81.8092 5.36188   1
   0   4  10 16.1486 1.47700   1
   1   4  10 230.956 10.7737   1
   2   4  10 113.290 5.31540   1
   3   4  10 246.907 11.3799   1
   4   4  10 6.58809 1.85694   1
   5   4  10 -0.5020 1.47312   1
   6   4  10 49.4029 3.99761   1
   7   4  10 104.603 7.29334   1
   8   4  10 32.3639 3.91280   1
   9   3  12 275.981 40.8433  -2
   9   4  10 275.981 40.8433   1
  -7   3  13 42.8716 13.6564  -2
  -7   5  10 42.8716 13.6564   1
  -6   3  13 -9.3617 7.90164  -2
  -6   5  10 -9.3617 7.90164   1
  -5   5  10 68.6247 5.58869   1
  -4   5  10 -0.6673 1.55465   1
  -3   5  10 35.9013 3.81865   1
  -2   5  10 20.1707 2.76231   1
  -1   5  10 -1.5546 0.97720   1
   0   5  10 64.0300 3.95368   1
   1   5  10 21.3973 1.88109   1
   2   5  10 750.148 31.1860   1
   3   5  10 215.602 10.1285   1
   4   5  10 163.293 8.78044   1
   5   5  10 21.0057 2.92392   1
   6   5  10 19.8475 2.80275   1
   7   5  10 4.85566 2.37986   1
   8   5  10 9.00207 2.99591   1
   9   5  10 10.0437 3.96618   1
  -7   4  14 2.17382 12.1325  -2
  -7   6  10 2.17382 12.1325   1
  -6   4  14 -9.0697 9.75575  -2
  -6   6  10 -9.0697 9.75575   1
  -5   4  14 -0.9665 9.79055  -2
  -5   6  10 -0.9665 9.79055   1
  -4   4  14 0.42911 9.90327  -2
  -4   6  10 0.42911 9.90327   1
  -3   6  10 31.1827 3.33805   1
  -2   6  10 90.9739 5.88292   1
  -1   6  10 66.7970 4.74687   1
   0   6  10 22.8835 2.69588   1
   1   6  10 25.1621 2.61568   1
   2   6  10 259.845 12.9832   1
   3   6  10 117.059 6.90077   1
   4   6  10 25.8004 2.90183   1
   5   6  10 20.8801 2.64581   1
   6   6  10 22.7660 3.04980   1
   7   6  10 7.59666 2.56588   1
   8   6  10 1.17959 2.51020   1
   9   6  10 7.17028 3.79232   1
  -6   5  15 10.3128 13.1622  -2
  -6   7  10 10.3128 13.1622   1
  -5   5  15 -13.910 10.5366  -2
  -5   7  10 -13.910 10.5366   1
  -4   7  10 7.51719 5.45671   1
  -3   7  10 18.6783 2.98685   1
  -2   7  10 56.5135 5.12982   1
  -1   7  10 102.081 7.51569   1
   0   7  10 14.9073 2.83144   1
   1   7  10 73.5953 5.44384   1
   2   7  10 4.57645 2.11742   1
   3   7  10 -2.2202 1.94533   1
   4   7  10 26.1688 3.12695   1
   5   7  10 80.1583 5.57787   1
   6   7  10 6.23031 2.37009   1
   7   7  10 71.6076 6.06360   1
   8   7  10 10.4214 3.48466   1
  -5   8  10 7.59129 6.41012   1
  -4   8  10 -4.3180 4.62735   1
  -3   6  15 6.42046 5.71801  -2
  -3   8  10 6.42046 5.71801   1
  -2   6  15 23.8559 6.90352  -2
  -2   8  10 23.8559 6.90352   1
  -1   8  10 54.8315 5.38262   1
   0   8  10 -2.6561 2.35445   1
   1   8  10 193.972 12.6220   1
   2   8  10 9.45959 3.00165   1
   3   8  10 20.1512 3.53552   1
   4   8  10 -2.6492 2.41054   1
   5   8  10 4.39517 2.96252   1
   6   8  10 0.58854 2.96716   1
   7   8  10 7.24743 3.54456   1
  -4   7  16 14.0762 11.2578  -2
  -4   9  10 14.0762 11.2578   1
  -3   7  16 13.0553 11.2468  -2
  -3   9  10 13.0553 11.2468   1
  -2   7  16 27.4173 5.59762  -2
  -2   9  10 27.4173 5.59762   1
  -1   7  16 4.31882 4.56479  -2
  -1   9  10 4.31882 4.56479   1
   0   7  16 6.58325 5.84776  -2
   0   9  10 6.58325 5.84776   1
   1   7  16 81.0781 11.3890  -2
   1   9  10 81.0781 11.3890   1
   2   7  16 -8.3725 9.92713  -2
   2   9  10 -8.3725 9.92713   1
   3   9  10 0.75978 2.83037   1
   4   9  10 7.68069 3.33001   1
   5   9  10 32.0133 4.78070   1
   6   9  10 1.33324 3.53281   1
  -2   8  17 70.9488 12.1120  -2
  -2  10  10 70.9488 12.1120   1
  -1   8  17 16.7755 7.69955  -2
  -1  10  10 16.7755 7.69955   1
   0   8  17 13.4040 7.87316  -2
   0  10  10 13.4040 7.87316   1
   1   8  17 32.9181 14.1242  -2
   1  10  10 32.9181 14.1242   1
   2   8  17 31.1686 14.1521  -2
   2  10  10 31.1686 14.1521   1
   3  10  10 48.6559 5.86374   1
   4  10  10 -2.4108 2.96086   1
   5  10  10 0.71977 3.70388   1
  -3 -11   4 6.61200 7.76165  -2
  -3 -10  11 6.61200 7.76165   1
  -2 -11   4 9.06391 8.82535  -2
  -2 -10  11 9.06391 8.82535   1
  -1 -11   4 13.4576 9.27277  -2
  -1 -10  11 13.4576 9.27277   1
  -1 -11   3 -12.058 14.5270  -2
  -1 -10  11 -12.058 14.5270   1
   0 -11   4 66.3197 15.5398  -2
   0 -10  11 66.3197 15.5398   1
   1 -11   4 77.0426 17.3614  -2
   1 -10  11 77.0426 17.3614   1
   1 -11   3 93.3628 20.6938  -2
   1 -10  11 93.3628 20.6938   1
   2 -11   3 5.88060 14.8381  -2
   2 -10  11 5.88060 14.8381   1
   2 -11   4 69.7467 19.5637  -2
   2 -11   3 69.7467 19.5637  -2
   2 -10  11 69.7467 19.5637   1
  -5  -9  11 4.44230 3.48397   1
  -4  -9  11 40.2841 5.40413   1
  -3 -10   5 50.8842 12.1073  -2
  -3  -9  11 50.8842 12.1073   1
  -2 -10   5 -0.8907 8.24029  -2
  -2  -9  11 -0.8907 8.24029   1
  -1 -10   4 -0.7260 8.27476  -2
  -1  -9  11 -0.7260 8.27476   1
   0 -10   4 30.8272 9.04019  -2
   0  -9  11 30.8272 9.04019   1
   1 -10   4 20.3668 7.67366  -2
   1  -9  11 20.3668 7.67366   1
   2 -10   4 38.8341 8.51880  -2
   2  -9  11 38.8341 8.51880   1
   3 -10   4 29.2958 7.86959  -2
   3  -9  11 29.2958 7.86959   1
   4 -10   4 27.3426 6.71731  -2
   4  -9  11 27.3426 6.71731   1
  -6  -8  11 12.7916 3.77263   1
  -5  -8  11 1.71186 3.10375   1
  -4  -9   5 54.2157 11.9987  -2
  -4  -8  11 54.2157 11.9987   1
  -3  -9   5 23.9943 6.17422  -2
  -3  -8  11 23.9943 6.17422   1
  -2  -9   5 40.5496 5.87631  -2
  -2  -8  11 40.5496 5.87631   1
  -1  -9   5 13.9351 4.17412  -2
  -1  -8  11 13.9351 4.17412   1
   0  -9   5 101.974 7.82669  -2
   0  -8  11 101.974 7.82669   1
   1  -9   5 65.5701 6.48701  -2
   1  -8  11 65.5701 6.48701   1
   2  -9   5 26.5488 5.38951  -2
   2  -8  11 26.5488 5.38951   1
   3  -9   5 23.0932 4.41573  -2
   3  -8  11 23.0932 4.41573   1
   4  -9   5 5.51718 3.92239  -2
   4  -8  11 5.51718 3.92239   1
   5  -9   5 -1.6465 3.70397  -2
   5  -8  11 -1.6465 3.70397   1
   6  -8  11 0.31558 2.72147   1
  -7  -7  11 5.95743 4.40952   1
  -6  -7  11 22.2192 4.48601   1
  -5  -7  11 -2.3115 2.55779   1
  -4  -7  11 41.4288 3.88514   1
  -3  -8   6 68.9190 13.0068  -2
  -3  -7  11 68.9190 13.0068   1
  -2  -8   6 -0.2460 6.43768  -2
  -2  -7  11 -0.2460 6.43768   1
  -1  -8   6 -0.4469 3.22643  -2
  -1  -7  11 -0.4469 3.22643   1
   0  -8   6 53.7300 5.48747  -2
   0  -7  11 53.7300 5.48747   1
   1  -8   6 1.14933 4.01549  -2
   1  -7  11 1.14933 4.01549   1
   2  -8   6 20.1537 4.06837  -2
   2  -7  11 20.1537 4.06837   1
   3  -8   6 25.3632 4.69047  -2
   3  -7  11 25.3632 4.69047   1
   4  -8   6 31.6076 7.79380  -2
   4  -7  11 31.6076 7.79380   1
   4  -8   6 56.7893 9.63735  -2
   4  -8   5 56.7893 9.63735  -2
   4  -7  11 56.7893 9.63735   1
   5  -8   6 81.3762 17.5488  -2
   5  -8   5 81.3762 17.5488  -2
   5  -7  11 81.3762 17.5488   1
   5  -8   5 60.5727 14.3746  -2
   5  -7  11 60.5727 14.3746   1
   5  -8   6 24.8370 12.3330  -2
   5  -7  11 24.8370 12.3330   1
   6  -8   5 37.6955 7.60751  -2
   6  -7  11 37.6955 7.60751   1
   7  -7  11 11.9776 3.07377   1
  -8  -6  11 11.5223 6.13869   1
  -7  -6  11 10.0969 4.96156   1
  -6  -6  11 84.4987 8.34289   1
  -5  -6  11 3.90713 2.58652   1
  -4  -6  11 5.54311 1.82335   1
  -3  -6  11 3.10283 1.61325   1
  -2  -6  11 35.2845 2.69230   1
  -1  -6  11 18.3175 2.52045   1
   0  -6  11 44.6066 5.63136   1
   1  -7   7 27.0988 7.62243  -2
   1  -6  11 27.0988 7.62243   1
   2  -7   6 39.1588 5.22184  -2
   2  -6  11 39.1588 5.22184   1
   3  -7   6 63.6956 6.87248  -2
   3  -6  11 63.6956 6.87248   1
   4  -7   6 30.5305 4.81467  -2
   4  -6  11 30.5305 4.81467   1
   5  -7   6 67.0821 6.14118  -2
   5  -6  11 67.0821 6.14118   1
   6  -7   6 36.3341 5.13362  -2
   6  -6  11 36.3341 5.13362   1
   7  -7   6 27.2370 4.27648  -2
   7  -6  11 27.2370 4.27648   1
  -8  -5  11 5.70355 4.64053   1
  -7  -5  11 -2.4352 3.37469   1
  -6  -5  11 -1.1361 2.50389   1
  -5  -5  11 14.5692 2.74030   1
  -4  -5  11 32.0817 2.95504   1
  -3  -5  11 79.8059 5.79602   1
  -2  -5  11 131.840 6.76512   1
  -1  -5  11 36.3428 2.76421   1
   0  -5  11 3.53530 1.79746   1
   1  -6   7 30.9443 4.76458  -2
   1  -5  11 30.9443 4.76458   1
   2  -6   7 18.6288 3.08560  -2
   2  -5  11 18.6288 3.08560   1
   3  -6   7 88.9184 5.97713  -2
   3  -5  11 88.9184 5.97713   1
   4  -6   7 192.333 10.7977  -2
   4  -5  11 192.333 10.7977   1
   5  -6   7 18.4940 2.96845  -2
   5  -5  11 18.4940 2.96845   1
   6  -6   7 39.5483 4.23864  -2
   6  -5  11 39.5483 4.23864   1
   7  -6   7 42.2726 4.78956  -2
   7  -5  11 42.2726 4.78956   1
   8  -6   7 3.33039 4.70554  -2
   8  -5  11 3.33039 4.70554   1
  -8  -4  11 34.9352 6.79714   1
  -7  -4  11 30.5153 6.15327   1
  -6  -4  11 6.77888 2.86592   1
  -5  -4  11 5.65595 1.87120   1
  -4  -4  11 0.43333 1.44667   1
  -3  -4  11 366.632 17.8096   1
  -2  -4  11 274.546 13.5364   1
  -1  -4  11 227.722 11.1981   1
   0  -4  11 69.6650 4.49868   1
   1  -5   8 52.2952 9.47033  -2
   1  -4  11 52.2952 9.47033   1
   2  -5   8 48.1183 5.41996  -2
   2  -4  11 48.1183 5.41996   1
   3  -5   8 67.2191 6.51297  -2
   3  -4  11 67.2191 6.51297   1
   4  -5   8 282.553 18.6537  -2
   4  -4  11 282.553 18.6537   1
   5  -5   8 29.1208 3.89552  -2
   5  -4  11 29.1208 3.89552   1
   6  -5   8 358.531 23.8059  -2
   6  -4  11 358.531 23.8059   1
   7  -5   8 58.5893 5.81086  -2
   7  -4  11 58.5893 5.81086   1
   8  -5   8 -4.9180 5.04324  -2
   8  -4  11 -4.9180 5.04324   1
  -9  -3  11 11.3577 5.64787   1
  -8  -3  11 117.280 11.9039   1
  -7  -3  11 2.73988 3.35885   1
  -6  -3  11 44.6342 5.53192   1
  -5  -3  11 4.74962 1.66334   1
  -4  -3  11 1.79852 1.34148   1
  -3  -3  11 18.3356 2.38105   1
  -2  -3  11 -0.1141 1.27133   1
  -1  -3  11 67.9793 4.76272   1
   0  -3  11 141.607 7.14599   1
   1  -3  11 5.06123 1.05038   1
   2  -3  11 22.9011 2.38217   1
   3  -3  11 26.2182 2.50822   1
   4  -4   8 69.3567 8.42780  -2
   4  -3  11 69.3567 8.42780   1
   5  -4   8 128.203 13.8114  -2
   5  -3  11 128.203 13.8114   1
   5  -4   9 144.254 20.2157  -2
   5  -3  11 144.254 20.2157   1
   6  -4   8 98.6793 12.3376  -2
   6  -3  11 98.6793 12.3376   1
   7  -4   8 40.6434 6.95542  -2
   7  -3  11 40.6434 6.95542   1
   8  -4   8 10.5251 9.39441  -2
   8  -3  11 10.5251 9.39441   1
   9  -4   8 18.9899 10.0489  -2
   9  -3  11 18.9899 10.0489   1
  -9  -2  11 7.28602 5.25305   1
  -8  -4   9 6.21403 11.4829  -2
  -8  -2  11 6.21403 11.4829   1
  -7  -4   9 18.2866 11.0682  -2
  -7  -2  11 18.2866 11.0682   1
  -6  -4   9 34.4348 11.0566  -2
  -6  -2  11 34.4348 11.0566   1
  -5  -4   9 39.0534 11.3831  -2
  -5  -2  11 39.0534 11.3831   1
  -4  -2  11 13.8689 1.68608   1
  -3  -2  11 326.977 14.8576   1
  -2  -2  11 8.43456 1.46871   1
  -1  -2  11 12.0730 1.34241   1
   0  -2  11 6.21582 0.83705   1
   1  -2  11 18.8408 1.32612   1
   2  -2  11 -1.0884 0.90129   1
   3  -2  11 227.002 11.2652   1
   4  -3   9 89.6553 9.12610  -2
   4  -2  11 89.6553 9.12610   1
   5  -3   9 4.22050 2.95044  -2
   5  -2  11 4.22050 2.95044   1
   6  -3   9 118.341 9.23185  -2
   6  -2  11 118.341 9.23185   1
   7  -3   9 8.34570 3.67847  -2
   7  -2  11 8.34570 3.67847   1
   8  -3   9 11.9531 4.16057  -2
   8  -2  11 11.9531 4.16057   1
   9  -3   9 78.7626 9.30871  -2
   9  -2  11 78.7626 9.30871   1
  -9  -1  11 6.90237 4.95457   1
  -8  -1  11 13.3414 4.29020   1
  -7  -3  10 115.186 22.3620  -2
  -7  -1  11 115.186 22.3620   1
  -6  -3  10 13.8881 9.79790  -2
  -6  -1  11 13.8881 9.79790   1
  -5  -3  10 173.379 27.4587  -2
  -5  -1  11 173.379 27.4587   1
  -4  -1  11 235.568 9.71687   1
  -3  -1  11 206.056 9.16459   1
  -2  -1  11 5.68457 0.92903   1
  -1  -1  11 85.7344 4.11794   1
   0  -1  11 29.2591 1.72348   1
   1  -1  11 7.22651 1.18371   1
   2  -1  11 134.115 6.36443   1
   3  -1  11 94.8263 5.11097   1
   4  -2  10 66.4855 7.93382  -2
   4  -1  11 66.4855 7.93382   1
   5  -2  10 293.397 26.4815  -2
   5  -1  11 293.397 26.4815   1
   6  -2  10 975.160 53.6434  -2
   6  -1  11 975.160 53.6434   1
   7  -2  10 302.287 20.3792  -2
   7  -1  11 302.287 20.3792   1
   8  -2  10 31.5360 5.06106  -2
   8  -1  11 31.5360 5.06106   1
   9  -2  10 -0.4310 5.05654  -2
   9  -1  11 -0.4310 5.05654   1
  -9  -2  11 4.33787 8.02186  -2
  -9   0  11 4.33787 8.02186   1
  -8  -2  11 4.30368 6.22057  -2
  -8   0  11 4.30368 6.22057   1
  -7   0  11 6.54918 3.14472   1
  -6   0  11 16.4226 3.52492   1
  -5   0  11 22.6548 3.48114   1
  -4   0  11 45.0124 2.44484   1
  -3   0  11 36.3022 2.59426   1
  -2   0  11 92.1605 4.43902   1
  -1   0  11 420.697 18.4436   1
   0   0  11 85.2247 3.64266   1
   1   0  11 0.00648 0.81168   1
   2   0  11 8.58449 1.33591   1
   3   0  11 76.9552 4.95138   1
   4   0  11 14.6190 1.90545   1
   5   0  11 32.4593 3.14371   1
   6  -1  10 200.598 27.9951  -2
   6   0  11 200.598 27.9951   1
   7  -1  10 40.4623 10.1152  -2
   7   0  11 40.4623 10.1152   1
   8   0  11 7.47219 2.49518   1
   9  -1  11 2.36555 9.17479  -2
   9   0  11 2.36555 9.17479   1
  10   0  11 7.54501 3.81160   1
  -9   1  11 8.67831 6.58406   1
  -8   1  11 17.9156 4.03077   1
  -7  -1  11 27.9061 7.88978  -2
  -7   1  11 27.9061 7.88978   1
  -6   1  11 9.96038 2.90211   1
  -5  -1  11 45.4498 11.9845  -2
  -5   1  11 45.4498 11.9845   1
  -4  -1  11 67.8707 13.4948  -2
  -4   1  11 67.8707 13.4948   1
  -3   1  11 0.51159 0.93977   1
  -2   1  11 102.238 4.56348   1
  -1   1  11 397.285 16.4014   1
   0   1  11 42.2890 2.22409   1
   1   1  11 1.51754 0.65068   1
   2   1  11 176.080 8.20040   1
   3   1  11 30.3282 2.06491   1
   4   1  11 1.63727 1.30369   1
   5   1  11 19.7746 2.27893   1
   6   0  11 194.536 27.8151  -2
   6   1  11 194.536 27.8151   1
   7   0  11 423.552 31.5431  -2
   7   1  11 423.552 31.5431   1
   8   0  11 48.4732 5.87545  -2
   8   1  11 48.4732 5.87545   1
   9   0  11 139.519 15.9372  -2
   9   1  11 139.519 15.9372   1
  10   0  11 36.0231 7.54425  -2
  10   1  11 36.0231 7.54425   1
  -8   0  12 3.58976 5.66109  -2
  -8   2  11 3.58976 5.66109   1
  -7   0  12 123.716 21.7358  -2
  -7   2  11 123.716 21.7358   1
  -6   0  12 39.2923 11.7446  -2
  -6   2  11 39.2923 11.7446   1
  -5   0  12 354.676 47.8574  -2
  -5   2  11 354.676 47.8574   1
  -4   2  11 87.1634 5.47086   1
  -3   0  12 87.4672 16.1146  -2
  -3   2  11 87.4672 16.1146   1
  -2   2  11 -1.8718 1.05786   1
  -1   2  11 27.7976 2.43610   1
   0   2  11 12.9982 1.00528   1
   1   2  11 182.104 7.54581   1
   2   2  11 5.11382 0.94361   1
   3   2  11 276.975 11.7433   1
   4   2  11 24.5973 2.34511   1
   5   2  11 11.7887 2.15497   1
   6   2  11 6.52013 2.10965   1
   7   2  11 45.4045 4.35828   1
   8   1  12 106.470 17.0518  -2
   8   2  11 106.470 17.0518   1
   9   1  12 274.726 26.1303  -2
   9   2  11 274.726 26.1303   1
  10   2  11 10.3786 3.99708   1
  -8   1  13 9.17449 6.58140  -2
  -8   3  11 9.17449 6.58140   1
  -7   1  13 16.0644 6.21569  -2
  -7   3  11 16.0644 6.21569   1
  -6   1  13 9.82376 5.07127  -2
  -6   3  11 9.82376 5.07127   1
  -5   1  13 78.2537 9.87711  -2
  -5   3  11 78.2537 9.87711   1
  -4   1  13 60.2752 13.2653  -2
  -4   3  11 60.2752 13.2653   1
  -3   3  11 105.828 7.36471   1
  -2   3  11 17.6802 1.76100   1
  -1   3  11 113.137 6.63418   1
   0   3  11 30.8860 1.65643   1
   1   3  11 0.10156 0.75007   1
   2   3  11 169.118 6.95918   1
   3   3  11 82.0794 4.24204   1
   4   3  11 7.09536 1.58236   1
   5   3  11 1.59792 1.68203   1
   6   3  11 0.87317 1.93567   1
   7   3  11 50.7330 4.69155   1
   8   3  11 31.9323 3.96902   1
   9   2  12 34.8095 13.2731  -2
   9   3  11 34.8095 13.2731   1
  -8   4  11 16.8244 9.33897   1
  -7   2  14 18.8736 10.7508  -2
  -7   4  11 18.8736 10.7508   1
  -6   2  14 1.60819 9.45471  -2
  -6   4  11 1.60819 9.45471   1
  -5   4  11 31.7484 3.63297   1
  -4   4  11 -1.5924 1.72131   1
  -3   4  11 13.5171 2.84298   1
  -2   4  11 56.5537 4.55048   1
  -1   4  11 0.63044 1.52138   1
   0   4  11 324.837 14.5658   1
   1   4  11 114.387 5.79600   1
   2   4  11 149.945 6.80037   1
   3   4  11 0.41660 1.47949   1
   4   4  11 3.19998 1.75015   1
   5   4  11 14.9826 2.20679   1
   6   4  11 27.2037 3.13005   1
   7   4  11 42.9863 3.95740   1
   8   4  11 18.7575 3.27986   1
   9   4  11 45.6158 6.06175   1
  -7   3  14 -0.5153 5.92022  -2
  -7   5  11 -0.5153 5.92022   1
  -6   3  14 -6.3627 6.36439  -2
  -6   5  11 -6.3627 6.36439   1
  -5   3  14 18.7231 4.37827  -2
  -5   5  11 18.7231 4.37827   1
  -4   3  14 -10.442 3.66882  -2
  -4   5  11 -10.442 3.66882   1
  -3   3  14 76.8262 16.4796  -2
  -3   5  11 76.8262 16.4796   1
  -2   5  11 44.5778 4.68523   1
  -1   5  11 2.97097 1.07777   1
   0   3  14 50.9909 9.39209  -2
   0   5  11 50.9909 9.39209   1
   1   5  11 169.776 8.74947   1
   2   5  11 63.9319 3.67952   1
   3   5  11 5.88320 1.89011   1
   4   5  11 12.3496 2.31938   1
   5   5  11 -0.0492 1.86861   1
   6   5  11 1.05124 1.73342   1
   7   5  11 47.5182 4.19317   1
   8   5  11 19.0023 3.11659   1
   9   5  11 12.8648 3.85044   1
  -6   4  15 -14.758 10.2813  -2
  -6   6  11 -14.758 10.2813   1
  -5   4  15 0.73000 10.0908  -2
  -5   6  11 0.73000 10.0908   1
  -4   6  11 -1.4157 4.61270   1
  -3   6  11 2.42139 3.26821   1
  -2   4  15 1.29425 9.42716  -2
  -2   6  11 1.29425 9.42716   1
  -1   4  15 14.5111 5.50861  -2
  -1   6  11 14.5111 5.50861   1
   0   4  15 134.067 14.1505  -2
   0   6  11 134.067 14.1505   1
   1   6  11 34.1157 3.37625   1
   2   6  11 333.282 16.2444   1
   3   6  11 65.3712 4.70879   1
   4   6  11 5.58255 2.05124   1
   5   6  11 27.0480 3.33507   1
   6   6  11 0.38406 2.07784   1
   7   6  11 25.2487 3.02476   1
   8   6  11 6.31704 2.85070   1
   9   6  11 29.5946 7.42284   1
  -6   7  11 -8.4785 4.46155   1
  -5   7  11 15.9974 6.89957   1
  -4   7  11 7.48155 5.54809   1
  -3   7  11 102.653 10.3055   1
  -2   5  16 183.016 25.7288  -2
  -2   7  11 183.016 25.7288   1
  -1   5  16 18.4244 7.68210  -2
  -1   7  11 18.4244 7.68210   1
   0   7  11 -2.0469 2.03999   1
   1   7  11 -2.8815 1.91933   1
   2   7  11 66.9564 5.25134   1
   3   7  11 29.6200 3.52261   1
   4   7  11 67.7629 5.55080   1
   5   7  11 9.66733 2.81113   1
   6   7  11 16.7070 4.08960   1
   7   7  11 9.12895 3.35890   1
   8   7  11 -1.0181 3.19858   1
  -5   6  16 11.2587 10.0377  -2
  -5   8  11 11.2587 10.0377   1
  -4   6  16 1.78302 8.01794  -2
  -4   8  11 1.78302 8.01794   1
  -3   6  16 -2.1125 7.78864  -2
  -3   8  11 -2.1125 7.78864   1
  -2   6  16 53.1428 6.00973  -2
  -2   8  11 53.1428 6.00973   1
  -1   6  16 31.3277 5.76944  -2
  -1   8  11 31.3277 5.76944   1
   0   6  16 140.789 17.7147  -2
   0   8  11 140.789 17.7147   1
   1   6  16 80.0007 11.0918  -2
   1   8  11 80.0007 11.0918   1
   2   6  16 13.5653 6.17446  -2
   2   8  11 13.5653 6.17446   1
   3   8  11 -3.3438 2.76948   1
   4   8  11 13.4693 3.83177   1
   5   8  11 28.9637 4.72028   1
   6   8  11 23.5166 4.71689   1
   7   8  11 39.5075 6.41434   1
  -3   7  17 0.84945 6.59219  -2
  -3   9  11 0.84945 6.59219   1
  -2   7  17 43.5739 8.94254  -2
  -2   9  11 43.5739 8.94254   1
  -1   7  17 12.3435 4.56871  -2
  -1   9  11 12.3435 4.56871   1
   0   7  17 18.2013 5.34570  -2
   0   9  11 18.2013 5.34570   1
   1   7  17 50.2331 7.21912  -2
   1   9  11 50.2331 7.21912   1
   2   7  17 9.65413 4.97651  -2
   2   9  11 9.65413 4.97651   1
   3   7  17 39.0602 6.68504  -2
   3   9  11 39.0602 6.68504   1
   4   9  11 -1.4632 3.27856   1
   5   9  11 6.99837 3.91365   1
   6   9  11 7.68878 4.41242   1
  -1   8  18 9.44235 9.33543  -2
  -1  10  11 9.44235 9.33543   1
   0   8  18 -4.9733 7.70702  -2
   0  10  11 -4.9733 7.70702   1
   1   8  18 9.57598 8.77330  -2
   1  10  11 9.57598 8.77330   1
   2   8  18 6.27895 8.61167  -2
   2  10  11 6.27895 8.61167   1
   3  10  11 -3.1248 2.98666   1
   4  10  11 -3.3511 3.44980   1
  -3 -10  12 -3.2157 2.96043   1
  -2 -11   5 16.8492 9.75403  -2
  -2 -10  12 16.8492 9.75403   1
  -1 -11   5 39.7869 11.8372  -2
  -1 -10  12 39.7869 11.8372   1
   0 -11   5 37.1292 12.6130  -2
   0 -10  12 37.1292 12.6130   1
   1 -11   5 58.3178 14.5994  -2
   1 -10  12 58.3178 14.5994   1
   2 -11   5 39.8950 12.7063  -2
   2 -10  12 39.8950 12.7063   1
  -5  -9  12 -0.2101 3.54989   1
  -4  -9  12 91.4693 8.15843   1
  -3  -9  12 32.4173 5.02388   1
  -2 -10   6 7.97765 8.87754  -2
  -2  -9  12 7.97765 8.87754   1
  -1 -10   6 44.1267 12.6199  -2
  -1  -9  12 44.1267 12.6199   1
   0 -10   6 104.938 19.6809  -2
   0  -9  12 104.938 19.6809   1
   1  -9  12 -0.0146 4.59963   1
   2 -10   5 13.5286 11.6430  -2
   2  -9  12 13.5286 11.6430   1
   3 -10   5 -3.0908 6.87969  -2
   3  -9  12 -3.0908 6.87969   1
   4 -10   5 -5.2055 6.10505  -2
   4  -9  12 -5.2055 6.10505   1
  -6  -8  12 12.5421 4.62371   1
  -5  -8  12 -0.4438 3.00749   1
  -4  -8  12 1.67099 2.88875   1
  -3  -8  12 2.42407 2.13669   1
  -2  -8  12 -1.0724 1.93879   1
  -1  -8  12 7.84171 2.53773   1
   0  -9   6 54.2427 7.86516  -2
   0  -8  12 54.2427 7.86516   1
   1  -9   6 22.4870 4.18248  -2
   1  -8  12 22.4870 4.18248   1
   2  -9   6 28.7436 5.55937  -2
   2  -8  12 28.7436 5.55937   1
   3  -9   6 33.5220 5.24374  -2
   3  -8  12 33.5220 5.24374   1
   4  -9   6 2.04683 3.53099  -2
   4  -8  12 2.04683 3.53099   1
   5  -9   6 -7.8074 4.25091  -2
   5  -8  12 -7.8074 4.25091   1
  -7  -7  12 5.45146 4.30251   1
  -6  -7  12 17.3520 5.26059   1
  -5  -7  12 12.7626 3.52693   1
  -4  -7  12 24.8755 2.98474   1
  -3  -7  12 196.393 10.8202   1
  -2  -7  12 0.97669 1.75961   1
  -1  -7  12 19.9591 2.57442   1
   0  -7  12 -0.8619 1.85927   1
   1  -8   7 86.2252 14.8808  -2
   1  -7  12 86.2252 14.8808   1
   2  -8   7 11.8624 6.85877  -2
   2  -7  12 11.8624 6.85877   1
   3  -8   7 39.0823 5.66270  -2
   3  -7  12 39.0823 5.66270   1
   4  -8   7 46.4156 6.50726  -2
   4  -7  12 46.4156 6.50726   1
   5  -8   7 32.8349 9.21664  -2
   5  -7  12 32.8349 9.21664   1
   6  -8   7 18.5391 14.0986  -2
   6  -7  12 18.5391 14.0986   1
  -7  -6  12 23.9790 5.94281   1
  -6  -6  12 7.28022 4.01333   1
  -5  -6  12 9.36931 2.69388   1
  -4  -6  12 3.24663 1.76406   1
  -3  -6  12 34.2884 3.37543   1
  -2  -6  12 20.0107 2.64948   1
  -1  -6  12 8.48863 2.02924   1
   0  -6  12 1.34267 2.09619   1
   1  -6  12 10.0796 2.17231   1
   2  -6  12 0.26411 1.85756   1
   3  -7   8 11.4601 6.45705  -2
   3  -6  12 11.4601 6.45705   1
   4  -7   7 21.9086 6.75834  -2
   4  -6  12 21.9086 6.75834   1
   4  -7   8 2.66627 7.29936  -2
   4  -6  12 2.66627 7.29936   1
   5  -7   7 36.1852 5.47801  -2
   5  -6  12 36.1852 5.47801   1
   6  -7   7 174.852 13.7159  -2
   6  -6  12 174.852 13.7159   1
   7  -7   7 37.5072 6.12164  -2
   7  -6  12 37.5072 6.12164   1
  -8  -7   8 27.4957 8.63918  -2
  -8  -5  12 27.4957 8.63918   1
  -7  -7   8 -0.9688 11.0787  -2
  -7  -5  12 -0.9688 11.0787   1
  -6  -5  12 32.0839 6.01877   1
  -5  -5  12 1.73804 1.86926   1
  -4  -5  12 8.47546 1.77883   1
  -3  -5  12 26.0892 2.95131   1
  -2  -5  12 57.9538 4.41400   1
  -1  -5  12 -3.0092 1.64631   1
   0  -5  12 52.4481 4.49179   1
   1  -5  12 20.2700 2.44728   1
   2  -5  12 38.1818 3.61677   1
   3  -6   8 6.29586 3.82841  -2
   3  -5  12 6.29586 3.82841   1
   4  -6   8 70.8794 6.27472  -2
   4  -5  12 70.8794 6.27472   1
   5  -6   8 10.2267 3.36021  -2
   5  -5  12 10.2267 3.36021   1
   6  -6   8 27.4245 4.18740  -2
   6  -5  12 27.4245 4.18740   1
   7  -6   8 16.3353 4.16375  -2
   7  -5  12 16.3353 4.16375   1
   8  -6   8 9.75358 4.83093  -2
   8  -5  12 9.75358 4.83093   1
  -8  -6   9 20.9919 13.3399  -2
  -8  -4  12 20.9919 13.3399   1
  -7  -6   9 -4.9027 10.5176  -2
  -7  -4  12 -4.9027 10.5176   1
  -6  -4  12 0.84916 3.67146   1
  -5  -4  12 4.00994 1.96943   1
  -4  -4  12 53.5836 4.62539   1
  -3  -4  12 147.030 8.11788   1
  -2  -4  12 22.3517 2.47714   1
  -1  -4  12 14.5592 1.88932   1
   0  -4  12 33.9128 2.94311   1
   1  -4  12 5.40666 1.50523   1
   2  -4  12 4.95327 1.70917   1
   3  -4  12 177.972 10.4279   1
   4  -5   9 24.7150 7.63964  -2
   4  -4  12 24.7150 7.63964   1
   5  -5   9 151.347 15.4925  -2
   5  -4  12 151.347 15.4925   1
   6  -5   8 118.468 20.0040  -2
   6  -4  12 118.468 20.0040   1
   6  -5   9 30.2557 5.05204  -2
   6  -4  12 30.2557 5.05204   1
   7  -5   9 83.7295 7.85008  -2
   7  -4  12 83.7295 7.85008   1
   8  -5   9 7.89284 5.75540  -2
   8  -4  12 7.89284 5.75540   1
  -8  -5   9 53.1773 16.7749  -2
  -8  -3  12 53.1773 16.7749   1
  -7  -5   9 65.2505 16.4067  -2
  -7  -3  12 65.2505 16.4067   1
  -6  -5   9 11.8909 10.8785  -2
  -6  -3  12 11.8909 10.8785   1
  -5  -5   9 47.3793 13.0027  -2
  -5  -3  12 47.3793 13.0027   1
  -4  -3  12 0.43623 1.43504   1
  -3  -3  12 53.3288 4.09305   1
  -2  -3  12 5.25706 1.55059   1
  -1  -3  12 180.850 10.1307   1
   0  -3  12 11.5010 1.53273   1
   1  -3  12 0.17915 0.92125   1
   2  -3  12 1.51573 1.22592   1
   3  -3  12 14.9866 1.91785   1
   4  -3  12 10.7568 1.88040   1
   5  -4   9 47.5504 9.47501  -2
   5  -3  12 47.5504 9.47501   1
   6  -4  10 182.287 25.3146  -2
   6  -3  12 182.287 25.3146   1
   6  -4   9 105.721 16.8325  -2
   6  -3  12 105.721 16.8325   1
   7  -4  10 8.52704 7.07969  -2
   7  -3  12 8.52704 7.07969   1
   7  -4   9 5.30083 6.86782  -2
   7  -3  12 5.30083 6.86782   1
   8  -4   9 14.3422 13.5938  -2
   8  -3  12 14.3422 13.5938   1
   8  -4  10 13.7450 8.41022  -2
   8  -3  12 13.7450 8.41022   1
   9  -3  12 5.74661 3.99714   1
  -8  -4  10 25.8569 8.13379  -2
  -8  -2  12 25.8569 8.13379   1
  -7  -4  10 92.9063 12.3698  -2
  -7  -2  12 92.9063 12.3698   1
  -6  -4  10 38.1958 7.56553  -2
  -6  -2  12 38.1958 7.56553   1
  -5  -4  10 -0.7231 4.69319  -2
  -5  -2  12 -0.7231 4.69319   1
  -4  -4  10 17.0686 9.58752  -2
  -4  -2  12 17.0686 9.58752   1
  -3  -4  10 21.4969 9.18724  -2
  -3  -2  12 21.4969 9.18724   1
  -2  -2  12 79.2966 4.91082   1
  -1  -2  12 105.811 5.85294   1
   0  -2  12 7.89063 1.01102   1
   1  -2  12 34.2147 1.96187   1
   2  -2  12 -0.0059 0.89725   1
   3  -2  12 5.64977 1.39778   1
   4  -2  12 -0.9258 1.30945   1
   5  -2  12 2.33819 1.73516   1
   6  -2  12 46.8205 4.31164   1
   7  -3  10 4.20760 4.18753  -2
   7  -2  12 4.20760 4.18753   1
   8  -3  10 52.1644 6.42611  -2
   8  -2  12 52.1644 6.42611   1
   9  -3  10 50.8478 7.89462  -2
   9  -2  12 50.8478 7.89462   1
  -8  -3  11 35.5471 10.9031  -2
  -8  -1  12 35.5471 10.9031   1
  -7  -3  11 15.1829 5.23419  -2
  -7  -1  12 15.1829 5.23419   1
  -6  -3  11 210.789 33.6920  -2
  -6  -1  12 210.789 33.6920   1
  -5  -3  11 5.61431 9.33962  -2
  -5  -1  12 5.61431 9.33962   1
  -4  -3  11 7.32147 8.61310  -2
  -4  -1  12 7.32147 8.61310   1
  -3  -1  12 75.7914 4.25391   1
  -2  -1  12 18.1176 1.69007   1
  -1  -1  12 45.8016 2.48390   1
   0  -1  12 -0.8283 0.61863   1
   1  -1  12 2.43136 1.08865   1
   2  -1  12 173.973 8.34484   1
   3  -1  12 27.9203 2.59355   1
   4  -1  12 39.4036 2.85359   1
   5  -1  12 1.71813 1.76880   1
   6  -1  12 135.849 7.87846   1
   7  -2  11 69.9370 8.90371  -2
   7  -1  12 69.9370 8.90371   1
   8  -2  11 124.085 14.1782  -2
   8  -1  12 124.085 14.1782   1
   9  -2  11 165.613 18.0048  -2
   9  -1  12 165.613 18.0048   1
  -8  -2  12 12.3536 6.55351  -2
  -8   0  12 12.3536 6.55351   1
  -7  -2  12 25.8040 6.53490  -2
  -7   0  12 25.8040 6.53490   1
  -6  -2  12 154.830 24.1447  -2
  -6   0  12 154.830 24.1447   1
  -5   0  12 124.521 9.93920   1
  -4   0  12 1.10740 1.03144   1
  -3   0  12 76.4029 4.15647   1
  -2   0  12 26.7908 1.80303   1
  -1   0  12 9.84067 1.32501   1
   0   0  12 1.61735 0.70930   1
   1   0  12 10.9657 1.41479   1
   2   0  12 5.61143 1.17667   1
   3   0  12 194.958 9.84121   1
   4   0  12 63.7340 4.65729   1
   5   0  12 400.836 19.3920   1
   6   0  12 -3.0522 1.87475   1
   7  -1  11 84.4142 14.8436  -2
   7   0  12 84.4142 14.8436   1
   8   0  12 -2.1055 2.04762   1
   9   0  12 58.5545 6.68969   1
  -8  -1  12 2.97769 7.30857  -2
  -8   1  12 2.97769 7.30857   1
  -8  -1  12 -13.099 12.4733  -2
  -8  -1  13 -13.099 12.4733  -2
  -8   1  12 -13.099 12.4733   1
  -7  -1  12 21.4161 6.77760  -2
  -7   1  12 21.4161 6.77760   1
  -6  -1  12 27.4287 11.2812  -2
  -6   1  12 27.4287 11.2812   1
  -5  -1  12 95.3206 11.3640  -2
  -5   1  12 95.3206 11.3640   1
  -4  -1  12 106.946 10.9404  -2
  -4   1  12 106.946 10.9404   1
  -3  -1  12 102.723 17.4468  -2
  -3   1  12 102.723 17.4468   1
  -2  -1  12 3.58659 5.62583  -2
  -2   1  12 3.58659 5.62583   1
  -1   1  12 269.501 11.6964   1
   0   1  12 33.1252 2.16115   1
   1   1  12 179.067 7.93193   1
   2   1  12 60.2566 3.46263   1
   3   1  12 4.77184 1.16755   1
   4   1  12 62.0975 3.66282   1
   5   1  12 22.9715 2.55697   1
   6   1  12 253.690 14.2308   1
   7   1  12 -1.2492 1.93053   1
   8   1  12 38.9222 4.29083   1
   9   0  12 9.74652 9.41805  -2
   9   1  12 9.74652 9.41805   1
  -8   0  13 10.6191 6.47639  -2
  -8   2  12 10.6191 6.47639   1
  -7   0  13 7.06549 5.56218  -2
  -7   2  12 7.06549 5.56218   1
  -6   0  13 38.9079 7.04338  -2
  -6   2  12 38.9079 7.04338   1
  -5   0  13 16.1422 4.93818  -2
  -5   2  12 16.1422 4.93818   1
  -4   0  13 222.920 16.9084  -2
  -4   2  12 222.920 16.9084   1
  -3   0  13 -1.0123 5.78779  -2
  -3   2  12 -1.0123 5.78779   1
  -2   0  13 384.505 33.0191  -2
  -2   2  12 384.505 33.0191   1
  -1   0  13 12.3406 2.97608  -2
  -1   2  12 12.3406 2.97608   1
   0   2  12 20.1428 1.35323   1
   1   2  12 28.5926 1.94080   1
   2   2  12 154.552 6.98396   1
   3   2  12 53.1348 3.14590   1
   4   2  12 12.8905 1.93535   1
   5   2  12 84.2000 5.82072   1
   6   2  12 7.16777 2.25811   1
   7   2  12 123.712 7.79117   1
   8   2  12 21.3110 3.37401   1
   9   2  12 73.6616 7.24770   1
  -8   3  12 45.9113 8.40242   1
  -7   1  14 25.8797 7.38239  -2
  -7   3  12 25.8797 7.38239   1
  -6   1  14 45.0307 8.05322  -2
  -6   3  12 45.0307 8.05322   1
  -5   1  14 25.5018 6.06008  -2
  -5   3  12 25.5018 6.06008   1
  -4   1  14 117.777 13.1474  -2
  -4   3  12 117.777 13.1474   1
  -3   3  12 116.227 8.72746   1
  -2   1  14 20.7952 5.50312  -2
  -2   3  12 20.7952 5.50312   1
  -1   3  12 23.4064 2.23748   1
   0   3  12 8.20959 1.20452   1
   1   3  12 33.7438 2.18951   1
   2   3  12 15.6840 1.61931   1
   3   3  12 208.107 9.11364   1
   4   3  12 -0.7008 1.31782   1
   5   3  12 14.5788 2.55454   1
   6   3  12 12.1075 2.44739   1
   7   3  12 2.29893 2.15471   1
   8   3  12 8.07473 2.61201   1
   9   3  12 41.4255 5.93691   1
  -7   2  15 1.36442 11.6912  -2
  -7   4  12 1.36442 11.6912   1
  -6   2  15 -22.339 9.73717  -2
  -6   4  12 -22.339 9.73717   1
  -5   4  12 7.03277 3.46761   1
  -4   2  14 1.34306 5.14072  -2
  -4   4  12 1.34306 5.14072   1
  -3   4  12 92.2726 7.10934   1
  -2   4  12 15.2668 2.39460   1
  -1   4  12 2.36765 1.84058   1
   0   2  14 27.7851 7.23400  -2
   0   4  12 27.7851 7.23400   1
   1   2  14 46.2602 9.32081  -2
   1   4  12 46.2602 9.32081   1
   2   4  12 15.6940 1.66369   1
   3   4  12 14.4486 2.13088   1
   4   4  12 3.85598 1.65812   1
   5   4  12 6.42105 1.86434   1
   6   4  12 1.35050 1.87296   1
   7   4  12 -2.1941 1.97269   1
   8   4  12 -0.4760 2.43686   1
   9   4  12 9.32927 3.53986   1
  -7   3  15 3.10697 8.01562  -2
  -7   5  12 3.10697 8.01562   1
  -6   3  15 4.72837 7.92429  -2
  -6   5  12 4.72837 7.92429   1
  -5   3  15 3.48460 4.50366  -2
  -5   5  12 3.48460 4.50366   1
  -4   3  15 10.4616 4.55328  -2
  -4   5  12 10.4616 4.55328   1
  -3   3  15 46.8756 6.46417  -2
  -3   5  12 46.8756 6.46417   1
  -2   3  15 34.6439 4.07952  -2
  -2   5  12 34.6439 4.07952   1
  -1   3  15 16.6661 3.60172  -2
  -1   5  12 16.6661 3.60172   1
   0   3  15 14.2361 3.90601  -2
   0   5  12 14.2361 3.90601   1
   1   3  15 21.2520 4.53984  -2
   1   5  12 21.2520 4.53984   1
   2   3  15 9.47730 5.96058  -2
   2   5  12 9.47730 5.96058   1
   3   3  15 61.3991 11.4165  -2
   3   5  12 61.3991 11.4165   1
   4   3  15 -0.5700 6.81329  -2
   4   5  12 -0.5700 6.81329   1
   5   5  12 11.5745 2.53728   1
   6   5  12 94.9477 6.08223   1
   7   5  12 2.12379 2.19887   1
   8   5  12 41.1433 4.27292   1
   9   5  12 -0.9688 2.93970   1
  -6   4  16 0.77358 9.21138  -2
  -6   6  12 0.77358 9.21138   1
  -5   4  16 10.0392 9.10879  -2
  -5   6  12 10.0392 9.10879   1
  -4   6  12 0.22081 4.60213   1
  -3   6  12 24.9989 4.91329   1
  -2   4  16 33.3916 8.37797  -2
  -2   6  12 33.3916 8.37797   1
  -1   4  16 22.3028 6.73851  -2
  -1   6  12 22.3028 6.73851   1
   0   4  16 343.992 43.4509  -2
   0   6  12 343.992 43.4509   1
   1   4  16 169.754 23.3615  -2
   1   6  12 169.754 23.3615   1
   2   4  16 381.984 48.1554  -2
   2   6  12 381.984 48.1554   1
   3   6  12 37.2059 4.17251   1
   4   6  12 10.6718 2.59608   1
   5   6  12 -3.2692 2.05254   1
   6   6  12 49.8947 4.53704   1
   7   6  12 26.6657 3.21757   1
   8   6  12 -0.3386 2.44194   1
  -5   7  12 17.8435 5.62109   1
  -4   7  12 17.0973 5.05226   1
  -3   5  16 32.5958 10.7418  -2
  -3   7  12 32.5958 10.7418   1
  -2   5  16 77.9456 10.0734  -2
  -2   7  12 77.9456 10.0734   1
  -1   5  16 10.3739 5.39014  -2
  -1   7  12 10.3739 5.39014   1
   0   5  16 22.0658 6.41147  -2
   0   7  12 22.0658 6.41147   1
   1   7  12 2.36815 2.27663   1
   2   7  12 6.00632 2.39853   1
   3   7  12 7.87573 2.88464   1
   4   7  12 -1.7032 2.78863   1
   5   7  12 41.7250 5.36061   1
   6   7  12 5.61415 3.41395   1
   7   7  12 -0.1364 2.81934   1
   8   7  12 10.5047 4.00068   1
  -4   6  17 5.87221 9.26628  -2
  -4   8  12 5.87221 9.26628   1
  -3   6  17 30.5176 10.4411  -2
  -3   8  12 30.5176 10.4411   1
  -2   6  17 2.60819 5.63687  -2
  -2   8  12 2.60819 5.63687   1
  -1   6  17 39.3835 7.90642  -2
  -1   8  12 39.3835 7.90642   1
   0   6  17 16.2268 4.21341  -2
   0   8  12 16.2268 4.21341   1
   1   6  17 3.46347 4.47345  -2
   1   8  12 3.46347 4.47345   1
   2   6  17 2.69579 3.44704  -2
   2   8  12 2.69579 3.44704   1
   3   6  17 19.2071 6.52065  -2
   3   8  12 19.2071 6.52065   1
   4   6  17 38.0173 7.68636  -2
   4   8  12 38.0173 7.68636   1
   5   6  17 21.8443 7.11936  -2
   5   8  12 21.8443 7.11936   1
   6   6  17 61.6293 10.2005  -2
   6   8  12 61.6293 10.2005   1
   7   6  17 13.4400 11.6328  -2
   7   8  12 13.4400 11.6328   1
  -3   7  18 -4.0738 8.91625  -2
  -3   9  12 -4.0738 8.91625   1
  -2   7  18 31.4467 11.8948  -2
  -2   9  12 31.4467 11.8948   1
  -1   7  17 16.8683 9.73892  -2
  -1   9  12 16.8683 9.73892   1
  -1   7  18 25.8772 7.56173  -2
  -1   9  12 25.8772 7.56173   1
   0   7  18 24.5136 9.73065  -2
   0   9  12 24.5136 9.73065   1
   0   7  17 33.3367 12.0867  -2
   0   9  12 33.3367 12.0867   1
   1   7  18 14.5472 7.97946  -2
   1   9  12 14.5472 7.97946   1
   1   7  17 5.56937 10.2614  -2
   1   9  12 5.56937 10.2614   1
   2   7  18 -2.6534 6.29394  -2
   2   9  12 -2.6534 6.29394   1
   3   7  18 30.2452 9.11460  -2
   3   9  12 30.2452 9.11460   1
   4   7  18 12.4389 8.62911  -2
   4   9  12 12.4389 8.62911   1
   5   7  18 34.6296 8.06362  -2
   5   9  12 34.6296 8.06362   1
   6   7  18 21.3173 9.64002  -2
   6   9  12 21.3173 9.64002   1
  -1  10  12 3.81828 4.66961   1
   0   8  18 1.45192 10.1775  -2
   0  10  12 1.45192 10.1775   1
   1   8  18 -19.211 9.80842  -2
   1  10  12 -19.211 9.80842   1
   2   8  18 13.6774 8.11577  -2
   2  10  12 13.6774 8.11577   1
   3   8  18 -10.709 10.1163  -2
   3  10  12 -10.709 10.1163   1
   4   8  18 -29.138 11.3503  -2
   4  10  12 -29.138 11.3503   1
  -2 -10  13 22.2788 5.21580   1
  -1 -10  13 3.01494 2.96269   1
   0 -10  13 6.48390 3.28430   1
   1 -11   6 32.9758 12.0660  -2
   1 -10  13 32.9758 12.0660   1
  -4  -9  13 15.0682 4.22245   1
  -3  -9  13 35.7730 4.53427   1
  -2  -9  13 18.4708 3.62067   1
  -1  -9  13 27.0906 4.18821   1
   0  -9  13 1.88169 3.00427   1
   1 -10   7 29.3243 11.0735  -2
   1  -9  13 29.3243 11.0735   1
   2 -10   7 32.5918 11.5496  -2
   2  -9  13 32.5918 11.5496   1
   3 -10   7 14.4360 10.5777  -2
   3  -9  13 14.4360 10.5777   1
   4 -10   6 -15.818 9.32175  -2
   4  -9  13 -15.818 9.32175   1
  -5  -8  13 57.0024 6.52634   1
  -4  -8  13 6.65071 2.66212   1
  -3  -8  13 6.97356 2.61536   1
  -2  -8  13 3.51521 2.20325   1
  -1  -8  13 1.85118 2.02314   1
   0  -8  13 -2.9653 2.18278   1
   1  -8  13 11.4566 2.52712   1
   2  -8  13 47.7342 5.55864   1
   3  -9   7 26.1665 11.0566  -2
   3  -8  13 26.1665 11.0566   1
   4  -9   7 8.19411 4.86839  -2
   4  -8  13 8.19411 4.86839   1
   5  -9   7 -9.0417 4.05244  -2
   5  -8  13 -9.0417 4.05244   1
  -6  -7  13 44.0975 7.59566   1
  -5  -7  13 3.45346 3.22268   1
  -4  -7  13 75.6309 5.45197   1
  -3  -7  13 31.1554 3.51925   1
  -2  -7  13 17.4450 2.64661   1
  -1  -7  13 6.55480 2.24276   1
   0  -7  13 9.23302 2.42037   1
   1  -7  13 1.58338 2.67663   1
   2  -7  13 8.07044 3.01653   1
   3  -8   8 23.5054 8.45231  -2
   3  -7  13 23.5054 8.45231   1
   4  -8   8 17.3697 8.43740  -2
   4  -7  13 17.3697 8.43740   1
   5  -8   8 5.19305 5.81099  -2
   5  -7  13 5.19305 5.81099   1
   6  -8   7 -1.9898 10.4963  -2
   6  -7  13 -1.9898 10.4963   1
   6  -8   8 5.58678 6.56598  -2
   6  -7  13 5.58678 6.56598   1
  -7  -8   8 -0.1185 12.5727  -2
  -7  -6  13 -0.1185 12.5727   1
  -6  -8   8 21.2338 12.5727  -2
  -6  -6  13 21.2338 12.5727   1
  -5  -8   8 -5.1787 12.0911  -2
  -5  -6  13 -5.1787 12.0911   1
  -4  -6  13 81.8107 5.65026   1
  -3  -6  13 80.4504 5.60709   1
  -2  -6  13 0.13206 1.96355   1
  -1  -6  13 37.6259 3.64438   1
   0  -6  13 13.1365 2.73275   1
   1  -6  13 21.1236 3.49314   1
   2  -6  13 -1.0718 2.46401   1
   3  -6  13 55.8622 4.90342   1
   4  -6  13 1.39457 2.34724   1
   5  -7   8 65.9846 14.5790  -2
   5  -6  13 65.9846 14.5790   1
   5  -7   9 92.3267 16.0220  -2
   5  -6  13 92.3267 16.0220   1
   6  -7   9 42.3961 11.2035  -2
   6  -6  13 42.3961 11.2035   1
   7  -7   8 112.776 14.8845  -2
   7  -6  13 112.776 14.8845   1
  -7  -7   9 39.4005 9.68985  -2
  -7  -5  13 39.4005 9.68985   1
  -6  -7   9 3.59490 7.10350  -2
  -6  -5  13 3.59490 7.10350   1
  -5  -7   9 -0.6998 6.55462  -2
  -5  -5  13 -0.6998 6.55462   1
  -4  -5  13 15.2337 2.31110   1
  -3  -5  13 4.49413 1.85429   1
  -2  -5  13 13.6456 2.32064   1
  -1  -5  13 41.7389 3.59336   1
   0  -5  13 25.2832 3.21811   1
   1  -5  13 20.9015 2.60015   1
   2  -5  13 4.62001 1.84618   1
   3  -5  13 20.0216 2.90697   1
   4  -5  13 33.9763 3.85421   1
   5  -5  13 30.5928 3.77596   1
   6  -6   9 81.2441 9.06807  -2
   6  -5  13 81.2441 9.06807   1
   7  -6   9 12.9217 4.54574  -2
   7  -5  13 12.9217 4.54574   1
   8  -6   9 16.4280 6.13550  -2
   8  -5  13 16.4280 6.13550   1
  -8  -4  13 1.83119 4.33638   1
  -7  -4  13 2.05761 3.67521   1
  -6  -4  13 11.5798 4.36278   1
  -5  -4  13 0.85776 2.25366   1
  -4  -4  13 4.67303 1.92504   1
  -3  -4  13 21.5120 2.80889   1
  -2  -4  13 5.35242 1.87521   1
  -1  -4  13 233.578 11.8460   1
   0  -4  13 51.7382 3.87225   1
   1  -4  13 -1.4824 1.14584   1
   2  -4  13 1.07582 1.62249   1
   3  -4  13 20.8993 2.85777   1
   4  -4  13 76.4033 5.66391   1
   5  -4  13 7.97376 2.31699   1
   6  -5  10 25.7952 6.31588  -2
   6  -4  13 25.7952 6.31588   1
   7  -5  10 71.1765 9.88784  -2
   7  -4  13 71.1765 9.88784   1
   8  -5  10 66.0878 10.9113  -2
   8  -4  13 66.0878 10.9113   1
  -8  -5  11 11.8723 8.57366  -2
  -8  -3  13 11.8723 8.57366   1
  -7  -3  13 18.9342 5.07459   1
  -6  -5  10 17.9298 11.3321  -2
  -6  -3  13 17.9298 11.3321   1
  -5  -5  10 7.66848 9.14569  -2
  -5  -3  13 7.66848 9.14569   1
  -4  -5  10 200.068 31.3095  -2
  -4  -3  13 200.068 31.3095   1
  -3  -5  10 206.566 31.1615  -2
  -3  -3  13 206.566 31.1615   1
  -2  -5  10 349.528 49.2104  -2
  -2  -3  13 349.528 49.2104   1
  -1  -3  13 59.1944 4.49070   1
   0  -3  13 56.8881 3.59853   1
   1  -3  13 67.7508 3.92169   1
   2  -3  13 4.89604 1.55439   1
   3  -3  13 -1.9493 1.24783   1
   4  -3  13 30.3818 2.87451   1
   5  -3  13 41.9235 3.60138   1
   6  -3  13 33.8162 3.36539   1
   7  -3  13 15.0198 2.94305   1
   8  -3  13 8.88683 3.29059   1
   9  -3  13 -5.5994 3.44272   1
  -8  -4  11 21.8227 7.67650  -2
  -8  -2  13 21.8227 7.67650   1
  -7  -4  11 26.8147 6.09888  -2
  -7  -2  13 26.8147 6.09888   1
  -6  -4  11 13.5028 6.20050  -2
  -6  -2  13 13.5028 6.20050   1
  -5  -4  11 154.855 16.9376  -2
  -5  -2  13 154.855 16.9376   1
  -4  -4  11 -5.2780 5.50683  -2
  -4  -2  13 -5.2780 5.50683   1
  -3  -4  11 262.462 24.4457  -2
  -3  -2  13 262.462 24.4457   1
  -2  -4  11 109.086 18.5930  -2
  -2  -2  13 109.086 18.5930   1
  -1  -4  11 641.593 86.0650  -2
  -1  -2  13 641.593 86.0650   1
   0  -2  13 11.4033 1.31909   1
   1  -2  13 13.7144 1.56587   1
   2  -2  13 34.2448 2.78963   1
   3  -2  13 -0.9942 1.15219   1
   4  -2  13 19.4439 2.24146   1
   5  -2  13 29.7001 2.79551   1
   6  -2  13 1.96552 1.74925   1
   7  -2  13 9.27377 2.55063   1
   8  -2  13 4.77565 2.51297   1
   9  -3  11 18.1352 7.23162  -2
   9  -2  13 18.1352 7.23162   1
  -8  -3  12 9.03996 7.57377  -2
  -8  -1  13 9.03996 7.57377   1
  -7  -3  12 3.29776 6.56046  -2
  -7  -1  13 3.29776 6.56046   1
  -6  -3  12 15.7729 5.45631  -2
  -6  -1  13 15.7729 5.45631   1
  -5  -3  12 22.5273 5.39551  -2
  -5  -1  13 22.5273 5.39551   1
  -4  -3  12 39.3361 7.77825  -2
  -4  -1  13 39.3361 7.77825   1
  -3  -3  12 25.0778 6.69890  -2
  -3  -1  13 25.0778 6.69890   1
  -2  -1  13 46.5597 2.98817   1
  -1  -1  13 177.324 7.75327   1
   0  -1  13 13.8651 1.21048   1
   1  -1  13 44.6672 3.17390   1
   2  -1  13 13.0411 1.81674   1
   3  -1  13 93.8761 5.99786   1
   4  -1  13 630.695 27.8052   1
   5  -1  13 101.902 6.85708   1
   6  -1  13 39.5856 3.60598   1
   7  -1  13 32.8260 3.41199   1
   8  -1  13 148.406 9.79796   1
   9  -1  13 10.5124 3.59973   1
  -8   0  13 2.71477 3.69089   1
  -7  -2  13 19.2149 7.37771  -2
  -7   0  13 19.2149 7.37771   1
  -6  -2  13 90.3373 11.5057  -2
  -6   0  13 90.3373 11.5057   1
  -5  -2  13 63.6916 8.57084  -2
  -5   0  13 63.6916 8.57084   1
  -4   0  13 74.3892 4.69500   1
  -3   0  13 28.9057 2.18336   1
  -2   0  13 4.95135 1.09056   1
  -1  -2  12 44.9701 9.76562  -2
  -1   0  13 44.9701 9.76562   1
   0   0  13 27.4768 1.73889   1
   1   0  13 8.65938 1.36588   1
   2   0  13 120.269 6.12902   1
   3   0  13 0.86213 1.39262   1
   4   0  13 406.717 21.2675   1
   5   0  13 11.4275 2.41185   1
   6   0  13 35.7613 3.84469   1
   7   0  13 0.34700 2.10134   1
   8   0  13 81.0815 5.92436   1
   9   0  13 85.6893 8.04254   1
  -8   1  13 -1.2335 3.00519   1
  -7   1  13 -2.3742 2.77710   1
  -6  -1  13 25.3535 8.29326  -2
  -6   1  13 25.3535 8.29326   1
  -5  -1  13 30.6628 5.48666  -2
  -5   1  13 30.6628 5.48666   1
  -4  -1  13 77.4096 7.93823  -2
  -4   1  13 77.4096 7.93823   1
  -3  -1  13 22.2522 2.52310  -2
  -3   1  13 22.2522 2.52310   1
  -2  -1  13 106.262 7.95735  -2
  -2   1  13 106.262 7.95735   1
  -1  -1  13 141.052 9.08244  -2
  -1   1  13 141.052 9.08244   1
   0  -1  13 31.0424 3.86737  -2
   0   1  13 31.0424 3.86737   1
   1  -1  13 92.2474 9.55051  -2
   1   1  13 92.2474 9.55051   1
   2  -1  13 107.572 16.1198  -2
   2   1  13 107.572 16.1198   1
   3   1  13 262.718 11.9853   1
   4   1  13 19.7433 1.98824   1
   5   1  13 5.86625 1.93428   1
   6   1  13 28.4070 3.40137   1
   7   1  13 -3.8762 1.96041   1
   8   1  13 15.4050 3.04807   1
   9   1  13 56.8823 5.86520   1
  -8   0  14 45.2489 12.3118  -2
  -8   2  13 45.2489 12.3118   1
  -7   0  14 20.9266 8.45401  -2
  -7   2  13 20.9266 8.45401   1
  -6   0  14 20.7227 8.10809  -2
  -6   2  13 20.7227 8.10809   1
  -5   0  14 -0.7914 4.31283  -2
  -5   2  13 -0.7914 4.31283   1
  -4   0  14 26.8814 5.51430  -2
  -4   2  13 26.8814 5.51430   1
  -3   0  14 67.8951 7.64096  -2
  -3   2  13 67.8951 7.64096   1
  -2   0  14 6.41892 2.55890  -2
  -2   2  13 6.41892 2.55890   1
  -1   0  14 26.1639 4.35341  -2
  -1   2  13 26.1639 4.35341   1
   0   0  14 8.50676 3.04995  -2
   0   2  13 8.50676 3.04995   1
   1   0  14 141.000 13.5429  -2
   1   2  13 141.000 13.5429   1
   2   0  14 58.0395 9.66306  -2
   2   2  13 58.0395 9.66306   1
   3   0  14 14.6241 6.64363  -2
   3   2  13 14.6241 6.64363   1
   4   2  13 -0.5138 1.37994   1
   5   2  13 1.96307 1.76489   1
   6   2  13 -1.7921 1.84280   1
   7   2  13 0.72052 2.09935   1
   8   2  13 2.60407 2.51172   1
   9   2  13 6.99609 3.33405   1
  -7   3  13 54.1160 8.91537   1
  -6   3  13 3.45252 3.68525   1
  -5   3  13 43.7600 6.13791   1
  -4   3  13 20.9590 3.33662   1
  -3   1  15 71.6293 12.3282  -2
  -3   3  13 71.6293 12.3282   1
  -2   1  15 183.967 23.6307  -2
  -2   3  13 183.967 23.6307   1
  -1   1  15 103.068 14.1804  -2
  -1   3  13 103.068 14.1804   1
   0   3  13 16.2010 1.62247   1
   1   1  14 116.894 17.0068  -2
   1   3  13 116.894 17.0068   1
   2   1  14 728.686 89.2988  -2
   2   3  13 728.686 89.2988   1
   3   3  13 19.7734 2.00789   1
   4   3  13 21.9853 2.39736   1
   5   3  13 19.1133 2.71073   1
   6   3  13 72.4871 5.53448   1
   7   3  13 1.48186 2.17981   1
   8   3  13 135.866 8.64897   1
   9   3  13 10.0006 3.48490   1
  -7   4  13 5.57180 4.66566   1
  -6   4  13 12.6624 4.98758   1
  -5   4  13 26.5366 4.96156   1
  -4   2  15 68.5298 13.1896  -2
  -4   4  13 68.5298 13.1896   1
  -3   2  15 23.3183 5.09862  -2
  -3   4  13 23.3183 5.09862   1
  -2   2  15 49.4508 6.69327  -2
  -2   4  13 49.4508 6.69327   1
  -1   2  15 22.3988 4.58863  -2
  -1   4  13 22.3988 4.58863   1
   0   2  15 504.060 35.7396  -2
   0   4  13 504.060 35.7396   1
   1   2  15 60.4061 7.27066  -2
   1   4  13 60.4061 7.27066   1
   2   2  15 714.487 61.3843  -2
   2   4  13 714.487 61.3843   1
   3   2  15 126.651 12.7989  -2
   3   4  13 126.651 12.7989   1
   4   2  15 4.22697 4.27873  -2
   4   4  13 4.22697 4.27873   1
   5   2  15 24.3108 8.35933  -2
   5   4  13 24.3108 8.35933   1
   6   2  15 9.83393 5.15112  -2
   6   4  13 9.83393 5.15112   1
   7   2  15 59.7377 12.6988  -2
   7   4  13 59.7377 12.6988   1
   8   4  13 3.76355 2.63546   1
   9   4  13 29.9199 4.47253   1
  -6   3  16 7.65148 8.64130  -2
  -6   5  13 7.65148 8.64130   1
  -5   3  16 -5.4515 7.85051  -2
  -5   5  13 -5.4515 7.85051   1
  -4   3  16 5.46799 4.58742  -2
  -4   5  13 5.46799 4.58742   1
  -3   3  16 60.1702 8.06695  -2
  -3   5  13 60.1702 8.06695   1
  -2   3  16 29.1695 4.16188  -2
  -2   5  13 29.1695 4.16188   1
  -1   3  16 50.9911 5.83937  -2
  -1   5  13 50.9911 5.83937   1
   0   3  16 88.6677 7.09587  -2
   0   5  13 88.6677 7.09587   1
   1   3  16 34.1013 4.17215  -2
   1   5  13 34.1013 4.17215   1
   2   3  16 12.0901 3.64022  -2
   2   5  13 12.0901 3.64022   1
   3   3  16 3.24864 4.13782  -2
   3   5  13 3.24864 4.13782   1
   4   3  16 83.5493 9.64204  -2
   4   5  13 83.5493 9.64204   1
   5   3  16 68.0393 7.06744  -2
   5   5  13 68.0393 7.06744   1
   6   3  16 11.3477 4.17856  -2
   6   5  13 11.3477 4.17856   1
   7   3  16 15.6944 7.77440  -2
   7   5  13 15.6944 7.77440   1
   8   3  16 5.31700 7.80465  -2
   8   5  13 5.31700 7.80465   1
   9   5  13 22.2171 4.36489   1
  -6   4  17 0.32278 9.41140  -2
  -6   6  13 0.32278 9.41140   1
  -5   4  17 -6.9099 8.27116  -2
  -5   6  13 -6.9099 8.27116   1
  -4   4  17 28.6572 9.87393  -2
  -4   6  13 28.6572 9.87393   1
  -3   6  13 14.2892 3.17764   1
  -2   4  16 18.7255 8.48091  -2
  -2   6  13 18.7255 8.48091   1
  -1   4  16 162.248 24.8513  -2
  -1   6  13 162.248 24.8513   1
   0   4  16 258.326 36.7903  -2
   0   6  13 258.326 36.7903   1
   1   4  16 32.3245 11.0677  -2
   1   6  13 32.3245 11.0677   1
   2   6  13 0.58328 2.06550   1
   3   4  16 13.2610 7.10591  -2
   3   6  13 13.2610 7.10591   1
   4   4  16 24.7014 7.95553  -2
   4   6  13 24.7014 7.95553   1
   4   4  17 10.2412 7.18039  -2
   4   6  13 10.2412 7.18039   1
   5   4  17 61.7965 13.1766  -2
   5   6  13 61.7965 13.1766   1
   5   4  16 47.7692 11.1663  -2
   5   6  13 47.7692 11.1663   1
   6   4  17 69.8294 12.6740  -2
   6   6  13 69.8294 12.6740   1
   7   4  17 6.20274 7.07331  -2
   7   6  13 6.20274 7.07331   1
   8   4  17 -13.375 7.47832  -2
   8   6  13 -13.375 7.47832   1
  -5   7  13 4.39033 4.59103   1
  -4   7  13 8.13706 4.68261   1
  -3   7  13 -0.5270 2.98526   1
  -2   5  17 -0.8573 8.66470  -2
  -2   7  13 -0.8573 8.66470   1
  -1   5  17 39.4142 7.88768  -2
  -1   7  13 39.4142 7.88768   1
   0   5  17 76.5959 10.7162  -2
   0   7  13 76.5959 10.7162   1
   1   5  17 0.10073 5.43315  -2
   1   7  13 0.10073 5.43315   1
   2   5  17 -3.7096 7.94343  -2
   2   7  13 -3.7096 7.94343   1
   3   5  17 37.2488 7.73114  -2
   3   7  13 37.2488 7.73114   1
   4   5  17 31.9301 10.5582  -2
   4   7  13 31.9301 10.5582   1
   5   5  17 2.18679 6.00871  -2
   5   7  13 2.18679 6.00871   1
   6   5  17 63.7018 13.7302  -2
   6   7  13 63.7018 13.7302   1
   7   5  17 6.48888 9.22156  -2
   7   7  13 6.48888 9.22156   1
  -4   6  18 31.2950 12.2889  -2
  -4   8  13 31.2950 12.2889   1
  -3   6  18 1.79603 9.35647  -2
  -3   8  13 1.79603 9.35647   1
  -2   6  18 -0.1203 7.73314  -2
  -2   8  13 -0.1203 7.73314   1
  -1   6  18 0.56889 7.97887  -2
  -1   8  13 0.56889 7.97887   1
   0   6  18 5.01385 7.46333  -2
   0   8  13 5.01385 7.46333   1
   1   6  18 9.31689 7.79988  -2
   1   8  13 9.31689 7.79988   1
   2   6  18 25.9548 6.42853  -2
   2   8  13 25.9548 6.42853   1
   3   6  18 2.90794 5.68739  -2
   3   8  13 2.90794 5.68739   1
   4   6  18 -4.4232 5.09402  -2
   4   8  13 -4.4232 5.09402   1
   5   6  18 9.32533 6.10671  -2
   5   8  13 9.32533 6.10671   1
   6   6  18 2.84796 5.07497  -2
   6   8  13 2.84796 5.07497   1
   7   8  13 4.02874 4.89005   1
  -2   9  13 8.13722 4.65393   1
  -1   9  13 6.80363 3.85832   1
   0   7  18 31.8764 13.5622  -2
   0   9  13 31.8764 13.5622   1
   1   7  18 80.3772 18.1050  -2
   1   9  13 80.3772 18.1050   1
   2   7  18 3.65447 9.84077  -2
   2   9  13 3.65447 9.84077   1
   3   7  18 93.1573 19.8566  -2
   3   9  13 93.1573 19.8566   1
   4   7  18 13.3178 12.2553  -2
   4   9  13 13.3178 12.2553   1
   5   9  13 12.2854 3.99600   1
   0  10  13 0.76086 3.75066   1
   1  10  13 6.29938 3.57765   1
   2  10  13 1.88605 3.45088   1
   3  10  13 -1.9646 3.24924   1
  -4  -9  14 8.28919 4.55395   1
  -3  -9  14 1.99175 2.80764   1
  -2  -9  14 41.4602 5.12305   1
  -1  -9  14 -4.1240 2.64185   1
   0  -9  14 20.4866 3.82157   1
   1  -9  14 -1.4671 2.82220   1
   2  -9  14 0.08052 3.23824   1
   3 -10   8 23.5574 11.3414  -2
   3  -9  14 23.5574 11.3414   1
  -5  -8  14 42.8016 6.50781   1
  -4  -8  14 6.86825 2.75518   1
  -3  -8  14 0.65502 2.14504   1
  -2  -8  14 36.6169 4.08171   1
  -1  -8  14 30.3296 3.77837   1
   0  -8  14 -4.4421 2.13677   1
   1  -8  14 2.39229 2.64087   1
   2  -8  14 1.81841 2.67892   1
   3  -8  14 8.37818 3.54898   1
   4  -8  14 2.69918 3.15549   1
   5  -8  14 0.29642 2.98210   1
  -6  -9   8 13.5417 14.4099  -2
  -6  -7  14 13.5417 14.4099   1
  -5  -9   8 12.5591 13.1265  -2
  -5  -7  14 12.5591 13.1265   1
  -4  -7  14 10.0612 2.72920   1
  -3  -7  14 -2.5079 1.99989   1
  -2  -7  14 6.77065 2.32369   1
  -1  -7  14 0.60622 2.20863   1
   0  -7  14 6.91532 2.48807   1
   1  -7  14 22.0423 3.92752   1
   2  -7  14 -0.2059 2.66250   1
   3  -7  14 -4.5642 2.75462   1
   4  -7  14 -1.5118 2.67482   1
   5  -8   9 11.4003 8.53869  -2
   5  -7  14 11.4003 8.53869   1
   6  -8   9 12.8638 9.17259  -2
   6  -7  14 12.8638 9.17259   1
  -7  -8   9 14.0483 10.1435  -2
  -7  -6  14 14.0483 10.1435   1
  -6  -8   9 2.43198 7.06425  -2
  -6  -6  14 2.43198 7.06425   1
  -5  -8   9 42.0102 14.1347  -2
  -5  -6  14 42.0102 14.1347   1
  -4  -8   9 16.7820 10.5736  -2
  -4  -6  14 16.7820 10.5736   1
  -3  -8   9 23.6808 11.9724  -2
  -3  -6  14 23.6808 11.9724   1
  -2  -6  14 23.6711 2.94524   1
  -1  -6  14 8.79961 2.27825   1
   0  -6  14 11.6573 2.73573   1
   1  -6  14 0.42052 2.46300   1
   2  -6  14 41.7390 5.13940   1
   3  -6  14 10.8901 2.62069   1
   4  -6  14 19.1591 3.00890   1
   5  -6  14 0.57530 2.70769   1
   6  -6  14 12.2615 3.27993   1
   7  -7   9 40.2415 11.8177  -2
   7  -6  14 40.2415 11.8177   1
  -7  -7  10 26.7426 9.59879  -2
  -7  -5  14 26.7426 9.59879   1
  -6  -7  10 11.1852 7.82197  -2
  -6  -5  14 11.1852 7.82197   1
  -5  -7  10 35.9114 8.81939  -2
  -5  -5  14 35.9114 8.81939   1
  -4  -7  10 227.968 23.7297  -2
  -4  -5  14 227.968 23.7297   1
  -3  -7  10 16.7724 7.01329  -2
  -3  -5  14 16.7724 7.01329   1
  -2  -5  14 37.8396 3.47591   1
  -1  -5  14 10.9270 2.26265   1
   0  -5  14 41.7536 4.13284   1
   1  -5  14 27.1834 3.35412   1
   2  -5  14 7.14360 2.12205   1
   3  -5  14 -2.0954 1.95186   1
   4  -5  14 111.976 7.58598   1
   5  -5  14 40.7058 4.73938   1
   6  -5  14 35.0437 4.79317   1
   7  -5  14 4.57332 3.03292   1
  -7  -6  11 27.4702 9.29450  -2
  -7  -4  14 27.4702 9.29450   1
  -6  -6  11 12.5512 8.02364  -2
  -6  -4  14 12.5512 8.02364   1
  -5  -6  11 16.8248 8.40580  -2
  -5  -4  14 16.8248 8.40580   1
  -4  -4  14 13.1653 2.56913   1
  -3  -6  10 0.15342 9.57189  -2
  -3  -4  14 0.15342 9.57189   1
  -2  -6  10 59.6514 14.3933  -2
  -2  -4  14 59.6514 14.3933   1
  -1  -4  14 183.744 10.7301   1
   0  -4  14 78.3824 5.72816   1
   1  -4  14 -2.1968 1.05937   1
   2  -4  14 2.43912 1.65454   1
   3  -4  14 -0.9597 1.73481   1
   4  -4  14 2.05084 1.99996   1
   5  -4  14 100.675 7.25841   1
   6  -4  14 43.8757 5.05809   1
   7  -4  14 -0.7754 2.64920   1
   8  -5  11 4.30343 8.91663  -2
   8  -4  14 4.30343 8.91663   1
  -8  -5  12 5.75707 8.79708  -2
  -8  -3  14 5.75707 8.79708   1
  -7  -3  14 7.95530 4.23684   1
  -6  -3  14 -0.7371 3.82716   1
  -5  -3  14 59.0947 5.62412   1
  -4  -5  11 95.2364 11.9683  -2
  -4  -3  14 95.2364 11.9683   1
  -3  -5  11 36.7098 10.5750  -2
  -3  -3  14 36.7098 10.5750   1
  -2  -5  11 25.9184 9.00102  -2
  -2  -3  14 25.9184 9.00102   1
  -1  -5  11 294.918 42.2582  -2
  -1  -3  14 294.918 42.2582   1
   0  -5  11 24.9792 9.43765  -2
   0  -3  14 24.9792 9.43765   1
   1  -5  11 110.461 18.5763  -2
   1  -3  14 110.461 18.5763   1
   2  -3  14 21.1635 2.13838   1
   3  -3  14 29.6586 2.76051   1
   4  -3  14 -0.3283 1.73953   1
   5  -3  14 0.25899 1.71101   1
   6  -3  14 6.76988 2.34098   1
   7  -3  14 -0.1397 2.33791   1
   8  -3  14 10.3243 3.59628   1
  -8  -4  12 3.96999 7.18811  -2
  -8  -2  14 3.96999 7.18811   1
  -7  -4  12 -0.5579 6.07425  -2
  -7  -2  14 -0.5579 6.07425   1
  -6  -4  12 65.8505 9.14475  -2
  -6  -2  14 65.8505 9.14475   1
  -5  -4  12 2.87391 4.21452  -2
  -5  -2  14 2.87391 4.21452   1
  -4  -4  12 193.716 12.8394  -2
  -4  -2  14 193.716 12.8394   1
  -3  -4  12 48.4026 4.60103  -2
  -3  -2  14 48.4026 4.60103   1
  -2  -4  12 213.198 12.9906  -2
  -2  -2  14 213.198 12.9906   1
  -1  -4  12 36.6081 6.69133  -2
  -1  -2  14 36.6081 6.69133   1
   0  -4  12 44.2190 7.37563  -2
   0  -2  14 44.2190 7.37563   1
   1  -4  12 27.3190 9.12247  -2
   1  -2  14 27.3190 9.12247   1
   2  -2  14 68.8389 4.92180   1
   3  -2  14 7.52298 1.76372   1
   4  -2  14 345.036 15.9041   1
   5  -2  14 118.059 6.57039   1
   6  -2  14 -5.4053 1.64352   1
   7  -2  14 7.48785 2.32701   1
   8  -2  14 5.02768 2.74505   1
   9  -2  14 19.4404 4.26260   1
  -8  -3  13 -0.1508 7.57441  -2
  -8  -1  14 -0.1508 7.57441   1
  -7  -3  13 -2.2562 7.29653  -2
  -7  -1  14 -2.2562 7.29653   1
  -6  -3  13 4.55701 6.78075  -2
  -6  -1  14 4.55701 6.78075   1
  -5  -3  13 55.4801 11.3077  -2
  -5  -1  14 55.4801 11.3077   1
  -4  -3  13 169.930 24.5930  -2
  -4  -1  14 169.930 24.5930   1
  -3  -3  13 27.1417 4.57360  -2
  -3  -1  14 27.1417 4.57360   1
  -2  -3  13 144.713 9.99802  -2
  -2  -1  14 144.713 9.99802   1
  -1  -3  13 46.7456 8.67442  -2
  -1  -1  14 46.7456 8.67442   1
   0  -1  14 -2.7636 0.67927   1
   1  -1  14 0.39047 1.17662   1
   2  -1  14 1.03028 1.36046   1
   3  -1  14 75.0122 4.92142   1
   4  -1  14 56.7238 4.62884   1
   5  -1  14 2.47611 1.82168   1
   6  -1  14 6.70182 2.05840   1
   7  -1  14 8.14431 2.35332   1
   8  -1  14 11.5535 2.90921   1
   9  -1  14 -1.1736 2.92129   1
  -8   0  14 -1.8023 3.30278   1
  -7   0  14 8.55916 3.93310   1
  -6   0  14 1.61329 2.92784   1
  -5   0  14 11.9956 2.95041   1
  -4   0  14 49.2528 3.40332   1
  -3   0  14 26.1161 2.03695   1
  -2   0  14 11.7770 1.32229   1
  -1   0  14 39.9377 2.44440   1
   0  -2  13 33.1940 3.94029  -2
   0   0  14 33.1940 3.94029   1
   1  -2  13 54.6676 5.71877  -2
   1   0  14 54.6676 5.71877   1
   2  -2  13 93.2634 8.29256  -2
   2   0  14 93.2634 8.29256   1
   3  -2  13 4.65025 3.72029  -2
   3   0  14 4.65025 3.72029   1
   4  -2  13 15.0963 6.45511  -2
   4   0  14 15.0963 6.45511   1
   5  -2  13 299.013 37.9182  -2
   5   0  14 299.013 37.9182   1
   6  -2  13 40.6699 8.66599  -2
   6   0  14 40.6699 8.66599   1
   7  -2  13 126.152 18.7622  -2
   7   0  14 126.152 18.7622   1
   8  -2  13 78.2121 14.8708  -2
   8   0  14 78.2121 14.8708   1
   9   0  14 4.81735 3.00651   1
  -8   1  14 20.4581 5.04920   1
  -7   1  14 64.7146 6.66234   1
  -6   1  14 25.9668 4.08836   1
  -5   1  14 4.56050 2.44928   1
  -4  -1  14 53.8784 6.41332  -2
  -4   1  14 53.8784 6.41332   1
  -3  -1  14 1.98910 2.46426  -2
  -3   1  14 1.98910 2.46426   1
  -2  -1  14 28.0238 1.99998  -2
  -2   1  14 28.0238 1.99998   1
  -1  -1  14 171.804 11.5058  -2
  -1   1  14 171.804 11.5058   1
   0  -1  14 113.150 8.14355  -2
   0   1  14 113.150 8.14355   1
   1  -1  14 250.140 18.7409  -2
   1   1  14 250.140 18.7409   1
   2  -1  14 323.632 24.3092  -2
   2   1  14 323.632 24.3092   1
   3  -1  14 123.988 9.02882  -2
   3   1  14 123.988 9.02882   1
   4  -1  14 27.6604 4.62708  -2
   4   1  14 27.6604 4.62708   1
   5  -1  14 11.5979 4.71525  -2
   5   1  14 11.5979 4.71525   1
   6  -1  14 17.6504 5.03574  -2
   6   1  14 17.6504 5.03574   1
   7  -1  14 2.55528 4.89827  -2
   7   1  14 2.55528 4.89827   1
   8  -1  14 200.418 28.1700  -2
   8   1  14 200.418 28.1700   1
   9   1  14 -2.2249 2.88816   1
  -7   2  14 -0.0709 3.68010   1
  -6   2  14 19.8795 3.48521   1
  -5   2  14 11.0262 2.69370   1
  -4   0  15 0.11018 5.68741  -2
  -4   2  14 0.11018 5.68741   1
  -3   0  15 18.1604 6.65474  -2
  -3   2  14 18.1604 6.65474   1
  -2   0  15 47.7258 9.13593  -2
  -2   2  14 47.7258 9.13593   1
  -1   0  15 11.4539 3.04646  -2
  -1   2  14 11.4539 3.04646   1
   0   0  15 24.4164 3.40406  -2
   0   2  14 24.4164 3.40406   1
   1   0  15 9.99685 4.66813  -2
   1   2  14 9.99685 4.66813   1
   2   0  15 271.412 34.0702  -2
   2   2  14 271.412 34.0702   1
   3   2  14 44.1350 3.19751   1
   4   2  14 15.3751 2.37868   1
   5   2  14 2.72861 1.98248   1
   6   2  14 26.3262 3.40036   1
   7   2  14 12.5939 2.78857   1
   8   2  14 -1.7461 2.58943   1
   9   2  14 42.2704 5.58875   1
  -7   3  14 7.97393 4.83858   1
  -6   3  14 1.08038 3.96004   1
  -5   3  14 0.71736 3.31869   1
  -4   3  14 4.71974 2.39140   1
  -3   3  14 98.1351 6.88406   1
  -2   3  14 102.731 5.63970   1
  -1   3  14 19.9921 2.54586   1
   0   1  15 46.4764 11.0702  -2
   0   3  14 46.4764 11.0702   1
   1   3  14 28.1024 2.24135   1
   2   1  15 115.148 17.7568  -2
   2   3  14 115.148 17.7568   1
   3   1  15 128.285 12.7901  -2
   3   3  14 128.285 12.7901   1
   4   1  15 -8.7321 5.70304  -2
   4   3  14 -8.7321 5.70304   1
   5   1  15 58.3803 8.42764  -2
   5   3  14 58.3803 8.42764   1
   6   1  15 28.1554 6.67122  -2
   6   3  14 28.1554 6.67122   1
   7   1  15 59.2711 12.0580  -2
   7   3  14 59.2711 12.0580   1
   8   1  15 16.6241 8.80133  -2
   8   3  14 16.6241 8.80133   1
   9   1  15 22.6375 9.97760  -2
   9   3  14 22.6375 9.97760   1
  -7   4  14 7.46119 5.45983   1
  -6   4  14 4.31151 4.36822   1
  -5   4  14 6.52462 4.03034   1
  -4   4  14 3.87413 1.98238   1
  -3   2  16 35.5750 9.40741  -2
  -3   4  14 35.5750 9.40741   1
  -2   2  16 101.579 11.0994  -2
  -2   4  14 101.579 11.0994   1
  -1   2  16 110.435 12.2734  -2
  -1   4  14 110.435 12.2734   1
   0   2  16 76.1264 9.05747  -2
   0   4  14 76.1264 9.05747   1
   1   2  16 124.530 10.6888  -2
   1   4  14 124.530 10.6888   1
   2   2  16 169.006 10.1859  -2
   2   4  14 169.006 10.1859   1
   3   2  16 17.1641 3.32279  -2
   3   4  14 17.1641 3.32279   1
   4   2  16 28.6626 4.40926  -2
   4   4  14 28.6626 4.40926   1
   5   2  16 -7.1207 3.40997  -2
   5   4  14 -7.1207 3.40997   1
   6   2  16 17.3164 4.61853  -2
   6   4  14 17.3164 4.61853   1
   7   2  16 9.38605 4.63248  -2
   7   4  14 9.38605 4.63248   1
   8   2  16 17.5695 5.39261  -2
   8   4  14 17.5695 5.39261   1
   9   2  16 31.6936 10.6445  -2
   9   4  14 31.6936 10.6445   1
  -6   5  14 13.4379 6.34362   1
  -5   3  17 17.7266 10.2295  -2
  -5   5  14 17.7266 10.2295   1
  -4   3  17 23.9632 9.41558  -2
  -4   5  14 23.9632 9.41558   1
  -3   3  17 2.77507 6.94950  -2
  -3   5  14 2.77507 6.94950   1
  -2   3  17 33.5835 8.59774  -2
  -2   5  14 33.5835 8.59774   1
  -1   3  17 10.2448 5.91139  -2
  -1   5  14 10.2448 5.91139   1
   0   3  17 31.5173 7.61477  -2
   0   5  14 31.5173 7.61477   1
   1   3  17 68.1292 8.27512  -2
   1   5  14 68.1292 8.27512   1
   2   3  17 43.0359 6.51342  -2
   2   5  14 43.0359 6.51342   1
   3   3  17 34.3828 4.86136  -2
   3   5  14 34.3828 4.86136   1
   4   3  17 15.8703 3.96541  -2
   4   5  14 15.8703 3.96541   1
   5   3  17 -1.2319 4.63970  -2
   5   5  14 -1.2319 4.63970   1
   5   3  16 16.8806 7.62051  -2
   5   5  14 16.8806 7.62051   1
   6   3  17 12.6971 5.36149  -2
   6   5  14 12.6971 5.36149   1
   6   3  16 -1.6873 6.66451  -2
   6   5  14 -1.6873 6.66451   1
   7   3  17 -3.7622 4.77672  -2
   7   5  14 -3.7622 4.77672   1
   8   3  17 14.2450 6.00879  -2
   8   5  14 14.2450 6.00879   1
  -5   6  14 7.60267 4.65936   1
  -4   6  14 15.6870 5.18991   1
  -3   6  14 3.30159 3.05487   1
  -2   6  14 29.6084 4.38732   1
  -1   4  17 11.6514 8.53082  -2
  -1   6  14 11.6514 8.53082   1
   0   4  17 -3.3937 7.07969  -2
   0   6  14 -3.3937 7.07969   1
   1   4  17 25.8078 10.3685  -2
   1   6  14 25.8078 10.3685   1
   2   4  17 9.14591 9.05131  -2
   2   6  14 9.14591 9.05131   1
   3   4  17 56.9426 14.1573  -2
   3   6  14 56.9426 14.1573   1
   4   4  17 132.536 15.6715  -2
   4   6  14 132.536 15.6715   1
   5   4  17 60.4544 12.8117  -2
   5   6  14 60.4544 12.8117   1
   6   4  17 12.3591 8.82946  -2
   6   6  14 12.3591 8.82946   1
   7   4  17 3.43570 7.80867  -2
   7   6  14 3.43570 7.80867   1
   8   4  17 4.23320 8.36327  -2
   8   6  14 4.23320 8.36327   1
  -5   7  14 1.53138 4.89761   1
  -4   7  14 2.17707 3.70207   1
  -3   7  14 8.20908 3.23400   1
  -2   7  14 56.9814 6.40604   1
  -1   7  14 124.003 10.1020   1
   0   5  18 6.92994 9.01050  -2
   0   7  14 6.92994 9.01050   1
   1   5  18 21.0558 11.1376  -2
   1   7  14 21.0558 11.1376   1
   2   5  18 3.64572 5.84770  -2
   2   7  14 3.64572 5.84770   1
   3   5  18 6.76889 6.53543  -2
   3   7  14 6.76889 6.53543   1
   4   5  18 35.7293 8.25576  -2
   4   7  14 35.7293 8.25576   1
   5   5  18 168.674 18.3891  -2
   5   7  14 168.674 18.3891   1
   6   5  18 35.9863 9.48184  -2
   6   7  14 35.9863 9.48184   1
   7   5  18 -3.7825 9.64852  -2
   7   7  14 -3.7825 9.64852   1
  -4   8  14 -4.6982 6.23748   1
  -3   8  14 12.2865 4.72733   1
  -2   8  14 14.4710 3.97673   1
  -1   8  14 30.1298 5.15092   1
   0   8  14 28.4059 4.08310   1
   1   8  14 35.7236 4.53830   1
   2   8  14 3.94408 3.07119   1
   3   8  14 0.22819 2.63263   1
   4   6  19 -5.1358 8.97390  -2
   4   8  14 -5.1358 8.97390   1
   4   6  18 -5.6754 10.2163  -2
   4   8  14 -5.6754 10.2163   1
   5   6  19 21.1425 7.38418  -2
   5   8  14 21.1425 7.38418   1
   5   6  18 44.9307 16.2892  -2
   5   8  14 44.9307 16.2892   1
   6   6  19 2.97531 9.47555  -2
   6   8  14 2.97531 9.47555   1
  -2   9  14 2.43060 4.37211   1
  -1   9  14 -3.3033 3.35674   1
   0   9  14 8.10778 4.09547   1
   1   9  14 -0.2010 3.02320   1
   2   9  14 27.3549 4.55103   1
   3   9  14 5.19472 3.60501   1
   4   7  19 10.9300 11.9346  -2
   4   9  14 10.9300 11.9346   1
   5   7  19 9.71572 14.0354  -2
   5   9  14 9.71572 14.0354   1
   2  10  14 -2.0172 6.90512   1
  -3  -9  15 1.92521 2.75539   1
  -2  -9  15 -0.0559 2.69826   1
  -1  -9  15 -9.3713 2.57458   1
   0  -9  15 27.9659 4.52279   1
   1  -9  15 9.76074 3.57668   1
   2  -9  15 -3.4209 2.85168   1
  -4 -10   9 37.4560 15.4206  -2
  -4  -8  15 37.4560 15.4206   1
  -3  -8  15 44.2185 4.33726   1
  -2  -8  15 30.2643 3.73067   1
  -1  -8  15 -2.8359 2.19973   1
   0  -8  15 -1.4753 2.14529   1
   1  -8  15 -5.0078 2.11967   1
   2  -8  15 14.0901 3.77924   1
   3  -8  15 2.70197 2.89654   1
   4  -8  15 27.1865 5.18412   1
  -5  -9   9 -2.0116 12.3390  -2
  -5  -7  15 -2.0116 12.3390   1
  -4  -9   9 47.3558 15.0348  -2
  -4  -7  15 47.3558 15.0348   1
  -3  -9   9 -0.9553 12.6883  -2
  -3  -7  15 -0.9553 12.6883   1
  -2  -9   9 64.8291 11.5648  -2
  -2  -7  15 64.8291 11.5648   1
  -1  -9   9 38.4680 14.7888  -2
  -1  -7  15 38.4680 14.7888   1
   0  -7  15 17.1942 2.98358   1
   1  -7  15 3.88076 2.73779   1
   2  -7  15 -0.4272 2.88553   1
   3  -7  15 -0.4536 3.09117   1
   4  -7  15 28.5262 5.27742   1
   5  -7  15 14.5325 4.30965   1
  -6  -8  10 9.25157 7.77395  -2
  -6  -6  15 9.25157 7.77395   1
  -5  -8  10 5.41054 7.15618  -2
  -5  -6  15 5.41054 7.15618   1
  -4  -8  10 19.7537 7.68512  -2
  -4  -6  15 19.7537 7.68512   1
  -3  -8  10 15.4613 7.36743  -2
  -3  -6  15 15.4613 7.36743   1
  -2  -8  10 37.5431 8.94639  -2
  -2  -6  15 37.5431 8.94639   1
  -1  -8  10 68.7136 10.4112  -2
  -1  -6  15 68.7136 10.4112   1
   0  -8  10 17.4651 9.49719  -2
   0  -6  15 17.4651 9.49719   1
   1  -6  15 1.57826 2.50624   1
   2  -6  15 10.6187 3.26233   1
   3  -6  15 3.21330 2.93256   1
   4  -6  15 -3.5284 2.79189   1
   5  -6  15 8.48878 3.19110   1
   6  -6  15 4.99230 3.42678   1
  -7  -7  11 2.34808 7.20598  -2
  -7  -5  15 2.34808 7.20598   1
  -6  -7  11 17.5275 7.88161  -2
  -6  -5  15 17.5275 7.88161   1
  -5  -7  11 42.0415 11.0244  -2
  -5  -5  15 42.0415 11.0244   1
  -4  -7  11 46.1026 6.17629  -2
  -4  -5  15 46.1026 6.17629   1
  -3  -7  11 29.5545 5.19704  -2
  -3  -5  15 29.5545 5.19704   1
  -2  -7  11 19.2891 6.74013  -2
  -2  -5  15 19.2891 6.74013   1
  -1  -7  11 -5.5718 4.43335  -2
  -1  -5  15 -5.5718 4.43335   1
   0  -5  15 30.5148 3.61824   1
   1  -5  15 47.0102 4.45089   1
   2  -5  15 33.2857 4.20920   1
   3  -5  15 54.1324 4.66982   1
   4  -5  15 11.2559 2.95059   1
   5  -5  15 15.8818 3.25041   1
   6  -5  15 21.1150 3.90891   1
   7  -5  15 0.51470 2.86983   1
  -7  -6  12 -0.5585 6.74727  -2
  -7  -4  15 -0.5585 6.74727   1
  -6  -6  12 -0.5816 6.86553  -2
  -6  -4  15 -0.5816 6.86553   1
  -5  -6  12 20.8299 8.07596  -2
  -5  -4  15 20.8299 8.07596   1
  -4  -6  12 46.2360 7.10723  -2
  -4  -4  15 46.2360 7.10723   1
  -3  -6  12 4.85952 6.27863  -2
  -3  -4  15 4.85952 6.27863   1
  -2  -4  15 35.4465 3.51917   1
  -1  -6  11 2.57405 8.22069  -2
  -1  -4  15 2.57405 8.22069   1
   0  -6  11 49.1391 7.23407  -2
   0  -4  15 49.1391 7.23407   1
   1  -6  11 21.5707 9.59726  -2
   1  -4  15 21.5707 9.59726   1
   2  -4  15 3.30983 1.69970   1
   3  -4  15 0.66648 1.95270   1
   4  -4  15 51.2364 4.95184   1
   5  -4  15 19.1537 3.43585   1
   6  -4  15 9.26610 2.51893   1
   7  -4  15 -2.1113 2.78277   1
   8  -4  15 8.51522 3.49180   1
  -7  -3  15 6.94636 4.37737   1
  -6  -3  15 -7.4289 3.27315   1
  -5  -3  15 23.7076 4.81088   1
  -4  -3  15 116.913 8.91011   1
  -3  -5  12 42.1745 8.44340  -2
  -3  -3  15 42.1745 8.44340   1
  -2  -5  12 47.5078 5.11165  -2
  -2  -3  15 47.5078 5.11165   1
  -1  -5  12 51.0987 8.42433  -2
  -1  -3  15 51.0987 8.42433   1
   0  -5  12 89.0968 10.8934  -2
   0  -3  15 89.0968 10.8934   1
   1  -5  12 29.6778 6.69809  -2
   1  -3  15 29.6778 6.69809   1
   2  -5  12 17.1826 8.62902  -2
   2  -3  15 17.1826 8.62902   1
   3  -3  15 13.3182 1.99815   1
   4  -3  15 61.8385 4.91349   1
   5  -3  15 23.0169 3.14574   1
   6  -3  15 -4.0133 1.95802   1
   7  -3  15 31.5444 3.96285   1
   8  -3  15 3.82966 3.03872   1
  -8  -2  15 -4.1212 4.10377   1
  -7  -2  15 10.0819 4.53029   1
  -6  -4  13 10.7753 7.76965  -2
  -6  -2  15 10.7753 7.76965   1
  -5  -4  13 25.4889 8.15798  -2
  -5  -2  15 25.4889 8.15798   1
  -4  -4  13 16.5319 4.56476  -2
  -4  -2  15 16.5319 4.56476   1
  -3  -4  13 3.47360 2.68990  -2
  -3  -2  15 3.47360 2.68990   1
  -2  -4  13 -1.7431 2.17078  -2
  -2  -2  15 -1.7431 2.17078   1
  -1  -4  13 154.602 9.47783  -2
  -1  -2  15 154.602 9.47783   1
   0  -4  13 16.1475 2.22759  -2
   0  -2  15 16.1475 2.22759   1
   1  -4  13 197.301 13.7191  -2
   1  -2  15 197.301 13.7191   1
   2  -4  13 21.5636 5.68465  -2
   2  -2  15 21.5636 5.68465   1
   3  -4  13 31.7107 6.10363  -2
   3  -2  15 31.7107 6.10363   1
   4  -2  15 71.0136 5.31810   1
   5  -2  15 16.0177 2.32118   1
   6  -2  15 6.92756 2.22331   1
   7  -2  15 -1.5536 2.19356   1
   8  -2  15 3.87422 2.43855   1
  -8  -1  15 13.0011 5.00507   1
  -7  -1  15 20.9223 5.15265   1
  -6  -1  15 11.5968 3.95418   1
  -5  -1  15 80.9493 11.5761   1
  -4  -3  14 55.9383 7.31119  -2
  -4  -1  15 55.9383 7.31119   1
  -3  -3  14 -1.4321 3.52634  -2
  -3  -1  15 -1.4321 3.52634   1
  -2  -3  14 5.45621 5.53148  -2
  -2  -1  15 5.45621 5.53148   1
  -1  -1  15 1.71038 0.98514   1
   0  -3  14 42.0157 8.80547  -2
   0  -1  15 42.0157 8.80547   1
   1  -1  15 50.0192 3.60492   1
   2  -3  13 18.5663 5.48290  -2
   2  -1  15 18.5663 5.48290   1
   3  -3  13 175.738 25.9699  -2
   3  -1  15 175.738 25.9699   1
   4  -1  15 5.69889 1.81533   1
   5  -1  15 22.4007 2.99768   1
   6  -3  13 5.91217 6.56062  -2
   6  -1  15 5.91217 6.56062   1
   7  -3  13 0.56930 7.84026  -2
   7  -1  15 0.56930 7.84026   1
   8  -3  13 24.9071 10.0470  -2
   8  -1  15 24.9071 10.0470   1
   9  -3  13 -3.5754 9.92542  -2
   9  -1  15 -3.5754 9.92542   1
  -8   0  15 5.71731 4.36669   1
  -7   0  15 2.00119 3.58389   1
  -6   0  15 -0.5006 3.35269   1
  -5   0  15 48.6392 5.39073   1
  -4   0  15 11.4655 2.28709   1
  -3   0  15 30.9680 2.70390   1
  -2   0  15 45.4700 3.20311   1
  -1  -2  14 31.4695 5.78547  -2
  -1   0  15 31.4695 5.78547   1
   0  -2  14 60.8894 7.51975  -2
   0   0  15 60.8894 7.51975   1
   1  -2  14 27.3608 4.72176  -2
   1   0  15 27.3608 4.72176   1
   2  -2  14 254.825 23.9375  -2
   2   0  15 254.825 23.9375   1
   3  -2  14 52.6393 6.20155  -2
   3   0  15 52.6393 6.20155   1
   4  -2  14 287.820 26.4297  -2
   4   0  15 287.820 26.4297   1
   5  -2  14 41.9111 7.13251  -2
   5   0  15 41.9111 7.13251   1
   6  -2  14 170.463 23.4449  -2
   6   0  15 170.463 23.4449   1
   7  -2  14 -1.0428 4.36193  -2
   7   0  15 -1.0428 4.36193   1
   8  -2  14 24.2620 6.10216  -2
   8   0  15 24.2620 6.10216   1
   9  -2  14 11.1538 10.1789  -2
   9   0  15 11.1538 10.1789   1
  -7   1  15 9.16051 5.36070   1
  -6   1  15 35.5111 4.67804   1
  -5   1  15 3.49912 2.43955   1
  -4   1  15 5.48832 1.51481   1
  -3  -1  15 38.9518 9.07455  -2
  -3   1  15 38.9518 9.07455   1
  -2  -1  15 -2.5077 4.82152  -2
  -2   1  15 -2.5077 4.82152   1
  -1  -1  15 166.668 14.8584  -2
  -1   1  15 166.668 14.8584   1
   0  -1  15 27.5122 3.76842  -2
   0   1  15 27.5122 3.76842   1
   1  -1  15 132.433 8.36878  -2
   1   1  15 132.433 8.36878   1
   2  -1  15 32.9226 3.74601  -2
   2   1  15 32.9226 3.74601   1
   3  -1  15 574.904 32.5671  -2
   3   1  15 574.904 32.5671   1
   4  -1  15 8.79478 3.06426  -2
   4   1  15 8.79478 3.06426   1
   5  -1  15 52.1483 6.26800  -2
   5   1  15 52.1483 6.26800   1
   6  -1  15 -2.9265 4.36606  -2
   6   1  15 -2.9265 4.36606   1
   7  -1  15 184.653 18.2672  -2
   7   1  15 184.653 18.2672   1
   8  -1  15 21.7802 6.22162  -2
   8   1  15 21.7802 6.22162   1
   9  -1  15 25.0535 10.0104  -2
   9   1  15 25.0535 10.0104   1
  -7   2  15 17.7700 5.24251   1
  -6   2  15 0.46300 3.62880   1
  -5   2  15 46.4520 6.44269   1
  -4   2  15 2.30468 1.67159   1
  -3   2  15 -0.6384 1.64740   1
  -2   2  15 -1.6661 1.60351   1
  -1   0  16 62.9782 9.93581  -2
  -1   2  15 62.9782 9.93581   1
   0   0  16 1.09275 2.95692  -2
   0   2  15 1.09275 2.95692   1
   1   0  16 177.203 22.5509  -2
   1   2  15 177.203 22.5509   1
   2   0  16 239.964 29.7428  -2
   2   2  15 239.964 29.7428   1
   3   2  15 365.091 16.5910   1
   4   0  15 38.3204 9.75891  -2
   4   2  15 38.3204 9.75891   1
   5   0  15 0.09644 7.27249  -2
   5   2  15 0.09644 7.27249   1
   6   0  15 33.6545 11.1043  -2
   6   2  15 33.6545 11.1043   1
   7   2  15 -0.9179 2.21727   1
   8   2  15 109.118 8.07373   1
   9   2  15 1.63372 2.87877   1
  -7   3  15 1.29645 4.39300   1
  -6   3  15 5.18695 4.48973   1
  -5   3  15 1.02602 3.26112   1
  -4   3  15 8.98063 2.24652   1
  -3   3  15 25.5101 3.06082   1
  -2   3  15 33.9967 3.29655   1
  -1   3  15 38.3945 3.67654   1
   0   1  16 34.9190 9.61572  -2
   0   3  15 34.9190 9.61572   1
   1   1  16 -6.6108 7.15913  -2
   1   3  15 -6.6108 7.15913   1
   2   1  16 11.7910 7.81879  -2
   2   3  15 11.7910 7.81879   1
   3   1  16 17.5772 6.01504  -2
   3   3  15 17.5772 6.01504   1
   4   1  16 84.9559 14.6756  -2
   4   3  15 84.9559 14.6756   1
   5   1  16 6.77467 8.11143  -2
   5   3  15 6.77467 8.11143   1
   6   1  16 1.57042 7.44273  -2
   6   3  15 1.57042 7.44273   1
   7   1  16 7.78030 5.86973  -2
   7   3  15 7.78030 5.86973   1
   8   1  16 -2.5772 5.98546  -2
   8   3  15 -2.5772 5.98546   1
   9   1  16 13.3512 7.18763  -2
   9   3  15 13.3512 7.18763   1
  -6   4  15 0.06747 3.97706   1
  -5   4  15 -0.1499 3.20973   1
  -4   4  15 10.8988 2.35146   1
  -3   4  15 32.1143 3.39560   1
  -2   4  15 3.10311 1.65416   1
  -1   4  15 61.1530 5.33766   1
   0   2  17 4.18674 4.33661  -2
   0   4  15 4.18674 4.33661   1
   1   2  17 26.5667 5.34955  -2
   1   4  15 26.5667 5.34955   1
   2   2  17 17.8647 4.56565  -2
   2   4  15 17.8647 4.56565   1
   3   2  17 13.0940 4.70873  -2
   3   4  15 13.0940 4.70873   1
   4   2  17 203.895 15.8569  -2
   4   4  15 203.895 15.8569   1
   5   2  17 22.0541 5.30650  -2
   5   4  15 22.0541 5.30650   1
   6   2  17 25.0235 4.66946  -2
   6   4  15 25.0235 4.66946   1
   7   2  17 3.38850 4.35808  -2
   7   4  15 3.38850 4.35808   1
   8   2  17 -2.4369 4.19041  -2
   8   4  15 -2.4369 4.19041   1
  -6   5  15 6.56344 5.29970   1
  -5   5  15 3.64544 4.16175   1
  -4   5  15 2.04554 2.31069   1
  -3   5  15 15.8079 2.56541   1
  -2   5  15 52.3340 4.32095   1
  -1   5  15 117.749 7.44117   1
   0   5  15 12.9017 2.39122   1
   1   5  15 87.1914 5.56892   1
   2   5  15 3.35701 2.01166   1
   3   5  15 41.3615 3.79379   1
   4   5  15 0.40585 1.95250   1
   5   5  15 4.68240 2.74550   1
   6   3  17 21.5671 9.16156  -2
   6   5  15 21.5671 9.16156   1
   7   3  17 25.6493 10.5830  -2
   7   5  15 25.6493 10.5830   1
   7   3  18 26.5317 9.35148  -2
   7   5  15 26.5317 9.35148   1
   8   3  17 14.9339 10.1334  -2
   8   5  15 14.9339 10.1334   1
   8   3  18 9.89656 8.14851  -2
   8   5  15 9.89656 8.14851   1
  -5   6  15 38.2446 7.17312   1
  -4   6  15 2.64143 3.58196   1
  -3   6  15 0.62999 2.45466   1
  -2   6  15 75.5140 7.12371   1
  -1   6  15 13.1054 3.02675   1
   0   6  15 45.1226 3.82471   1
   1   6  15 5.75951 2.13266   1
   2   4  18 -13.129 7.86296  -2
   2   6  15 -13.129 7.86296   1
   3   4  18 49.7923 14.4219  -2
   3   6  15 49.7923 14.4219   1
   4   4  18 9.45144 10.3335  -2
   4   6  15 9.45144 10.3335   1
   5   4  18 1.59183 11.1198  -2
   5   6  15 1.59183 11.1198   1
   6   4  18 21.5666 14.1035  -2
   6   6  15 21.5666 14.1035   1
   7   4  18 4.69258 9.50582  -2
   7   6  15 4.69258 9.50582   1
   8   6  15 31.5481 5.88135   1
  -4   7  15 -2.2105 3.43379   1
  -3   7  15 2.17038 4.02727   1
  -2   7  15 33.9195 5.35578   1
  -1   7  15 29.9143 4.53713   1
   0   7  15 -2.8704 2.66371   1
   1   7  15 -2.8024 2.16964   1
   2   7  15 63.8871 6.03552   1
   3   7  15 -0.4013 2.68668   1
   4   7  15 111.950 9.49551   1
   5   7  15 11.7986 3.34299   1
   6   7  15 16.6054 4.30514   1
   7   7  15 0.61062 3.41063   1
  -3   8  15 -1.7449 4.05730   1
  -2   8  15 25.6876 4.95677   1
  -1   8  15 36.7935 5.39856   1
   0   8  15 -0.8239 3.25575   1
   1   8  15 17.6593 3.44364   1
   2   8  15 -5.7866 2.54866   1
   3   8  15 0.49150 2.92567   1
   4   8  15 14.5967 3.84265   1
   5   8  15 94.5774 10.6128   1
   6   8  15 26.2990 4.98237   1
  -1   9  15 -1.3203 3.39789   1
   0   9  15 -1.0007 3.57393   1
   1   9  15 9.97968 4.18246   1
   2   9  15 -0.0191 3.07718   1
   3   9  15 -1.3959 3.11625   1
   4   9  15 1.24573 3.27121   1
  -2  -9  16 8.25560 2.81426   1
  -1  -9  16 -0.3249 2.86292   1
   0  -9  16 29.4858 4.83399   1
   1  -9  16 1.01996 3.25592   1
   2  -9  16 5.30876 2.84493   1
  -4 -10  10 -5.3244 8.06517  -2
  -4  -8  16 -5.3244 8.06517   1
  -3 -10  10 -1.9757 12.9727  -2
  -3  -8  16 -1.9757 12.9727   1
  -2 -10  10 8.32472 11.5635  -2
  -2  -8  16 8.32472 11.5635   1
  -1 -10   9 -5.6246 10.6253  -2
  -1  -8  16 -5.6246 10.6253   1
   0  -8  16 -0.2884 2.34244   1
   1  -8  16 2.34465 3.02218   1
   2  -8  16 -3.9587 3.31229   1
   3  -8  16 15.6722 4.95136   1
   4  -8  16 13.0049 5.08697   1
  -5  -9  11 7.06395 8.57280  -2
  -5  -7  16 7.06395 8.57280   1
  -4  -9  11 7.48112 8.72703  -2
  -4  -7  16 7.48112 8.72703   1
  -3  -9  10 68.4290 17.7515  -2
  -3  -7  16 68.4290 17.7515   1
  -2  -9  10 47.3183 14.7625  -2
  -2  -7  16 47.3183 14.7625   1
  -1  -9  10 0.49842 7.12179  -2
  -1  -7  16 0.49842 7.12179   1
   0  -9  10 8.01069 7.97998  -2
   0  -7  16 8.01069 7.97998   1
   1  -9  10 16.7043 13.6760  -2
   1  -7  16 16.7043 13.6760   1
   2  -7  16 0.98555 2.85182   1
   3  -7  16 13.4980 3.99162   1
   4  -7  16 20.0231 4.52203   1
   5  -7  16 -4.5390 3.26461   1
  -6  -6  16 9.52139 4.51888   1
  -5  -8  11 -2.1689 7.19254  -2
  -5  -6  16 -2.1689 7.19254   1
  -4  -8  11 27.5924 6.58353  -2
  -4  -6  16 27.5924 6.58353   1
  -3  -8  11 17.2542 3.90073  -2
  -3  -6  16 17.2542 3.90073   1
  -2  -8  11 89.6393 9.74504  -2
  -2  -6  16 89.6393 9.74504   1
  -1  -8  11 13.7609 4.14913  -2
  -1  -6  16 13.7609 4.14913   1
   0  -8  11 51.5541 7.42697  -2
   0  -6  16 51.5541 7.42697   1
   1  -8  11 112.959 14.5854  -2
   1  -6  16 112.959 14.5854   1
   2  -8  11 33.7553 8.93344  -2
   2  -6  16 33.7553 8.93344   1
   3  -6  16 18.7390 4.15225   1
   4  -6  16 1.65020 3.24862   1
   5  -6  16 7.76698 3.75492   1
   6  -6  16 27.4006 5.42996   1
  -6  -7  12 2.61262 6.73450  -2
  -6  -5  16 2.61262 6.73450   1
  -5  -7  12 -1.3874 6.20977  -2
  -5  -5  16 -1.3874 6.20977   1
  -4  -7  12 5.93746 4.39455  -2
  -4  -5  16 5.93746 4.39455   1
  -3  -7  12 89.3173 10.7346  -2
  -3  -5  16 89.3173 10.7346   1
  -2  -7  12 7.33950 3.80107  -2
  -2  -5  16 7.33950 3.80107   1
  -1  -7  12 34.3485 4.32293  -2
  -1  -5  16 34.3485 4.32293   1
   0  -7  12 0.04345 3.76369  -2
   0  -5  16 0.04345 3.76369   1
   1  -7  11 61.4030 15.6626  -2
   1  -5  16 61.4030 15.6626   1
   1  -7  12 38.5290 11.4065  -2
   1  -5  16 38.5290 11.4065   1
   2  -5  16 9.43855 3.30552   1
   3  -5  16 29.0359 4.61626   1
   4  -5  16 0.20584 2.26519   1
   5  -5  16 -4.4791 2.38245   1
   6  -5  16 7.30733 3.05171   1
   7  -5  16 18.6464 4.03707   1
  -7  -4  16 3.09174 4.08363   1
  -6  -4  16 26.6269 5.43976   1
  -5  -6  13 50.2495 11.9818  -2
  -5  -4  16 50.2495 11.9818   1
  -4  -6  13 28.4488 6.00973  -2
  -4  -4  16 28.4488 6.00973   1
  -3  -6  13 80.0640 9.80331  -2
  -3  -4  16 80.0640 9.80331   1
  -2  -6  13 32.0012 5.78910  -2
  -2  -4  16 32.0012 5.78910   1
  -1  -4  16 7.63295 2.57153   1
   0  -4  16 16.6294 3.14104   1
   1  -6  12 34.3278 4.97320  -2
   1  -4  16 34.3278 4.97320   1
   2  -6  12 -7.4292 5.37490  -2
   2  -4  16 -7.4292 5.37490   1
   3  -4  16 39.7241 4.36456   1
   4  -4  16 2.88000 2.14084   1
   5  -4  16 42.9270 4.76932   1
   6  -4  16 8.72443 2.99095   1
   7  -4  16 5.92538 3.32731   1
  -7  -3  16 9.44148 4.38793   1
  -6  -3  16 29.3301 5.76709   1
  -5  -3  16 5.41711 3.68806   1
  -4  -3  16 41.8299 4.83289   1
  -3  -3  16 78.2735 6.63645   1
  -2  -5  13 42.4101 8.72677  -2
  -2  -3  16 42.4101 8.72677   1
  -1  -5  13 18.7787 4.93337  -2
  -1  -3  16 18.7787 4.93337   1
   0  -5  13 11.5060 4.03683  -2
   0  -3  16 11.5060 4.03683   1
   1  -5  13 58.0510 5.64762  -2
   1  -3  16 58.0510 5.64762   1
   2  -5  13 8.42804 5.41320  -2
   2  -3  16 8.42804 5.41320   1
   3  -5  13 -0.9978 3.59819  -2
   3  -3  16 -0.9978 3.59819   1
   4  -5  13 56.8599 6.76062  -2
   4  -3  16 56.8599 6.76062   1
   5  -5  13 8.93282 4.54284  -2
   5  -3  16 8.93282 4.54284   1
   6  -5  13 100.325 11.7934  -2
   6  -3  16 100.325 11.7934   1
   7  -3  16 9.76845 2.92052   1
   8  -3  16 35.5085 5.07516   1
  -7  -2  16 0.14768 3.48804   1
  -6  -2  16 20.8154 5.07957   1
  -5  -2  16 4.37507 3.71089   1
  -4  -4  14 36.7363 6.16660  -2
  -4  -2  16 36.7363 6.16660   1
  -3  -4  14 6.14827 4.04982  -2
  -3  -2  16 6.14827 4.04982   1
  -2  -4  14 91.0313 10.0227  -2
  -2  -2  16 91.0313 10.0227   1
  -1  -4  14 71.3044 8.11585  -2
  -1  -2  16 71.3044 8.11585   1
   0  -4  14 136.350 11.2187  -2
   0  -2  16 136.350 11.2187   1
   1  -4  14 1.61218 3.00736  -2
   1  -2  16 1.61218 3.00736   1
   2  -4  14 265.260 17.9641  -2
   2  -2  16 265.260 17.9641   1
   3  -4  14 53.7082 5.78050  -2
   3  -2  16 53.7082 5.78050   1
   4  -4  14 3.49937 5.15882  -2
   4  -2  16 3.49937 5.15882   1
   5  -2  16 6.19943 2.08898   1
   6  -2  16 31.5683 3.44640   1
   7  -2  16 3.73307 2.39511   1
   8  -2  16 5.88022 2.77364   1
  -7  -1  16 10.8192 4.26616   1
  -6  -1  16 6.35573 3.66698   1
  -5  -1  16 41.7749 6.05532   1
  -4  -3  15 45.6429 8.85618  -2
  -4  -1  16 45.6429 8.85618   1
  -3  -3  15 38.9744 8.22825  -2
  -3  -1  16 38.9744 8.22825   1
  -2  -1  16 0.36633 1.62082   1
  -1  -1  16 98.7080 6.32959   1
   0  -1  16 37.3302 2.59274   1
   1  -1  16 106.748 6.19043   1
   2  -1  16 125.837 7.79973   1
   3  -3  14 282.825 27.9507  -2
   3  -1  16 282.825 27.9507   1
   4  -3  14 62.8234 9.66251  -2
   4  -1  16 62.8234 9.66251   1
   5  -3  14 -5.2887 9.66218  -2
   5  -1  16 -5.2887 9.66218   1
   6  -1  16 2.17028 2.09607   1
   7  -1  16 9.95980 2.86463   1
   8  -3  14 6.17244 9.16045  -2
   8  -1  16 6.17244 9.16045   1
  -7   0  16 5.81330 3.73006   1
  -6   0  16 2.64745 3.41401   1
  -5   0  16 155.060 17.2633   1
  -4   0  16 1.83099 1.84123   1
  -3   0  16 5.25242 2.17250   1
  -2   0  16 -3.8751 1.27916   1
  -1   0  16 24.1937 2.43246   1
   0   0  16 -1.0218 0.87690   1
   1   0  16 99.0470 5.77278   1
   2  -2  15 168.975 13.6769  -2
   2   0  16 168.975 13.6769   1
   3  -2  15 56.0656 7.86445  -2
   3   0  16 56.0656 7.86445   1
   4  -2  15 24.0629 4.74234  -2
   4   0  16 24.0629 4.74234   1
   5  -2  15 36.3897 6.88959  -2
   5   0  16 36.3897 6.88959   1
   6  -2  15 20.3849 6.23783  -2
   6   0  16 20.3849 6.23783   1
   7  -2  15 3.10525 4.25071  -2
   7   0  16 3.10525 4.25071   1
   8  -2  15 4.67089 4.74481  -2
   8   0  16 4.67089 4.74481   1
   9   0  16 14.8200 3.82585   1
  -7   1  16 20.1686 7.76331   1
  -6   1  16 1.36217 4.18890   1
  -5   1  16 20.4821 3.36731   1
  -4   1  16 16.2037 2.39503   1
  -3   1  16 48.3577 3.80007   1
  -2   1  16 -0.6403 1.25769   1
  -1   1  16 11.4622 1.87362   1
   0  -1  16 42.2169 5.35794  -2
   0   1  16 42.2169 5.35794   1
   1  -1  16 47.7998 7.83013  -2
   1   1  16 47.7998 7.83013   1
   2  -1  16 62.8334 7.47824  -2
   2   1  16 62.8334 7.47824   1
   3  -1  16 118.545 10.3083  -2
   3   1  16 118.545 10.3083   1
   4  -1  16 54.6211 5.12599  -2
   4   1  16 54.6211 5.12599   1
   5  -1  16 36.0194 4.85482  -2
   5   1  16 36.0194 4.85482   1
   6  -1  16 29.9972 5.04402  -2
   6   1  16 29.9972 5.04402   1
   7  -1  16 4.52039 4.55351  -2
   7   1  16 4.52039 4.55351   1
   8  -1  16 9.49430 4.86513  -2
   8   1  16 9.49430 4.86513   1
   9   1  16 -4.4100 2.85515   1
  -7   2  16 25.3451 6.38622   1
  -6   2  16 22.7452 5.05340   1
  -5   2  16 2.12081 3.18657   1
  -4   2  16 7.03284 1.99215   1
  -3   2  16 -1.9056 1.51020   1
  -2   2  16 54.8597 4.66590   1
  -1   2  16 5.20259 1.76261   1
   0   2  16 163.289 7.94908   1
   1   2  16 23.0558 2.15563   1
   2   2  16 104.049 6.12780   1
   3   2  16 33.1953 3.06184   1
   4   2  16 84.4157 6.05926   1
   5   0  16 18.2997 9.63098  -2
   5   2  16 18.2997 9.63098   1
   6   0  16 17.2358 10.0547  -2
   6   2  16 17.2358 10.0547   1
   7   0  16 32.2014 11.8343  -2
   7   2  16 32.2014 11.8343   1
   8   0  16 4.07543 10.7341  -2
   8   2  16 4.07543 10.7341   1
   9   0  16 50.8057 16.2944  -2
   9   2  16 50.8057 16.2944   1
  -7   3  16 5.01460 5.89694   1
  -6   3  16 10.3317 4.95489   1
  -5   3  16 3.50703 3.50625   1
  -4   3  16 2.55405 1.85510   1
  -3   3  16 2.43165 1.71898   1
  -2   3  16 95.0842 6.06267   1
  -1   3  16 157.793 9.38438   1
   0   3  16 23.5272 2.16243   1
   1   3  16 104.356 6.43446   1
   2   1  17 30.8657 9.29011  -2
   2   3  16 30.8657 9.29011   1
   3   1  17 20.0624 8.04676  -2
   3   3  16 20.0624 8.04676   1
   4   1  17 31.2104 10.7381  -2
   4   3  16 31.2104 10.7381   1
   5   1  17 60.8983 14.2416  -2
   5   3  16 60.8983 14.2416   1
   6   1  17 13.2947 7.40556  -2
   6   3  16 13.2947 7.40556   1
   7   1  17 28.2215 12.3766  -2
   7   3  16 28.2215 12.3766   1
   8   1  17 -4.9477 10.1182  -2
   8   3  16 -4.9477 10.1182   1
  -6   4  16 3.82751 3.74453   1
  -5   4  16 40.8878 6.17056   1
  -4   4  16 19.2659 3.40085   1
  -3   4  16 24.2044 3.01726   1
  -2   4  16 5.18936 1.81216   1
  -1   4  16 19.8297 2.79848   1
   0   4  16 84.1494 6.40861   1
   1   4  16 28.7761 2.96877   1
   2   4  16 29.9987 3.18983   1
   3   4  16 47.8550 4.20270   1
   4   4  16 110.304 8.35341   1
   5   2  18 -0.5529 10.2977  -2
   5   4  16 -0.5529 10.2977   1
   6   4  16 -2.5725 2.43604   1
   7   2  18 2.10532 7.13481  -2
   7   4  16 2.10532 7.13481   1
   8   2  18 8.80421 5.72840  -2
   8   4  16 8.80421 5.72840   1
  -5   5  16 4.92934 4.06325   1
  -4   5  16 51.9242 5.20008   1
  -3   5  16 4.57485 2.23440   1
  -2   5  16 253.679 15.1046   1
  -1   5  16 22.7582 3.04162   1
   0   5  16 8.11599 2.33664   1
   1   5  16 2.93529 1.82786   1
   2   5  16 5.79964 2.13489   1
   3   5  16 0.99925 1.88873   1
   4   5  16 60.8196 5.73057   1
   5   5  16 3.47960 2.60427   1
   6   5  16 30.2571 4.42129   1
   7   5  16 7.12719 3.22509   1
   8   5  16 19.2669 4.47547   1
  -5   6  16 6.66363 4.35054   1
  -4   6  16 16.1365 4.45252   1
  -3   6  16 6.34420 3.04988   1
  -2   6  16 26.9711 3.73490   1
  -1   6  16 8.82595 2.55070   1
   0   6  16 -5.4029 2.28968   1
   1   6  16 7.13604 2.42041   1
   2   6  16 1.14589 2.10605   1
   3   6  16 13.1228 2.81333   1
   4   6  16 4.53594 2.62827   1
   5   6  16 15.4040 3.64040   1
   6   6  16 57.0607 6.04078   1
   7   6  16 33.4137 4.88817   1
  -4   7  16 1.72511 3.78243   1
  -3   7  16 12.0677 3.61319   1
  -2   7  16 2.22859 3.09508   1
  -1   7  16 -4.8734 2.88839   1
   0   7  16 -3.0667 2.87869   1
   1   7  16 63.3350 5.72441   1
   2   7  16 6.91019 3.10414   1
   3   7  16 8.72325 3.62004   1
   4   7  16 -2.1204 3.60312   1
   5   7  16 9.68088 3.74416   1
   6   7  16 1.10552 3.51274   1
   7   7  16 23.2380 11.1916   1
  -2   8  16 2.88313 4.32876   1
  -1   8  16 13.2331 3.99623   1
   0   8  16 -0.3467 3.33093   1
   1   8  16 46.4146 6.19385   1
   2   8  16 19.1810 3.94418   1
   3   8  16 -3.7504 3.03653   1
   4   8  16 27.3669 5.96970   1
   5   8  16 0.41702 4.70372   1
   0   9  16 3.11058 4.01294   1
   1   9  16 7.73900 3.96826   1
   2   9  16 2.92510 3.25338   1
   3   9  16 2.74334 3.95812   1
   4   9  16 1.83326 7.32032   1
  -3 -10  11 -9.0484 7.59936  -2
  -3  -8  17 -9.0484 7.59936   1
  -2 -10  11 1.73033 6.15510  -2
  -2  -8  17 1.73033 6.15510   1
  -1 -10  10 -1.5827 12.8877  -2
  -1  -8  17 -1.5827 12.8877   1
  -1 -10  11 1.54145 4.21570  -2
  -1  -8  17 1.54145 4.21570   1
   0 -10  10 71.2240 19.3655  -2
   0  -8  17 71.2240 19.3655   1
   0 -10  11 58.9988 18.2968  -2
   0  -8  17 58.9988 18.2968   1
   1 -10  10 -11.284 15.4906  -2
   1  -8  17 -11.284 15.4906   1
   2 -10  10 -17.284 16.4845  -2
   2  -8  17 -17.284 16.4845   1
   3  -8  17 8.78167 4.41766   1
  -4  -9  12 40.7556 11.4648  -2
  -4  -7  17 40.7556 11.4648   1
  -3  -9  12 22.1654 5.31449  -2
  -3  -7  17 22.1654 5.31449   1
  -2  -9  12 4.51238 5.67384  -2
  -2  -7  17 4.51238 5.67384   1
  -1  -9  11 -4.4341 6.16880  -2
  -1  -7  17 -4.4341 6.16880   1
   0  -9  11 29.2633 7.31709  -2
   0  -7  17 29.2633 7.31709   1
   1  -9  11 27.7485 8.72365  -2
   1  -7  17 27.7485 8.72365   1
   2  -9  11 15.4048 9.06989  -2
   2  -7  17 15.4048 9.06989   1
   3  -7  17 15.1381 4.04993   1
   4  -7  17 5.77892 3.81016   1
   5  -7  17 3.00871 3.07349   1
  -5  -6  17 14.2093 4.33703   1
  -4  -6  17 -1.0545 2.83597   1
  -3  -8  12 46.8171 11.1325  -2
  -3  -6  17 46.8171 11.1325   1
  -2  -8  12 9.59886 5.41400  -2
  -2  -6  17 9.59886 5.41400   1
  -1  -8  12 20.0205 3.74224  -2
  -1  -6  17 20.0205 3.74224   1
   0  -8  12 16.9905 4.96088  -2
   0  -6  17 16.9905 4.96088   1
   1  -8  12 2.68080 4.93619  -2
   1  -6  17 2.68080 4.93619   1
   2  -8  12 11.4293 8.06360  -2
   2  -6  17 11.4293 8.06360   1
   3  -8  12 78.0897 11.1319  -2
   3  -6  17 78.0897 11.1319   1
   4  -8  12 3.24120 9.86840  -2
   4  -6  17 3.24120 9.86840   1
   5  -8  12 1.53657 12.0536  -2
   5  -6  17 1.53657 12.0536   1
   6  -6  17 -5.0805 3.10955   1
  -6  -5  17 23.5955 5.80301   1
  -5  -5  17 -3.9782 3.87962   1
  -4  -7  13 31.1745 6.56849  -2
  -4  -5  17 31.1745 6.56849   1
  -3  -7  13 100.304 11.4513  -2
  -3  -5  17 100.304 11.4513   1
  -2  -7  13 8.62808 3.97190  -2
  -2  -5  17 8.62808 3.97190   1
  -1  -7  13 9.77284 3.85462  -2
  -1  -5  17 9.77284 3.85462   1
   0  -7  13 8.00224 4.27161  -2
   0  -5  17 8.00224 4.27161   1
   1  -7  13 19.1718 4.97146  -2
   1  -5  17 19.1718 4.97146   1
   2  -7  13 -2.3591 3.70039  -2
   2  -5  17 -2.3591 3.70039   1
   3  -5  17 35.4075 5.06464   1
   4  -5  17 23.8009 4.40180   1
   5  -5  17 -0.2334 3.05343   1
   6  -5  17 6.99586 3.68437   1
  -6  -4  17 28.8313 5.28777   1
  -5  -4  17 8.07333 4.62781   1
  -4  -6  14 15.4286 6.56770  -2
  -4  -4  17 15.4286 6.56770   1
  -3  -6  14 17.8914 6.96570  -2
  -3  -4  17 17.8914 6.96570   1
  -2  -6  14 21.5091 5.57890  -2
  -2  -4  17 21.5091 5.57890   1
  -1  -6  14 26.9843 8.47878  -2
  -1  -4  17 26.9843 8.47878   1
   0  -6  14 50.7138 11.1575  -2
   0  -4  17 50.7138 11.1575   1
   1  -4  17 10.2046 2.90936   1
   2  -6  13 18.5892 7.11943  -2
   2  -4  17 18.5892 7.11943   1
   3  -6  13 13.3818 10.1210  -2
   3  -4  17 13.3818 10.1210   1
   4  -6  13 30.5530 6.98335  -2
   4  -4  17 30.5530 6.98335   1
   5  -6  13 22.4004 6.91817  -2
   5  -4  17 22.4004 6.91817   1
   6  -6  13 35.0636 9.46323  -2
   6  -4  17 35.0636 9.46323   1
   7  -6  13 24.5160 11.1397  -2
   7  -4  17 24.5160 11.1397   1
  -7  -3  17 -0.4058 3.90632   1
  -6  -3  17 11.8425 4.40346   1
  -5  -3  17 56.7893 7.56192   1
  -4  -3  17 101.225 8.36083   1
  -3  -3  17 10.6654 2.93788   1
  -2  -3  17 2.82937 2.32186   1
  -1  -5  14 -10.201 5.24184  -2
  -1  -3  17 -10.201 5.24184   1
   0  -5  14 76.9058 12.4376  -2
   0  -3  17 76.9058 12.4376   1
   1  -5  14 106.100 10.0580  -2
   1  -3  17 106.100 10.0580   1
   2  -5  14 127.008 10.1295  -2
   2  -3  17 127.008 10.1295   1
   3  -5  14 121.575 9.97304  -2
   3  -3  17 121.575 9.97304   1
   4  -5  14 51.5576 5.63018  -2
   4  -3  17 51.5576 5.63018   1
   5  -5  14 39.0031 6.27407  -2
   5  -3  17 39.0031 6.27407   1
   6  -5  14 19.2798 5.19607  -2
   6  -3  17 19.2798 5.19607   1
   7  -5  14 73.7192 8.78789  -2
   7  -3  17 73.7192 8.78789   1
   8  -3  17 25.8340 4.27904   1
  -7  -2  17 2.90482 3.76558   1
  -6  -2  17 -0.6230 3.53295   1
  -5  -2  17 37.9969 5.66018   1
  -4  -2  17 48.1636 4.82091   1
  -3  -2  17 5.34824 2.31874   1
  -2  -4  15 30.7923 7.97863  -2
  -2  -2  17 30.7923 7.97863   1
  -1  -4  15 2.15822 5.51559  -2
  -1  -2  17 2.15822 5.51559   1
   0  -4  15 33.3053 8.37201  -2
   0  -2  17 33.3053 8.37201   1
   1  -4  15 135.302 13.6902  -2
   1  -2  17 135.302 13.6902   1
   2  -4  15 278.510 21.1888  -2
   2  -2  17 278.510 21.1888   1
   3  -4  15 6.05020 3.86580  -2
   3  -2  17 6.05020 3.86580   1
   4  -4  15 36.3454 4.67254  -2
   4  -2  17 36.3454 4.67254   1
   5  -4  15 61.6023 8.30069  -2
   5  -2  17 61.6023 8.30069   1
   6  -4  14 66.5159 17.4577  -2
   6  -2  17 66.5159 17.4577   1
   6  -4  15 41.3320 9.81621  -2
   6  -2  17 41.3320 9.81621   1
   7  -4  15 4.48761 6.52084  -2
   7  -2  17 4.48761 6.52084   1
   8  -2  17 1.64202 2.60501   1
  -7  -1  17 7.95908 3.78163   1
  -6  -1  17 15.3200 4.52674   1
  -5  -1  17 3.33323 3.15513   1
  -4  -1  17 2.94429 2.37876   1
  -3  -1  17 8.64135 2.20975   1
  -2  -1  17 34.9181 3.87920   1
  -1  -1  17 4.62976 1.77132   1
   0  -1  17 245.529 15.7022   1
   1  -1  17 17.5867 2.60816   1
   2  -1  17 5.58319 1.94121   1
   3  -1  17 76.8886 5.33033   1
   4  -3  15 7.17840 9.66565  -2
   4  -1  17 7.17840 9.66565   1
   5  -3  15 45.0494 8.53116  -2
   5  -1  17 45.0494 8.53116   1
   6  -3  15 -7.9033 9.59848  -2
   6  -1  17 -7.9033 9.59848   1
   7  -3  15 2.61130 11.2987  -2
   7  -1  17 2.61130 11.2987   1
   8  -3  15 -5.7073 13.4635  -2
   8  -1  17 -5.7073 13.4635   1
  -7  -3  16 1.37314 12.9748  -2
  -7   0  17 1.37314 12.9748   1
  -6  -3  16 25.8207 13.0988  -2
  -6   0  17 25.8207 13.0988   1
  -5   0  17 5.94121 3.46337   1
  -4   0  17 -2.3812 2.04006   1
  -3   0  17 -2.9185 1.88639   1
  -2   0  17 42.2714 4.15878   1
  -1   0  17 22.2650 3.00306   1
   0   0  17 71.9449 4.84323   1
   1   0  17 4.01881 2.06381   1
   2   0  17 -3.9794 1.72235   1
   3   0  17 50.0556 4.32401   1
   4  -2  16 -2.8374 4.03530  -2
   4   0  17 -2.8374 4.03530   1
   5  -2  16 10.7293 4.60431  -2
   5   0  17 10.7293 4.60431   1
   6  -2  16 18.3749 4.40114  -2
   6   0  17 18.3749 4.40114   1
   7  -2  16 -9.7994 3.67424  -2
   7   0  17 -9.7994 3.67424   1
   8  -2  16 19.8992 4.31160  -2
   8   0  17 19.8992 4.31160   1
  -7   1  17 0.34304 4.78804   1
  -6   1  17 -0.3359 4.67930   1
  -5   1  17 5.68072 4.62590   1
  -4   1  17 0.80986 1.55224   1
  -3   1  17 0.77929 1.83321   1
  -2   1  17 46.8816 3.63009   1
  -1   1  17 -1.8350 1.38004   1
   0   1  17 31.2706 3.40279   1
   1   1  17 329.515 17.5962   1
   2   1  17 26.6400 2.96435   1
   3  -1  17 21.9635 9.08152  -2
   3   1  17 21.9635 9.08152   1
   4  -1  17 15.1512 4.88195  -2
   4   1  17 15.1512 4.88195   1
   5  -1  17 19.0334 5.93442  -2
   5   1  17 19.0334 5.93442   1
   6  -1  17 7.29257 3.81870  -2
   6   1  17 7.29257 3.81870   1
   7  -1  17 18.9654 4.99194  -2
   7   1  17 18.9654 4.99194   1
   8  -1  17 11.0153 4.86774  -2
   8   1  17 11.0153 4.86774   1
  -6   2  17 2.80852 4.62188   1
  -5   2  17 33.3754 5.52503   1
  -4   2  17 -2.4498 2.92750   1
  -3   2  17 3.77608 1.87248   1
  -2   2  17 3.17059 1.88818   1
  -1   2  17 0.72079 1.96179   1
   0   2  17 12.9542 2.12919   1
   1   2  17 26.1873 2.50852   1
   2   2  17 22.4119 2.95118   1
   3   2  17 29.9694 3.08423   1
   4   0  17 229.751 34.0603  -2
   4   2  17 229.751 34.0603   1
   5   2  17 58.1708 5.05601   1
   6   2  17 12.3969 2.89584   1
   7   2  17 9.99314 3.05308   1
   8   0  17 16.4312 12.7480  -2
   8   2  17 16.4312 12.7480   1
  -6   3  17 -2.8325 4.16935   1
  -5   3  17 5.38563 3.81939   1
  -4   3  17 -1.2397 3.19122   1
  -3   3  17 0.18601 1.75406   1
  -2   3  17 68.2097 4.78857   1
  -1   3  17 17.8099 2.54374   1
   0   3  17 60.7102 4.60935   1
   1   3  17 4.04480 1.83583   1
   2   3  17 59.9148 4.71709   1
   3   1  18 3.00434 8.38016  -2
   3   3  17 3.00434 8.38016   1
   4   1  18 45.2392 11.9251  -2
   4   3  17 45.2392 11.9251   1
   5   1  18 43.3938 13.1609  -2
   5   3  17 43.3938 13.1609   1
   6   1  18 91.8052 19.0238  -2
   6   3  17 91.8052 19.0238   1
   7   1  18 -10.850 11.3518  -2
   7   3  17 -10.850 11.3518   1
   8   1  18 24.7745 13.7417  -2
   8   3  17 24.7745 13.7417   1
  -6   4  17 9.93861 4.31372   1
  -5   4  17 1.76933 3.59405   1
  -4   4  17 89.7116 7.86469   1
  -3   4  17 -0.9183 1.93060   1
  -2   4  17 3.29012 1.96871   1
  -1   4  17 5.49142 2.08446   1
   0   4  17 0.53464 1.93840   1
   1   4  17 10.1273 2.16055   1
   2   4  17 -4.9539 1.63525   1
   3   4  17 59.6479 5.58965   1
   4   4  17 39.5029 4.58415   1
   5   4  17 3.26165 2.69319   1
   6   4  17 -0.8631 2.65023   1
   7   4  17 0.00638 2.81663   1
   8   4  17 0.02403 3.00250   1
  -5   5  17 14.1194 8.71377   1
  -4   5  17 -0.2052 3.63391   1
  -3   5  17 4.31123 2.43486   1
  -2   5  17 25.0232 3.30784   1
  -1   5  17 -1.2222 2.06426   1
   0   5  17 32.6877 3.75700   1
   1   5  17 5.56879 1.91023   1
   2   5  17 -0.1920 1.87605   1
   3   5  17 87.0314 7.22758   1
   4   5  17 9.69377 2.95839   1
   5   5  17 -0.6053 2.65107   1
   6   5  17 5.36642 3.04891   1
   7   5  17 5.05026 3.37130   1
  -4   6  17 -1.6337 3.20261   1
  -3   6  17 62.5585 6.28755   1
  -2   6  17 1.78219 2.40085   1
  -1   6  17 14.9437 2.80697   1
   0   6  17 -0.8216 1.96534   1
   1   6  17 -1.4810 1.86715   1
   2   6  17 0.16961 1.97198   1
   3   6  17 24.3199 3.69164   1
   4   6  17 67.5477 6.30324   1
   5   6  17 7.57318 3.35340   1
   6   6  17 35.0001 4.92538   1
   7   6  17 -0.5440 3.03115   1
  -3   7  17 4.75444 4.37803   1
  -2   7  17 6.63011 3.06309   1
  -1   7  17 -1.9733 2.88035   1
   0   7  17 18.4780 3.93940   1
   1   7  17 5.44584 3.20279   1
   2   7  17 2.30070 2.72986   1
   3   7  17 -2.4551 2.70027   1
   4   7  17 -1.1033 2.80997   1
   5   7  17 14.3881 3.95843   1
   6   7  17 61.1357 6.78892   1
  -2   5  22 -2.9337 8.24988  -2
  -2   8  17 -2.9337 8.24988   1
  -1   8  17 -4.5563 3.26833   1
   0   8  17 16.6623 4.42943   1
   1   8  17 57.6430 6.78704   1
   2   8  17 5.17270 3.62047   1
   3   8  17 -3.2676 3.83069   1
   4   8  17 14.0146 5.29621   1
   5   8  17 2.07192 3.46422   1
   1   9  17 2.24461 7.14474   1
   2   9  17 28.8413 9.55595   1
  -2 -10  12 2.73047 4.33306  -2
  -2  -8  18 2.73047 4.33306   1
  -1 -10  12 23.2219 6.71152  -2
  -1  -8  18 23.2219 6.71152   1
   0 -10  12 24.9354 5.81047  -2
   0  -8  18 24.9354 5.81047   1
   1 -10  11 -3.7056 14.3475  -2
   1  -8  18 -3.7056 14.3475   1
   1 -10  12 -1.0189 6.26604  -2
   1  -8  18 -1.0189 6.26604   1
   2 -10  11 -18.607 13.0186  -2
   2  -8  18 -18.607 13.0186   1
   2 -10  12 4.23915 7.45565  -2
   2  -8  18 4.23915 7.45565   1
  -4  -7  18 1.87104 4.71014   1
  -3  -9  13 34.8567 10.3732  -2
  -3  -7  18 34.8567 10.3732   1
  -2  -9  13 7.44194 5.74564  -2
  -2  -7  18 7.44194 5.74564   1
  -1  -9  13 40.6943 7.60977  -2
  -1  -7  18 40.6943 7.60977   1
   0  -9  12 16.6549 10.0968  -2
   0  -7  18 16.6549 10.0968   1
   0  -9  13 9.69348 8.12366  -2
   0  -7  18 9.69348 8.12366   1
   1  -9  12 -5.2577 7.25669  -2
   1  -7  18 -5.2577 7.25669   1
   2  -9  12 -8.8203 7.86784  -2
   2  -7  18 -8.8203 7.86784   1
   3  -9  12 22.2607 12.8102  -2
   3  -7  18 22.2607 12.8102   1
   4  -9  12 19.0221 13.5381  -2
   4  -7  18 19.0221 13.5381   1
  -5  -6  18 1.73174 4.40720   1
  -4  -6  18 5.22894 3.26948   1
  -3  -6  18 17.6849 3.83325   1
  -2  -6  18 1.24910 2.87876   1
  -1  -8  13 9.30806 5.41990  -2
  -1  -6  18 9.30806 5.41990   1
   0  -8  13 11.3201 8.05114  -2
   0  -6  18 11.3201 8.05114   1
   1  -8  13 -9.6977 3.94193  -2
   1  -6  18 -9.6977 3.94193   1
   2  -8  13 96.4782 12.5628  -2
   2  -6  18 96.4782 12.5628   1
   3  -8  13 -7.8185 4.11517  -2
   3  -6  18 -7.8185 4.11517   1
   4  -8  13 8.38641 4.62142  -2
   4  -6  18 8.38641 4.62142   1
   5  -8  13 2.36025 4.89550  -2
   5  -6  18 2.36025 4.89550   1
  -5  -5  18 18.7565 5.25836   1
  -4  -5  18 22.2295 3.75946   1
  -3  -7  14 -1.0557 6.54711  -2
  -3  -5  18 -1.0557 6.54711   1
  -2  -7  14 -0.1420 6.53115  -2
  -2  -5  18 -0.1420 6.53115   1
  -1  -7  14 -0.6185 4.45440  -2
  -1  -5  18 -0.6185 4.45440   1
   0  -7  14 23.9899 6.20942  -2
   0  -5  18 23.9899 6.20942   1
   1  -7  14 6.49856 5.62980  -2
   1  -5  18 6.49856 5.62980   1
   2  -7  14 18.6253 5.83194  -2
   2  -5  18 18.6253 5.83194   1
   3  -7  14 30.8979 5.93381  -2
   3  -5  18 30.8979 5.93381   1
   4  -7  14 2.85008 4.65054  -2
   4  -5  18 2.85008 4.65054   1
   5  -7  14 21.5359 6.01013  -2
   5  -5  18 21.5359 6.01013   1
   5  -7  13 8.12454 13.3357  -2
   5  -5  18 8.12454 13.3357   1
   6  -5  18 5.71748 3.54886   1
  -6  -4  18 4.23427 4.24324   1
  -5  -4  18 5.56775 3.95412   1
  -4  -4  18 -0.2344 2.52565   1
  -3  -4  18 7.33386 2.92832   1
  -2  -4  18 -2.5368 2.28246   1
  -1  -4  18 35.9931 4.20572   1
   0  -6  15 15.2779 7.97490  -2
   0  -4  18 15.2779 7.97490   1
   1  -4  18 18.8206 3.81625   1
   2  -4  18 -1.1306 2.33682   1
   3  -6  14 40.1624 13.1437  -2
   3  -4  18 40.1624 13.1437   1
   4  -6  14 -10.880 8.91171  -2
   4  -4  18 -10.880 8.91171   1
   5  -6  14 21.8642 13.7125  -2
   5  -4  18 21.8642 13.7125   1
   6  -6  14 13.4013 13.1968  -2
   6  -4  18 13.4013 13.1968   1
   7  -6  14 7.16301 14.4893  -2
   7  -4  18 7.16301 14.4893   1
  -6  -3  18 5.23304 4.44819   1
  -5  -3  18 -1.0695 3.36256   1
  -4  -3  18 4.70027 2.87368   1
  -3  -3  18 3.20583 2.72098   1
  -2  -3  18 -3.0577 2.24565   1
  -1  -3  18 15.7420 4.05049   1
   0  -3  18 122.763 8.99104   1
   1  -3  18 3.79001 2.38211   1
   2  -5  15 56.3814 8.18375  -2
   2  -3  18 56.3814 8.18375   1
   3  -5  15 29.8096 6.44556  -2
   3  -3  18 29.8096 6.44556   1
   4  -5  15 31.5814 5.30335  -2
   4  -3  18 31.5814 5.30335   1
   5  -5  15 4.64117 4.00177  -2
   5  -3  18 4.64117 4.00177   1
   6  -5  15 16.7152 3.60039  -2
   6  -3  18 16.7152 3.60039   1
   7  -5  15 30.2334 4.71753  -2
   7  -3  18 30.2334 4.71753   1
  -6  -2  18 20.9461 5.29553   1
  -5  -2  18 1.37052 3.86772   1
  -4  -2  18 23.3097 3.68549   1
  -3  -2  18 -2.7194 2.28521   1
  -2  -2  18 4.58859 2.45425   1
  -1  -2  18 -1.2779 2.53227   1
   0  -2  18 0.24557 1.69128   1
   1  -2  18 3.19494 1.79865   1
   2  -4  16 45.3691 10.7354  -2
   2  -2  18 45.3691 10.7354   1
   3  -2  18 17.9689 2.24069   1
   4  -4  16 6.60201 3.94695  -2
   4  -2  18 6.60201 3.94695   1
   5  -4  16 58.9061 8.42581  -2
   5  -2  18 58.9061 8.42581   1
   6  -4  16 7.43111 4.30759  -2
   6  -2  18 7.43111 4.30759   1
   6  -4  15 1.83000 10.4016  -2
   6  -2  18 1.83000 10.4016   1
   7  -4  16 60.2511 9.17713  -2
   7  -2  18 60.2511 9.17713   1
   7  -4  15 68.0348 18.7751  -2
   7  -2  18 68.0348 18.7751   1
   8  -4  15 13.8702 15.5495  -2
   8  -2  18 13.8702 15.5495   1
  -7  -1  18 10.8854 5.41658   1
  -6  -1  18 9.16245 4.38417   1
  -5  -4  16 18.4715 12.2721  -2
  -5  -1  18 18.4715 12.2721   1
  -4  -1  18 21.3977 3.35338   1
  -3  -1  18 -0.2055 2.38380   1
  -2  -1  18 1.81020 2.39349   1
  -1  -1  18 -4.4356 2.56830   1
   0  -1  18 83.6670 7.26420   1
   1  -1  18 176.707 10.3710   1
   2  -1  18 61.5799 5.00324   1
   3  -1  18 13.0084 2.40154   1
   4  -1  18 7.15347 2.02416   1
   5  -1  18 44.5264 4.11964   1
   6  -3  16 27.9200 13.4332  -2
   6  -1  18 27.9200 13.4332   1
   7  -3  16 -10.734 12.0330  -2
   7  -1  18 -10.734 12.0330   1
   8  -3  16 14.1572 14.1344  -2
   8  -1  18 14.1572 14.1344   1
  -6  -3  17 -3.4583 11.0843  -2
  -6   0  18 -3.4583 11.0843   1
  -5  -3  17 8.21034 12.5765  -2
  -5   0  18 8.21034 12.5765   1
  -4  -3  17 66.0331 16.3150  -2
  -4   0  18 66.0331 16.3150   1
  -3   0  18 65.7555 6.51982   1
  -2   0  18 65.8545 5.41451   1
  -1   0  18 17.5233 2.80941   1
   0   0  18 0.80255 2.31739   1
   1   0  18 129.110 9.04761   1
   2   0  18 70.9263 5.12538   1
   3   0  18 -0.3779 1.86574   1
   4   0  18 11.8271 2.42786   1
   5  -2  17 84.7698 16.2382  -2
   5   0  18 84.7698 16.2382   1
   6  -2  17 11.4069 4.90996  -2
   6   0  18 11.4069 4.90996   1
   7  -2  17 31.2443 6.68661  -2
   7   0  18 31.2443 6.68661   1
   8  -2  17 53.4473 8.02137  -2
   8   0  18 53.4473 8.02137   1
  -6   1  18 5.83340 4.81727   1
  -5   1  18 19.3712 5.50393   1
  -4   1  18 19.0328 5.14726   1
  -3   1  18 6.25573 1.98872   1
  -2   1  18 17.4661 2.77830   1
  -1   1  18 2.84231 1.60019   1
   0   1  18 175.221 12.7660   1
   1   1  18 21.2903 2.77738   1
   2   1  18 223.816 13.0318   1
   3   1  18 4.54048 1.93679   1
   4   1  18 1.11493 1.94991   1
   5   1  18 8.04197 2.41411   1
   6   1  18 86.6690 6.87480   1
   7   1  18 1.16995 2.43674   1
   8   1  18 12.4459 3.48135   1
  -6   2  18 10.4200 5.14452   1
  -5   2  18 -0.7817 4.09541   1
  -4   2  18 20.3011 4.67139   1
  -3   2  18 -4.3864 2.19945   1
  -2   2  18 1.15749 1.63403   1
  -1   2  18 -1.6235 1.82156   1
   0   2  18 2.45280 2.25227   1
   1   2  18 99.0453 6.82335   1
   2   2  18 31.1518 3.57399   1
   3   2  18 76.1934 6.60522   1
   4   2  18 5.38167 2.67317   1
   5   2  18 27.7687 3.91584   1
   6   2  18 -3.2810 2.51279   1
   7   2  18 11.0112 3.69584   1
   8   2  18 2.20484 3.09477   1
  -6   3  18 -1.9425 4.64583   1
  -5   3  18 6.76029 4.17272   1
  -4   3  18 0.73062 3.22075   1
  -3   3  18 9.88450 2.25183   1
  -2   3  18 -0.0278 1.63838   1
  -1   3  18 18.4169 2.64999   1
   0   3  18 1.88441 1.71059   1
   1   3  18 3.48994 1.97206   1
   2   3  18 16.1668 2.89840   1
   3   3  18 54.4674 5.35945   1
   4   3  18 4.09934 2.86019   1
   5   3  18 69.4925 6.44477   1
   6   3  18 18.3841 3.89694   1
   7   3  18 5.48469 3.20372   1
   8   3  18 12.6527 3.46170   1
  -5   4  18 6.84095 4.33032   1
  -4   4  18 9.34342 4.44775   1
  -3   4  18 13.4997 2.85061   1
  -2   4  18 4.43289 2.11963   1
  -1   4  18 57.8916 5.11376   1
   0   4  18 27.3015 3.36219   1
   1   4  18 14.7995 2.83534   1
   2   4  18 10.6957 2.88202   1
   3   4  18 5.16833 2.64943   1
   4   4  18 32.5172 4.46378   1
   5   4  18 3.87172 2.77336   1
   6   4  18 52.7478 5.86709   1
   7   4  18 -6.6207 2.66086   1
   8   4  18 8.09754 8.22665   1
  -5   5  18 13.6790 8.56486   1
  -4   5  18 19.7073 9.42225   1
  -3   2  21 25.8107 7.96296  -2
  -3   5  18 25.8107 7.96296   1
  -2   2  21 81.9236 13.4218  -2
  -2   5  18 81.9236 13.4218   1
  -1   2  21 62.7822 11.1285  -2
  -1   5  18 62.7822 11.1285   1
   0   2  21 6.28776 6.09629  -2
   0   5  18 6.28776 6.09629   1
   1   5  18 6.16822 2.18498   1
   2   5  18 26.6805 3.76842   1
   3   5  18 0.28439 2.36407   1
   4   5  18 2.77237 2.61249   1
   5   5  18 1.55388 3.03335   1
   6   5  18 2.58934 3.11849   1
   7   5  18 0.67068 3.08987   1
  -4   6  18 22.3720 6.21383   1
  -3   3  22 14.7850 7.84058  -2
  -3   6  18 14.7850 7.84058   1
  -2   6  18 4.77191 2.97169   1
  -1   6  18 -0.8913 2.20709   1
   0   6  18 -3.0113 2.15345   1
   1   6  18 11.3596 3.41614   1
   2   6  18 31.6575 4.03509   1
   3   6  18 34.0473 4.31999   1
   4   6  18 -1.4632 2.67542   1
   5   6  18 8.28643 3.53496   1
   6   6  18 2.79039 3.27543   1
  -3   7  18 21.5602 5.38039   1
  -2   7  18 -1.9691 2.68817   1
  -1   4  22 6.72053 7.69475  -2
  -1   7  18 6.72053 7.69475   1
   0   7  18 -0.6571 2.62968   1
   1   7  18 2.29072 3.11836   1
   2   7  18 0.02974 2.75694   1
   3   7  18 50.3683 5.99138   1
   4   7  18 -4.5277 3.14905   1
   5   7  18 124.652 10.4737   1
   6   7  18 -1.2173 8.50505   1
  -1   5  23 0.99225 7.79664  -2
  -1   8  18 0.99225 7.79664   1
   0   5  23 15.0511 8.37674  -2
   0   8  18 15.0511 8.37674   1
   1   5  23 10.5632 7.99159  -2
   1   8  18 10.5632 7.99159   1
   2   5  23 9.18454 8.04830  -2
   2   8  18 9.18454 8.04830   1
   3   5  23 3.05595 8.44631  -2
   3   8  18 3.05595 8.44631   1
   4   5  23 1.03016 9.41090  -2
   4   8  18 1.03016 9.41090   1
  -1 -10  13 9.43878 5.57070  -2
  -1  -8  19 9.43878 5.57070   1
   0 -10  13 4.80234 5.63811  -2
   0  -8  19 4.80234 5.63811   1
   1 -10  13 6.11924 5.56084  -2
   1  -8  19 6.11924 5.56084   1
  -3  -7  19 32.9561 5.22083   1
  -2  -9  14 19.7615 9.17855  -2
  -2  -7  19 19.7615 9.17855   1
  -1  -9  14 13.3506 8.49930  -2
  -1  -7  19 13.3506 8.49930   1
   0  -9  14 13.9153 8.59486  -2
   0  -7  19 13.9153 8.59486   1
   1  -7  19 -1.1422 3.32533   1
   2  -7  19 -4.7520 3.00759   1
   3  -9  13 -16.970 9.04004  -2
   3  -7  19 -16.970 9.04004   1
  -4  -6  19 0.93892 2.96286   1
  -3  -6  19 16.7186 3.82630   1
  -2  -6  19 2.51977 3.05688   1
  -1  -6  19 76.1931 6.95253   1
   0  -6  19 13.9991 3.69875   1
   1  -8  14 1.46875 8.26801  -2
   1  -6  19 1.46875 8.26801   1
   2  -8  14 -1.7253 7.37685  -2
   2  -6  19 -1.7253 7.37685   1
   3  -8  14 0.34816 5.83664  -2
   3  -6  19 0.34816 5.83664   1
   4  -8  14 0.17652 6.26591  -2
   4  -6  19 0.17652 6.26591   1
   5  -8  14 -11.069 3.46197  -2
   5  -6  19 -11.069 3.46197   1
  -5  -5  19 -0.9538 3.84770   1
  -4  -5  19 23.1416 4.38206   1
  -3  -5  19 21.1542 4.01124   1
  -2  -5  19 2.27443 2.82852   1
  -1  -5  19 0.59009 2.57817   1
   0  -7  15 25.1096 8.85192  -2
   0  -5  19 25.1096 8.85192   1
   1  -7  15 3.28830 6.95000  -2
   1  -5  19 3.28830 6.95000   1
   2  -7  15 37.0426 10.2714  -2
   2  -5  19 37.0426 10.2714   1
   3  -7  15 28.7271 9.97066  -2
   3  -5  19 28.7271 9.97066   1
   4  -7  15 67.3608 13.7345  -2
   4  -5  19 67.3608 13.7345   1
   5  -7  15 13.7194 7.90329  -2
   5  -5  19 13.7194 7.90329   1
   6  -7  14 -5.4343 13.4095  -2
   6  -5  19 -5.4343 13.4095   1
  -5  -7  15 12.2913 14.3377  -2
  -5  -4  19 12.2913 14.3377   1
  -4  -4  19 61.7910 6.26902   1
  -3  -4  19 11.6472 3.23733   1
  -2  -4  19 -1.8796 2.42230   1
  -1  -4  19 1.69035 3.17174   1
   0  -4  19 1.64764 3.04377   1
   1  -4  19 8.21092 2.85454   1
   2  -4  19 50.6820 5.65619   1
   3  -4  19 34.7818 4.55581   1
   4  -4  19 37.3796 5.25362   1
   5  -6  15 42.7187 16.3875  -2
   5  -4  19 42.7187 16.3875   1
   6  -6  15 8.89314 13.9877  -2
   6  -4  19 8.89314 13.9877   1
  -6  -6  16 -7.2752 14.0262  -2
  -6  -3  19 -7.2752 14.0262   1
  -5  -6  16 12.1511 14.3854  -2
  -5  -3  19 12.1511 14.3854   1
  -4  -3  19 5.98769 3.03864   1
  -3  -3  19 10.1855 2.74433   1
  -2  -3  19 2.43579 2.55363   1
  -1  -3  19 37.6536 5.25866   1
   0  -3  19 107.942 9.87744   1
   1  -3  19 4.68297 2.74980   1
   2  -3  19 11.5017 2.58442   1
   3  -3  19 12.5761 2.88523   1
   4  -5  16 -9.4814 5.28835  -2
   4  -3  19 -9.4814 5.28835   1
   5  -5  16 39.8189 7.94742  -2
   5  -3  19 39.8189 7.94742   1
   6  -5  16 34.3788 6.56989  -2
   6  -3  19 34.3788 6.56989   1
   7  -5  16 25.6341 6.19683  -2
   7  -3  19 25.6341 6.19683   1
  -6  -2  19 0.66066 3.83382   1
  -5  -2  19 0.44392 3.54986   1
  -4  -2  19 12.6017 3.21794   1
  -3  -2  19 3.84738 2.72442   1
  -2  -2  19 -2.3674 2.41885   1
  -1  -2  19 38.4836 5.29613   1
   0  -2  19 1.18333 2.89014   1
   1  -2  19 100.210 7.72369   1
   2  -2  19 7.05310 2.09438   1
   3  -2  19 1.70364 1.69050   1
   4  -2  19 -3.6433 1.62127   1
   5  -2  19 8.27071 2.26115   1
   6  -2  19 42.1973 4.46248   1
   7  -4  16 35.7654 17.1303  -2
   7  -2  19 35.7654 17.1303   1
  -6  -1  19 17.2076 4.88633   1
  -5  -1  19 5.13032 3.85266   1
  -4  -4  17 24.4294 12.4490  -2
  -4  -1  19 24.4294 12.4490   1
  -3  -4  17 10.1956 11.4108  -2
  -3  -1  19 10.1956 11.4108   1
  -2  -1  19 27.5612 3.72442   1
  -1  -1  19 0.53333 2.82532   1
   0  -1  19 209.096 13.6234   1
   1  -1  19 63.9444 5.62030   1
   2  -1  19 205.642 12.1131   1
   3  -1  19 3.52237 1.98835   1
   4  -1  19 2.59093 2.00297   1
   5  -1  19 0.76993 2.09316   1
   6  -1  19 -4.5971 1.93000   1
   7  -1  19 0.63795 2.44405   1
   8  -1  19 -1.2009 5.58093   1
  -6  -3  18 22.9865 14.6353  -2
  -6   0  19 22.9865 14.6353   1
  -5  -3  18 15.2654 14.1068  -2
  -5   0  19 15.2654 14.1068   1
  -4  -3  18 20.9307 12.1787  -2
  -4   0  19 20.9307 12.1787   1
  -3  -3  18 15.7463 11.1845  -2
  -3   0  19 15.7463 11.1845   1
  -2  -3  18 12.3588 12.6580  -2
  -2   0  19 12.3588 12.6580   1
  -1   0  19 3.85310 2.66363   1
   0   0  19 40.5394 4.55787   1
   1   0  19 23.9471 3.56004   1
   2   0  19 40.7228 4.21493   1
   3   0  19 -2.0120 1.91305   1
   4   0  19 3.39018 2.14826   1
   5   0  19 11.0218 2.82586   1
   6   0  19 12.1168 3.23371   1
   7  -2  18 13.1483 11.9918  -2
   7   0  19 13.1483 11.9918   1
   8   0  19 8.33081 3.53701   1
  -6   1  19 2.23832 4.83903   1
  -5   1  19 7.97454 4.73459   1
  -4   1  19 39.7856 7.36025   1
  -3   1  19 26.1752 4.07072   1
  -2   1  19 10.5650 2.43920   1
  -1   1  19 1.55063 2.65705   1
   0   1  19 68.8999 6.47863   1
   1   1  19 97.1488 6.90160   1
   2   1  19 57.6917 5.67244   1
   3   1  19 0.67142 2.15285   1
   4   1  19 -1.1504 2.40086   1
   5   1  19 39.3183 4.99454   1
   6   1  19 1.34226 2.77233   1
   7   1  19 118.289 9.79919   1
   8   1  19 0.66384 3.40873   1
  -6  -1  20 7.35808 7.63913  -2
  -6   2  19 7.35808 7.63913   1
  -5   2  19 24.3007 6.27147   1
  -4   2  19 9.63315 4.67844   1
  -3   2  19 0.85690 2.43720   1
  -2   2  19 10.9615 2.65655   1
  -1   2  19 21.1299 3.26713   1
   0   2  19 12.6357 2.81161   1
   1   2  19 7.68713 2.39144   1
   2   2  19 7.74819 2.41234   1
   3   2  19 3.97969 2.70768   1
   4   2  19 6.04994 2.81542   1
   5   2  19 20.6729 4.00772   1
   6   2  19 58.7975 6.16162   1
   7   2  19 8.04826 3.29099   1
   8   2  19 22.9157 4.62316   1
  -5   3  19 25.9360 6.15995   1
  -4   3  19 2.50158 3.50630   1
  -3   3  19 -1.9872 2.33836   1
  -2   3  19 1.79820 1.96350   1
  -1   3  19 7.48555 2.37780   1
   0   3  19 3.36819 2.39069   1
   1   3  19 6.88104 2.40527   1
   2   3  19 46.5606 4.90126   1
   3   3  19 6.71576 2.79393   1
   4   3  19 41.8285 5.03851   1
   5   3  19 -0.0593 2.76570   1
   6   3  19 8.35467 3.54425   1
   7   3  19 3.29025 3.28316   1
  -5   1  21 8.22871 7.40205  -2
  -5   4  19 8.22871 7.40205   1
  -4   1  21 50.4342 11.3808  -2
  -4   4  19 50.4342 11.3808   1
  -3   4  19 29.3575 4.58493   1
  -2   1  21 49.5095 9.88750  -2
  -2   4  19 49.5095 9.88750   1
  -1   1  21 27.6219 7.46814  -2
  -1   4  19 27.6219 7.46814   1
   0   1  21 17.6166 5.62809  -2
   0   4  19 17.6166 5.62809   1
   1   1  21 57.7522 10.9423  -2
   1   4  19 57.7522 10.9423   1
   2   1  21 4.90576 6.46374  -2
   2   4  19 4.90576 6.46374   1
   3   1  21 45.2510 10.0745  -2
   3   4  19 45.2510 10.0745   1
   4   1  21 11.7464 8.12730  -2
   4   4  19 11.7464 8.12730   1
   5   4  19 150.666 10.9961   1
   6   4  19 2.46536 3.16347   1
   7   4  19 1.17595 3.17751   1
  -4   5  19 -1.5361 6.63946   1
  -3   5  19 30.4138 5.96723   1
  -2   2  22 8.35454 6.27745  -2
  -2   5  19 8.35454 6.27745   1
  -1   2  22 12.0671 6.57776  -2
  -1   5  19 12.0671 6.57776   1
   0   2  22 7.66841 6.13727  -2
   0   5  19 7.66841 6.13727   1
   1   2  22 13.1983 6.91109  -2
   1   5  19 13.1983 6.91109   1
   2   2  22 10.8595 7.04744  -2
   2   5  19 10.8595 7.04744   1
   3   5  19 5.38476 2.65776   1
   4   5  19 3.64047 2.80336   1
   5   5  19 38.0265 5.11651   1
   6   5  19 14.1835 3.92110   1
   7   5  19 1.45331 3.25915   1
  -3   6  19 -3.5113 3.58212   1
  -2   6  19 17.5281 3.66473   1
  -1   6  19 9.15911 3.30029   1
   0   6  19 19.0462 4.03644   1
   1   3  22 -1.6009 7.92361  -2
   1   6  19 -1.6009 7.92361   1
   2   3  22 -3.8462 7.37236  -2
   2   6  19 -3.8462 7.37236   1
   3   6  19 10.5175 3.03460   1
   4   6  19 7.27153 3.18074   1
   5   6  19 6.94055 3.45458   1
   6   6  19 -1.9413 3.82279   1
  -2   7  19 3.35037 3.76193   1
  -1   7  19 3.58165 3.03470   1
   0   4  23 7.45760 8.21150  -2
   0   7  19 7.45760 8.21150   1
   1   4  23 -11.481 7.35099  -2
   1   7  19 -11.481 7.35099   1
   2   4  23 9.41965 8.62658  -2
   2   7  19 9.41965 8.62658   1
   3   4  23 15.6753 9.21572  -2
   3   7  19 15.6753 9.21572   1
   4   4  23 3.83401 8.39029  -2
   4   7  19 3.83401 8.39029   1
   5   4  23 17.2183 9.67889  -2
   5   7  19 17.2183 9.67889   1
   0   8  19 2.56623 3.93246   1
   1   8  19 3.65440 3.74826   1
   2   8  19 9.73286 4.30726   1
   3   8  19 4.05411 4.70511   1
  -2  -7  20 -1.6138 3.04616   1
  -1  -7  20 0.61675 3.29634   1
   0  -7  20 5.51569 3.46728   1
   1  -9  15 10.5315 8.62805  -2
   1  -7  20 10.5315 8.62805   1
   2  -7  20 16.3580 4.31690   1
   3  -7  20 7.63377 15.9300   1
  -4  -6  20 14.0350 7.32486   1
  -3  -6  20 1.09189 2.98154   1
  -2  -6  20 2.73401 3.01078   1
  -1  -6  20 4.22394 3.37538   1
   0  -6  20 8.28571 4.55025   1
   1  -6  20 -0.8749 3.59050   1
   2  -6  20 8.20161 3.13907   1
   3  -8  15 35.2512 11.1326  -2
   3  -6  20 35.2512 11.1326   1
   4  -8  15 28.6540 8.35547  -2
   4  -6  20 28.6540 8.35547   1
  -4  -8  15 17.1381 15.7574  -2
  -4  -5  20 17.1381 15.7574   1
  -3  -5  20 11.6785 3.18436   1
  -2  -5  20 4.67314 3.06800   1
  -1  -5  20 19.2662 3.93822   1
   0  -5  20 -7.9393 3.29974   1
   1  -5  20 5.44671 4.18382   1
   2  -7  16 58.1022 12.8749  -2
   2  -5  20 58.1022 12.8749   1
   3  -7  16 23.7250 9.13264  -2
   3  -5  20 23.7250 9.13264   1
   4  -5  20 12.1543 3.60244   1
   5  -5  20 -2.1448 3.37734   1
  -5  -7  16 33.5881 15.7038  -2
  -5  -4  20 33.5881 15.7038   1
  -4  -7  16 27.8948 14.2257  -2
  -4  -4  20 27.8948 14.2257   1
  -3  -7  16 39.0805 14.8699  -2
  -3  -4  20 39.0805 14.8699   1
  -2  -4  20 0.95395 2.54314   1
  -1  -4  20 18.6161 3.61451   1
   0  -4  20 0.60138 3.55139   1
   1  -4  20 19.2342 4.55691   1
   2  -4  20 34.9988 4.82518   1
   3  -4  20 51.2334 5.93145   1
   4  -4  20 11.3430 3.48324   1
   5  -4  20 21.4358 4.32726   1
   6  -6  16 -1.1684 13.3816  -2
   6  -4  20 -1.1684 13.3816   1
  -5  -6  17 21.1633 9.07890  -2
  -5  -3  20 21.1633 9.07890   1
  -4  -6  17 16.5648 8.26584  -2
  -4  -3  20 16.5648 8.26584   1
  -3  -6  17 49.9828 17.4195  -2
  -3  -3  20 49.9828 17.4195   1
  -2  -3  20 5.35186 2.66658   1
  -1  -3  20 2.82197 3.55719   1
   0  -3  20 57.2554 6.75112   1
   1  -3  20 1.95152 3.61304   1
   2  -3  20 125.658 11.1600   1
   3  -3  20 13.9126 2.79952   1
   4  -3  20 18.6224 3.32932   1
   5  -3  20 6.29282 2.56248   1
   6  -5  17 28.1068 7.96661  -2
   6  -3  20 28.1068 7.96661   1
  -6  -2  20 -2.7738 4.62252   1
  -5  -2  20 3.91363 3.75710   1
  -4  -2  20 -1.4013 3.49205   1
  -3  -2  20 -5.5758 2.23918   1
  -2  -2  20 114.551 9.67605   1
  -1  -2  20 74.9172 7.63037   1
   0  -2  20 8.32306 3.62466   1
   1  -2  20 14.8369 3.80699   1
   2  -2  20 50.1675 5.16038   1
   3  -2  20 10.6826 3.01981   1
   4  -2  20 -4.5663 2.13690   1
   5  -2  20 11.5572 2.67716   1
   6  -2  20 6.34763 2.45772   1
   7  -2  20 30.6387 4.23548   1
  -6  -1  20 0.81426 5.70358   1
  -5  -1  20 12.1411 4.27089   1
  -4  -1  20 -0.4044 3.37530   1
  -3  -1  20 1.15782 2.55062   1
  -2  -4  18 0.27491 11.7691  -2
  -2  -1  20 0.27491 11.7691   1
  -1  -4  18 72.9940 17.3438  -2
  -1  -1  20 72.9940 17.3438   1
   0  -4  18 81.4056 17.6345  -2
   0  -1  20 81.4056 17.6345   1
   1  -1  20 20.8858 3.30386   1
   2  -1  20 28.1095 3.96528   1
   3  -1  20 0.29757 2.25321   1
   4  -1  20 4.89844 2.56659   1
   5  -1  20 -0.7261 2.55052   1
   6  -1  20 4.19932 2.26346   1
   7  -1  20 57.2215 6.11247   1
  -6   0  20 0.38609 5.39634   1
  -5  -3  19 26.1777 15.0425  -2
  -5   0  20 26.1777 15.0425   1
  -4  -3  19 4.32285 14.2921  -2
  -4   0  20 4.32285 14.2921   1
  -3  -3  19 2.12220 11.2213  -2
  -3   0  20 2.12220 11.2213   1
  -2  -3  19 1.51944 11.7705  -2
  -2   0  20 1.51944 11.7705   1
  -1  -3  19 233.453 36.9530  -2
  -1   0  20 233.453 36.9530   1
   0   0  20 42.3370 5.25548   1
   1  -3  19 13.3399 6.00889  -2
   1   0  20 13.3399 6.00889   1
   2  -3  19 29.5303 7.70674  -2
   2   0  20 29.5303 7.70674   1
   3  -3  19 -0.6191 5.75972  -2
   3   0  20 -0.6191 5.75972   1
   4   0  20 0.81761 2.51109   1
   5   0  20 0.91712 2.69293   1
   6   0  20 -1.3224 2.91130   1
   7   0  20 1.54782 3.24396   1
  -5  -2  20 16.3138 8.41157  -2
  -5   1  20 16.3138 8.41157   1
  -4  -2  20 3.76604 7.14097  -2
  -4   1  20 3.76604 7.14097   1
  -3   1  20 -3.7644 2.54858   1
  -2   1  20 -0.1480 2.23392   1
  -1   1  20 37.8633 5.99120   1
   0  -2  20 3.35660 5.49538  -2
   0   1  20 3.35660 5.49538   1
   1  -2  20 12.0169 6.67616  -2
   1   1  20 12.0169 6.67616   1
   2   1  20 75.9568 6.04056   1
   3   1  20 9.62725 3.06937   1
   4   1  20 13.7228 3.19251   1
   5   1  20 -6.1882 2.26289   1
   6   1  20 38.7705 4.98037   1
   7   1  20 23.6425 4.62776   1
  -5  -1  21 16.6544 8.94702  -2
  -5   2  20 16.6544 8.94702   1
  -4   2  20 7.57788 4.83282   1
  -3   2  20 8.96279 3.07094   1
  -2   2  20 -0.5583 2.59612   1
  -1   2  20 -2.5631 2.09044   1
   0   2  20 38.9243 3.97788   1
   1   2  20 -0.1399 2.09129   1
   2   2  20 -0.4826 2.42011   1
   3   2  20 115.991 8.92523   1
   4   2  20 16.3619 3.77230   1
   5   2  20 29.3646 4.53934   1
   6   2  20 13.0806 3.49768   1
   7   2  20 2.18991 3.07630   1
  -5   3  20 24.1215 5.30428   1
  -4   0  21 2.74023 6.99542  -2
  -4   3  20 2.74023 6.99542   1
  -3   3  20 -5.2972 2.52279   1
  -2   3  20 -4.8032 2.68699   1
  -1   0  21 31.1312 10.3483  -2
  -1   3  20 31.1312 10.3483   1
   0   0  21 18.2312 9.30681  -2
   0   3  20 18.2312 9.30681   1
   1   0  21 41.6971 7.54074  -2
   1   3  20 41.6971 7.54074   1
   2   0  21 85.9068 10.3329  -2
   2   3  20 85.9068 10.3329   1
   3   0  21 -2.7371 6.90046  -2
   3   3  20 -2.7371 6.90046   1
   4   0  21 18.8018 8.30943  -2
   4   3  20 18.8018 8.30943   1
   5   0  21 41.4395 10.6658  -2
   5   3  20 41.4395 10.6658   1
   6   0  21 11.4558 8.79625  -2
   6   3  20 11.4558 8.79625   1
   7   0  21 45.0664 11.7254  -2
   7   3  20 45.0664 11.7254   1
  -4   1  22 11.8271 8.36704  -2
  -4   4  20 11.8271 8.36704   1
  -3   1  22 -10.480 6.02253  -2
  -3   4  20 -10.480 6.02253   1
  -2   1  22 7.86460 7.09060  -2
  -2   4  20 7.86460 7.09060   1
  -1   1  22 -12.707 5.88557  -2
  -1   4  20 -12.707 5.88557   1
   0   1  22 -1.2460 5.30630  -2
   0   4  20 -1.2460 5.30630   1
   1   1  22 1.56825 4.85173  -2
   1   4  20 1.56825 4.85173   1
   2   1  22 25.9517 7.87427  -2
   2   4  20 25.9517 7.87427   1
   3   1  22 -2.4774 6.88935  -2
   3   4  20 -2.4774 6.88935   1
   4   1  22 45.1898 10.2566  -2
   4   4  20 45.1898 10.2566   1
   5   1  22 35.0957 9.83580  -2
   5   4  20 35.0957 9.83580   1
   6   1  22 10.8678 8.12131  -2
   6   4  20 10.8678 8.12131   1
   7   4  20 0.51699 3.30749   1
  -2   5  20 31.3077 4.59897   1
  -1   5  20 1.07812 2.34272   1
   0   5  20 20.6698 3.76877   1
   1   5  20 1.52040 2.85175   1
   2   2  22 -0.9891 8.36155  -2
   2   5  20 -0.9891 8.36155   1
   3   2  22 3.99598 9.21477  -2
   3   5  20 3.99598 9.21477   1
   4   5  20 19.2206 3.99948   1
   5   5  20 68.3102 6.80036   1
   6   5  20 8.60217 3.60650   1
  -2   6  20 9.32159 3.85879   1
  -1   6  20 2.53206 3.14634   1
   0   6  20 3.23280 2.95312   1
   1   3  23 -4.8620 9.80131  -2
   1   6  20 -4.8620 9.80131   1
   2   3  23 36.0933 11.5891  -2
   2   6  20 36.0933 11.5891   1
   3   3  23 -7.6321 10.2249  -2
   3   6  20 -7.6321 10.2249   1
   4   3  23 27.8421 13.6963  -2
   4   6  20 27.8421 13.6963   1
   5   3  23 6.64774 7.48183  -2
   5   6  20 6.64774 7.48183   1
  -1   7  20 11.9373 4.40398   1
   0   7  20 -2.6865 3.12994   1
   1   7  20 7.98377 3.53590   1
   2   7  20 5.54160 3.31212   1
   3   4  24 -1.8207 8.28212  -2
   3   7  20 -1.8207 8.28212   1
   4   7  20 -1.0761 3.11483   1
  -1  -7  21 0.05868 5.34648   1
   0  -7  21 4.43903 3.64802   1
   1  -7  21 3.86989 5.15792   1
  -3  -6  21 7.55454 3.97194   1
  -2  -6  21 1.13738 3.22648   1
  -1  -6  21 -0.4770 3.13799   1
   0  -6  21 12.1377 3.88955   1
   1  -6  21 12.9510 4.75220   1
   2  -6  21 -0.0600 4.09432   1
   3  -6  21 37.1428 7.24167   1
  -4  -5  21 4.81045 4.72315   1
  -3  -8  16 26.1253 14.1420  -2
  -3  -5  21 26.1253 14.1420   1
  -2  -8  16 25.9161 13.6552  -2
  -2  -5  21 25.9161 13.6552   1
  -1  -8  16 -0.3079 11.8547  -2
  -1  -5  21 -0.3079 11.8547   1
   0  -5  21 -3.1734 3.57646   1
   1  -5  21 -4.0051 3.30061   1
   2  -5  21 13.2949 4.91171   1
   3  -5  21 1.46444 3.81835   1
   4  -5  21 16.2614 4.16067   1
  -4  -7  17 5.42127 12.8392  -2
  -4  -4  21 5.42127 12.8392   1
  -3  -7  17 23.2218 13.8063  -2
  -3  -4  21 23.2218 13.8063   1
  -2  -7  17 49.7436 16.1265  -2
  -2  -4  21 49.7436 16.1265   1
  -1  -7  17 22.2943 12.7994  -2
  -1  -4  21 22.2943 12.7994   1
   0  -4  21 0.60655 3.80699   1
   1  -4  21 11.1953 4.07400   1
   2  -4  21 22.5583 5.27314   1
   3  -4  21 13.5773 4.51899   1
   4  -4  21 -2.6093 3.50278   1
   5  -4  21 9.35449 3.66421   1
  -5  -3  21 -1.4717 4.15660   1
  -4  -6  18 -6.5040 9.22072  -2
  -4  -3  21 -6.5040 9.22072   1
  -3  -6  18 -0.0512 8.44571  -2
  -3  -3  21 -0.0512 8.44571   1
  -2  -6  18 18.0232 10.0394  -2
  -2  -3  21 18.0232 10.0394   1
  -1  -3  21 4.80918 3.72568   1
   0  -3  21 -2.7088 3.15185   1
   1  -3  21 32.8117 5.79191   1
   2  -3  21 31.9354 5.57089   1
   3  -3  21 75.1179 7.29656   1
   4  -3  21 5.30520 3.12906   1
   5  -3  21 3.70922 3.73839   1
   6  -3  21 -5.9276 3.17108   1
  -5  -5  19 15.2455 8.93737  -2
  -5  -2  21 15.2455 8.93737   1
  -4  -2  21 2.63080 3.78549   1
  -3  -2  21 4.07222 3.17013   1
  -2  -2  21 46.8814 5.11360   1
  -1  -2  21 38.8092 5.85918   1
   0  -5  18 26.8834 12.2086  -2
   0  -2  21 26.8834 12.2086   1
   1  -5  18 11.0473 11.5765  -2
   1  -2  21 11.0473 11.5765   1
   2  -5  18 80.6148 16.4221  -2
   2  -2  21 80.6148 16.4221   1
   3  -2  21 6.85191 2.62619   1
   4  -2  21 2.32972 2.71318   1
   5  -2  21 5.00931 2.86161   1
   6  -2  21 4.38288 3.17494   1
  -5  -1  21 14.0684 5.80953   1
  -4  -1  21 15.9095 4.31860   1
  -3  -1  21 9.91342 2.94451   1
  -2  -1  21 -0.2784 2.62529   1
  -1  -4  19 19.1941 8.71721  -2
  -1  -1  21 19.1941 8.71721   1
   0  -4  19 14.2211 12.3098  -2
   0  -1  21 14.2211 12.3098   1
   1  -4  19 1.24106 9.92630  -2
   1  -1  21 1.24106 9.92630   1
   2  -4  19 56.8154 13.8091  -2
   2  -1  21 56.8154 13.8091   1
   3  -4  19 11.8299 9.94074  -2
   3  -1  21 11.8299 9.94074   1
   4  -1  21 24.0266 4.21348   1
   5  -1  21 0.59802 2.77277   1
   6  -1  21 46.0558 5.16795   1
   7  -1  21 30.5012 4.68128   1
  -5  -3  20 -3.8974 6.85391  -2
  -5   0  21 -3.8974 6.85391   1
  -4  -3  20 4.35890 6.99690  -2
  -4   0  21 4.35890 6.99690   1
  -3  -3  20 -14.091 6.55389  -2
  -3   0  21 -14.091 6.55389   1
  -2  -3  20 70.2293 12.0543  -2
  -2   0  21 70.2293 12.0543   1
  -1  -3  20 44.6419 7.99435  -2
  -1   0  21 44.6419 7.99435   1
   0  -3  20 53.5859 12.7354  -2
   0   0  21 53.5859 12.7354   1
   1  -3  20 -5.0871 9.78756  -2
   1   0  21 -5.0871 9.78756   1
   2  -3  20 72.0760 12.2301  -2
   2   0  21 72.0760 12.2301   1
   3  -3  20 8.95744 7.04852  -2
   3   0  21 8.95744 7.04852   1
   4   0  21 2.57085 3.09350   1
   5   0  21 10.8082 3.33542   1
   6   0  21 -4.0164 2.87543   1
   7   0  21 16.0144 4.25310   1
  -5  -2  21 16.3773 9.19110  -2
  -5   1  21 16.3773 9.19110   1
  -4  -2  21 -12.117 6.01795  -2
  -4   1  21 -12.117 6.01795   1
  -3  -2  21 -10.063 6.11144  -2
  -3   1  21 -10.063 6.11144   1
  -2  -2  21 22.8951 8.66550  -2
  -2   1  21 22.8951 8.66550   1
  -1  -2  21 66.3356 15.2825  -2
  -1   1  21 66.3356 15.2825   1
   0   1  21 38.8573 5.13911   1
   1   1  21 74.6067 6.29408   1
   2   1  21 -0.1207 2.29039   1
   3   1  21 11.2947 3.27526   1
   4   1  21 5.82088 2.94691   1
   5   1  21 1.31420 3.04987   1
   6   1  21 -3.2596 2.88428   1
   7   1  21 74.2770 7.67013   1
  -5   2  21 32.9865 7.20107   1
  -4   2  21 -3.5665 4.33283   1
  -3   2  21 -4.0890 2.65760   1
  -2   2  21 5.46722 2.93909   1
  -1   2  21 80.6342 9.03430   1
   0   2  21 29.2276 3.60367   1
   1  -1  21 9.57423 9.27893  -2
   1   2  21 9.57423 9.27893   1
   2  -1  21 27.3177 11.8774  -2
   2   2  21 27.3177 11.8774   1
   3  -1  21 -1.8300 9.83400  -2
   3   2  21 -1.8300 9.83400   1
   4   2  21 47.4126 5.61950   1
   5   2  21 -1.9877 2.75591   1
   6  -1  21 57.6198 12.7605  -2
   6   2  21 57.6198 12.7605   1
   7  -1  21 13.1862 10.1253  -2
   7   2  21 13.1862 10.1253   1
  -4   3  21 0.61243 4.12969   1
  -3   0  22 -5.3144 6.24332  -2
  -3   3  21 -5.3144 6.24332   1
  -2   0  22 39.0464 10.2979  -2
  -2   3  21 39.0464 10.2979   1
  -1   0  22 14.2157 10.7201  -2
  -1   3  21 14.2157 10.7201   1
   0   0  22 -5.8482 9.32240  -2
   0   3  21 -5.8482 9.32240   1
   1   0  22 23.2737 9.65952  -2
   1   3  21 23.2737 9.65952   1
   2   0  22 18.0023 6.38965  -2
   2   3  21 18.0023 6.38965   1
   3   0  22 25.2020 7.15067  -2
   3   3  21 25.2020 7.15067   1
   4   0  22 71.6234 10.3512  -2
   4   3  21 71.6234 10.3512   1
   5   0  22 92.3454 15.7787  -2
   5   3  21 92.3454 15.7787   1
   6   0  22 35.8030 10.3433  -2
   6   3  21 35.8030 10.3433   1
   7   3  21 5.87028 6.62372   1
  -4   4  21 -5.2518 4.71911   1
  -3   4  21 4.55625 6.21437   1
  -2   1  23 -6.2208 7.58353  -2
  -2   4  21 -6.2208 7.58353   1
  -1   4  21 11.7707 3.11147   1
   0   4  21 9.50985 3.27451   1
   1   4  21 18.0152 3.81866   1
   2   4  21 -3.5891 2.07648   1
   3   4  21 0.99871 2.67245   1
   4   4  21 -2.3794 2.83986   1
   5   4  21 22.3239 4.34073   1
   6   4  21 0.64527 2.98385   1
  -2   5  21 0.09229 3.45299   1
  -1   5  21 7.16128 2.83980   1
   0   5  21 1.18819 2.52182   1
   1   5  21 27.6591 4.55009   1
   2   2  23 7.45384 11.0530  -2
   2   5  21 7.45384 11.0530   1
   3   2  23 -3.3268 10.3587  -2
   3   5  21 -3.3268 10.3587   1
   4   2  23 35.1741 13.5161  -2
   4   5  21 35.1741 13.5161   1
   5   2  23 8.98501 10.9251  -2
   5   5  21 8.98501 10.9251   1
   6   5  21 6.49465 8.28497   1
  -2   6  21 13.2965 5.89428   1
  -1   6  21 7.10786 3.37149   1
   0   6  21 4.17504 2.97609   1
   1   3  24 4.04462 11.7315  -2
   1   6  21 4.04462 11.7315   1
   2   6  21 -9.1471 2.49192   1
   3   6  21 0.45375 2.96472   1
   4   6  21 31.5136 4.67282   1
   5   6  21 4.94061 7.50629   1
   1   7  21 -0.8912 3.41713   1
   2   7  21 2.96075 3.51185   1
   3   7  21 12.3813 12.9568   1
  -1  -6  22 3.73450 3.60296   1
   0  -6  22 -0.7410 3.13969   1
   1  -6  22 1.86630 4.12470   1
   2  -6  22 -4.1922 3.14624   1
  -3  -5  22 2.46594 3.07501   1
  -2  -8  17 -3.0305 10.9723  -2
  -2  -5  22 -3.0305 10.9723   1
  -1  -8  17 5.84927 11.6570  -2
  -1  -5  22 5.84927 11.6570   1
   0  -8  17 18.6945 12.6087  -2
   0  -5  22 18.6945 12.6087   1
   1  -8  17 42.3628 15.4371  -2
   1  -5  22 42.3628 15.4371   1
   2  -5  22 -0.2588 3.96425   1
   3  -5  22 86.4906 9.47528   1
   4  -5  22 -1.8057 3.99734   1
  -4  -4  22 5.06475 4.58015   1
  -3  -7  18 26.1300 16.8585  -2
  -3  -4  22 26.1300 16.8585   1
  -2  -7  18 31.3522 14.2963  -2
  -2  -4  22 31.3522 14.2963   1
  -1  -7  18 40.3232 14.6901  -2
  -1  -4  22 40.3232 14.6901   1
   0  -7  18 -0.0243 11.7145  -2
   0  -4  22 -0.0243 11.7145   1
   1  -7  18 -4.6667 11.5164  -2
   1  -4  22 -4.6667 11.5164   1
   2  -4  22 21.6259 5.65519   1
   3  -4  22 7.20415 4.11181   1
   4  -4  22 0.81466 3.91294   1
   5  -4  22 9.28910 4.97768   1
  -4  -6  19 3.05922 8.32085  -2
  -4  -3  22 3.05922 8.32085   1
  -3  -3  22 1.06996 2.90455   1
  -2  -6  19 9.83756 9.59636  -2
  -2  -3  22 9.83756 9.59636   1
  -1  -6  19 26.1232 8.41483  -2
  -1  -3  22 26.1232 8.41483   1
   0  -6  19 17.4796 11.4220  -2
   0  -3  22 17.4796 11.4220   1
   1  -3  22 3.05122 3.77158   1
   2  -3  22 15.1889 4.41433   1
   3  -3  22 3.98762 3.54720   1
   4  -3  22 51.4583 7.44286   1
   5  -3  22 3.82821 3.30174   1
  -4  -5  20 1.30007 6.88417  -2
  -4  -2  22 1.30007 6.88417   1
  -3  -5  20 -9.4719 7.49551  -2
  -3  -2  22 -9.4719 7.49551   1
  -2  -2  22 10.1928 3.23217   1
  -1  -2  22 53.1216 6.70583   1
   0  -2  22 36.7832 5.72863   1
   1  -5  19 143.857 25.6065  -2
   1  -2  22 143.857 25.6065   1
   2  -5  19 10.8266 10.9247  -2
   2  -2  22 10.8266 10.9247   1
   3  -5  19 37.5538 12.3807  -2
   3  -2  22 37.5538 12.3807   1
   4  -2  22 5.40129 3.01728   1
   5  -2  22 7.64550 3.51409   1
   6  -2  22 3.56167 3.59569   1
  -4  -1  22 -0.5375 4.16479   1
  -3  -1  22 0.09610 2.68099   1
  -2  -1  22 19.4601 3.53985   1
  -1  -4  20 4.28403 9.39387  -2
  -1  -1  22 4.28403 9.39387   1
   0  -4  20 -6.9747 7.62237  -2
   0  -1  22 -6.9747 7.62237   1
   1  -4  20 38.4497 8.88324  -2
   1  -1  22 38.4497 8.88324   1
   2  -4  20 14.1124 7.75485  -2
   2  -1  22 14.1124 7.75485   1
   3  -1  22 2.43297 2.64338   1
   4  -1  22 5.58079 3.26329   1
   5  -4  20 9.67808 8.34306  -2
   5  -1  22 9.67808 8.34306   1
   6  -1  22 6.27668 4.03302   1
  -4  -3  21 1.37684 7.10260  -2
  -4   0  22 1.37684 7.10260   1
  -3  -3  21 -5.8773 5.26280  -2
  -3   0  22 -5.8773 5.26280   1
  -2  -3  21 6.69593 7.16458  -2
  -2   0  22 6.69593 7.16458   1
  -1  -3  21 31.8850 13.2887  -2
  -1   0  22 31.8850 13.2887   1
   0  -3  21 3.20677 8.63482  -2
   0   0  22 3.20677 8.63482   1
   1  -3  21 22.8352 6.66335  -2
   1   0  22 22.8352 6.66335   1
   2  -3  21 4.33466 9.55124  -2
   2   0  22 4.33466 9.55124   1
   3  -3  21 23.2270 12.1934  -2
   3   0  22 23.2270 12.1934   1
   4   0  22 49.5358 5.72805   1
   5   0  22 5.13673 3.19489   1
   6   0  22 37.5643 5.34282   1
  -4   1  22 -5.8491 4.35121   1
  -3  -2  22 -7.2770 8.07619  -2
  -3   1  22 -7.2770 8.07619   1
  -2  -2  22 29.2008 10.1034  -2
  -2   1  22 29.2008 10.1034   1
  -1   1  22 17.8525 3.85830   1
   0   1  22 -0.0927 2.95398   1
   1   1  22 15.9399 3.21647   1
   2   1  22 -1.6736 2.40662   1
   3  -2  21 8.12375 11.2720  -2
   3   1  22 8.12375 11.2720   1
   4  -2  21 36.1633 14.0245  -2
   4   1  22 36.1633 14.0245   1
   5   1  22 25.0586 4.71023   1
   6   1  22 17.8965 4.17630   1
  -4   2  22 -5.7884 4.53058   1
  -3   2  22 3.18068 4.46578   1
  -2   2  22 1.91362 3.01031   1
  -1   2  22 5.05378 3.44578   1
   0   2  22 -0.8987 2.69729   1
   1  -1  22 5.69472 10.1015  -2
   1   2  22 5.69472 10.1015   1
   2  -1  22 20.1878 11.5825  -2
   2   2  22 20.1878 11.5825   1
   3  -1  22 14.8228 11.7744  -2
   3   2  22 14.8228 11.7744   1
   4  -1  22 28.6593 12.6952  -2
   4   2  22 28.6593 12.6952   1
   5  -1  22 19.0165 12.8252  -2
   5   2  22 19.0165 12.8252   1
   6  -1  22 78.4465 19.5500  -2
   6   2  22 78.4465 19.5500   1
  -4   3  22 0.05482 5.76698   1
  -3   3  22 31.8601 7.16657   1
  -2   0  23 3.06620 8.01901  -2
  -2   3  22 3.06620 8.01901   1
  -1   3  22 -0.1566 3.36981   1
   0   3  22 1.11958 2.82260   1
   1   3  22 22.4339 3.77713   1
   2   3  22 -1.9993 2.46602   1
   3   3  22 25.1133 4.37799   1
   4   0  23 29.4180 8.65553  -2
   4   3  22 29.4180 8.65553   1
   5   0  23 10.3128 7.45627  -2
   5   3  22 10.3128 7.45627   1
   6   0  23 1.18261 7.98691  -2
   6   3  22 1.18261 7.98691   1
  -3   4  22 1.16337 5.75062   1
  -2   4  22 48.3702 6.52837   1
  -1   4  22 6.42439 3.24357   1
   0   4  22 -2.5656 2.52733   1
   1   4  22 5.04597 2.81643   1
   2   4  22 2.37999 2.73627   1
   3   4  22 7.54133 3.35744   1
   4   4  22 76.1631 7.07562   1
   5   1  23 -10.991 9.53994  -2
   5   4  22 -10.991 9.53994   1
   6   4  22 11.2831 8.79410   1
  -2   5  22 16.8773 6.72558   1
  -1   5  22 1.38353 3.37358   1
   0   5  22 9.30898 3.59738   1
   1   5  22 0.54029 2.93542   1
   2   2  24 -12.475 11.1016  -2
   2   5  22 -12.475 11.1016   1
   3   5  22 6.18531 3.32696   1
   4   5  22 -0.7395 3.05404   1
   5   5  22 1.76339 3.07725   1
   0   6  22 2.71352 2.83258   1
   1   6  22 2.96535 3.37944   1
   2   3  25 -7.4031 12.9169  -2
   2   6  22 -7.4031 12.9169   1
   3   6  22 16.5193 4.11104   1
   4   6  22 2.84978 10.0335   1
  -2  -5  23 2.75047 4.40165   1
  -1  -8  18 13.0879 12.9618  -2
  -1  -5  23 13.0879 12.9618   1
   0  -8  18 43.7550 15.4952  -2
   0  -5  23 43.7550 15.4952   1
   1  -8  18 3.50856 11.9250  -2
   1  -5  23 3.50856 11.9250   1
   2  -8  18 -3.3472 12.8689  -2
   2  -5  23 -3.3472 12.8689   1
   3  -5  23 8.64592 4.34800   1
  -3  -4  23 2.48253 3.45778   1
  -2  -7  19 15.7249 8.95913  -2
  -2  -4  23 15.7249 8.95913   1
  -1  -7  19 7.14708 6.88755  -2
  -1  -4  23 7.14708 6.88755   1
   0  -7  19 15.9066 9.59990  -2
   0  -4  23 15.9066 9.59990   1
   1  -7  19 22.0421 9.40240  -2
   1  -4  23 22.0421 9.40240   1
   2  -7  19 48.0167 11.3481  -2
   2  -4  23 48.0167 11.3481   1
   3  -7  19 14.7731 12.3707  -2
   3  -4  23 14.7731 12.3707   1
   4  -4  23 26.7129 5.91594   1
  -3  -6  20 10.4847 7.56043  -2
  -3  -3  23 10.4847 7.56043   1
  -2  -6  20 -1.1235 7.10959  -2
  -2  -3  23 -1.1235 7.10959   1
  -1  -6  20 31.4892 14.4078  -2
  -1  -3  23 31.4892 14.4078   1
   0  -6  20 -12.780 9.84049  -2
   0  -3  23 -12.780 9.84049   1
   1  -6  20 -5.3024 10.7224  -2
   1  -3  23 -5.3024 10.7224   1
   2  -6  20 -2.1265 11.8794  -2
   2  -3  23 -2.1265 11.8794   1
   3  -6  19 4.28391 10.8446  -2
   3  -3  23 4.28391 10.8446   1
   4  -3  23 19.2515 6.21122   1
   5  -3  23 37.1850 7.35277   1
  -4  -5  21 10.0979 8.60927  -2
  -4  -2  23 10.0979 8.60927   1
  -3  -5  21 4.14345 7.73001  -2
  -3  -2  23 4.14345 7.73001   1
  -2  -5  21 5.07630 8.99651  -2
  -2  -2  23 5.07630 8.99651   1
  -1  -2  23 9.39715 4.43756   1
   0  -2  23 39.7952 6.14753   1
   1  -2  23 3.75401 3.95959   1
   2  -5  20 22.3615 13.3260  -2
   2  -2  23 22.3615 13.3260   1
   3  -5  20 -6.2516 7.54512  -2
   3  -2  23 -6.2516 7.54512   1
   4  -2  23 9.38200 4.78083   1
   5  -2  23 7.92085 3.53239   1
  -4  -1  23 3.71278 5.30132   1
  -3  -1  23 9.87366 3.09143   1
  -2  -1  23 7.33146 3.01838   1
  -1  -1  23 7.80347 4.11131   1
   0  -4  21 37.8947 12.7918  -2
   0  -1  23 37.8947 12.7918   1
   1  -4  21 35.6469 13.0694  -2
   1  -1  23 35.6469 13.0694   1
   2  -4  21 -3.5878 7.66089  -2
   2  -1  23 -3.5878 7.66089   1
   3  -4  21 -2.8771 9.55148  -2
   3  -1  23 -2.8771 9.55148   1
   4  -4  21 23.4758 7.43805  -2
   4  -1  23 23.4758 7.43805   1
   5  -4  21 9.42231 7.27120  -2
   5  -1  23 9.42231 7.27120   1
   6  -1  23 4.60103 12.1210   1
  -4   0  23 5.80687 4.51261   1
  -3  -3  22 -1.1870 7.88961  -2
  -3   0  23 -1.1870 7.88961   1
  -2  -3  22 -7.6811 7.07243  -2
  -2   0  23 -7.6811 7.07243   1
  -1   0  23 6.80443 3.69504   1
   0   0  23 -4.9590 3.20275   1
   1   0  23 18.8237 5.09005   1
   2   0  23 -1.5768 3.73809   1
   3  -3  22 -0.7683 11.2954  -2
   3   0  23 -0.7683 11.2954   1
   4  -3  22 19.3205 14.1332  -2
   4   0  23 19.3205 14.1332   1
   5   0  23 20.4128 4.21955   1
   6   0  23 6.05581 3.55329   1
  -4   1  23 -3.5954 5.22811   1
  -3   1  23 8.87670 4.93719   1
  -2   1  23 -1.0803 2.96060   1
  -1   1  23 9.47232 4.18987   1
   0   1  23 10.6405 3.87999   1
   1   1  23 26.5175 5.33976   1
   2   1  23 1.04062 2.45526   1
   3   1  23 12.2672 3.30487   1
   4  -2  22 11.7652 11.7771  -2
   4   1  23 11.7652 11.7771   1
   5  -2  22 -11.249 10.7061  -2
   5   1  23 -11.249 10.7061   1
   6  -2  22 11.0891 13.5890  -2
   6   1  23 11.0891 13.5890   1
  -3   2  23 17.4508 5.22898   1
  -2   2  23 56.3582 5.89916   1
  -1   2  23 0.62897 3.29687   1
   0   2  23 12.0471 4.31775   1
   1   2  23 18.3828 6.01107   1
   2   2  23 3.59040 2.71466   1
   3   2  23 -0.5008 2.58998   1
   4   2  23 36.0508 5.20006   1
   5  -1  23 -9.7636 12.9527  -2
   5   2  23 -9.7636 12.9527   1
   6   2  23 1.72922 4.48281   1
  -3   3  23 7.69196 6.07738   1
  -2   3  23 5.05689 3.47556   1
  -1   3  23 4.78752 3.64710   1
   0   3  23 -1.4613 4.07369   1
   1   3  23 -1.7031 2.95198   1
   2   3  23 37.1309 5.13463   1
   3   3  23 1.59744 2.84946   1
   4   3  23 2.16268 3.02711   1
   5   3  23 1.44926 3.09837   1
  -2   4  23 11.1450 3.95588   1
  -1   4  23 3.91382 3.64388   1
   0   4  23 2.95632 3.79879   1
   1   4  23 0.05086 2.89553   1
   2   4  23 -3.0831 2.59919   1
   3   4  23 26.5092 4.36336   1
   4   4  23 7.99676 3.51318   1
   5   4  23 5.12207 3.29785   1
  -1   5  23 11.5830 4.57952   1
   0   5  23 5.07498 2.75475   1
   1   5  23 8.14403 3.18486   1
   2   2  25 3.24844 11.6963  -2
   2   5  23 3.24844 11.6963   1
   3   2  25 2.64610 13.3756  -2
   3   5  23 2.64610 13.3756   1
   4   2  25 5.55966 14.1456  -2
   4   5  23 5.55966 14.1456   1
  -2  -4  24 -5.3326 4.48500   1
  -1  -7  20 -1.4720 6.93078  -2
  -1  -4  24 -1.4720 6.93078   1
   0  -7  20 5.84727 8.32681  -2
   0  -4  24 5.84727 8.32681   1
   1  -7  20 -3.7973 10.0857  -2
   1  -4  24 -3.7973 10.0857   1
   2  -7  20 42.3944 15.4299  -2
   2  -4  24 42.3944 15.4299   1
   3  -4  24 6.44694 4.45217   1
  -2  -6  21 -1.1332 7.47172  -2
  -2  -3  24 -1.1332 7.47172   1
  -1  -3  24 7.59522 6.28473   1
   0  -3  24 12.4802 4.78242   1
   1  -3  24 10.1525 4.54810   1
   2  -6  21 1.36279 13.7584  -2
   2  -3  24 1.36279 13.7584   1
   3  -6  21 9.22292 15.3603  -2
   3  -3  24 9.22292 15.3603   1
   4  -3  24 2.27507 4.46144   1
  -3  -2  24 8.63737 4.18598   1
  -2  -2  24 0.86006 3.26508   1
  -1  -2  24 15.1358 4.81536   1
   0  -2  24 18.5427 4.85274   1
   1  -2  24 -1.2802 3.68645   1
   2  -2  24 0.29696 3.79292   1
   3  -5  21 6.46758 11.7450  -2
   3  -2  24 6.46758 11.7450   1
   4  -5  21 -5.9563 13.5642  -2
   4  -2  24 -5.9563 13.5642   1
  -3  -1  24 52.7355 12.4747   1
  -2  -1  24 0.31708 2.84043   1
  -1  -1  24 54.9377 7.05315   1
   0  -1  24 12.4482 4.40042   1
   1  -1  24 -3.9816 3.61501   1
   2  -4  22 0.19089 9.27228  -2
   2  -1  24 0.19089 9.27228   1
   3  -4  22 -1.1816 12.8724  -2
   3  -1  24 -1.1816 12.8724   1
   4  -4  22 42.4772 17.4928  -2
   4  -1  24 42.4772 17.4928   1
   5  -4  22 1.12861 15.2307  -2
   5  -1  24 1.12861 15.2307   1
  -3   0  24 23.9636 6.03225   1
  -2   0  24 9.48891 3.42283   1
  -1   0  24 35.9951 5.40368   1
   0   0  24 8.26493 3.94198   1
   1   0  24 -1.2240 3.56135   1
   2   0  24 -9.8941 3.61430   1
   3   0  24 -2.4875 4.31323   1
   4   0  24 8.59037 3.19924   1
   5   0  24 -3.2654 3.06003   1
  -3   1  24 10.4012 5.12470   1
  -2   1  24 29.2218 4.68401   1
  -1   1  24 4.19029 3.78887   1
   0   1  24 10.1116 3.67773   1
   1   1  24 1.72888 4.18743   1
   2   1  24 17.8777 5.06434   1
   3   1  24 -9.3018 2.78400   1
   4   1  24 5.71881 3.37266   1
   5   1  24 -1.4743 3.21638   1
  -2   2  24 8.84070 3.66214   1
  -1   2  24 43.2435 6.76948   1
   0   2  24 4.88386 3.47784   1
   1   2  24 0.41676 4.00309   1
   2   2  24 14.3275 4.78843   1
   3   2  24 40.9413 5.73519   1
   4   2  24 6.65227 3.36377   1
   5   2  24 28.5242 4.40783   1
  -2   3  24 -1.4907 3.22524   1
  -1   3  24 30.1557 5.27483   1
   0   3  24 -2.8787 3.75962   1
   1   3  24 21.6558 5.39594   1
   2   3  24 0.16772 2.67577   1
   3   3  24 -3.0451 2.80845   1
   4   3  24 32.1687 4.97055   1
  -1   4  24 10.6778 4.27967   1
   0   4  24 11.5892 4.69005   1
   1   4  24 19.6054 5.29208   1
   2   4  24 3.12829 2.90447   1
   3   4  24 11.9144 3.72904   1
   4   4  24 -2.1234 3.61313   1
   1   5  24 6.22562 10.2690   1
   2   5  24 1.42295 10.6092   1
  -1  -6  22 46.2130 12.7046  -2
  -1  -3  25 46.2130 12.7046   1
   0  -3  25 3.48984 4.55658   1
   1  -3  25 4.06772 4.40118   1
   2  -3  25 -2.0031 4.56067   1
  -2  -2  25 0.12493 4.14261   1
  -1  -2  25 1.50831 3.22751   1
   0  -2  25 -0.6360 3.44808   1
   1  -2  25 1.70401 3.61142   1
   2  -2  25 37.5470 8.58150   1
   3  -2  25 2.69959 4.45244   1
  -2  -1  25 -2.4849 3.26225   1
  -1  -1  25 5.23022 3.60026   1
   0  -1  25 1.72925 4.13356   1
   1  -1  25 2.12346 3.74942   1
   2  -1  25 18.3620 5.52147   1
   3  -1  25 13.6789 5.84643   1
   4  -4  23 8.23379 11.7791  -2
   4  -1  25 8.23379 11.7791   1
  -2   0  25 -1.0044 3.02589   1
  -1   0  25 -1.1475 4.03702   1
   0   0  25 0.67923 3.22647   1
   1   0  25 -4.5011 3.89849   1
   2   0  25 -1.8133 4.13689   1
   3   0  25 2.60438 5.14566   1
   4   0  25 4.09579 4.51645   1
  -2   1  25 2.53741 3.09247   1
  -1   1  25 1.69148 4.18201   1
   0   1  25 4.60855 3.97121   1
   1   1  25 5.95722 4.49064   1
   2   1  25 8.99112 4.83924   1
   3   1  25 10.0723 5.23194   1
   4   1  25 6.49136 3.55159   1
  -1   2  25 6.32576 4.55280   1
   0   2  25 6.78334 4.59810   1
   1   2  25 -1.8843 4.37236   1
   2   2  25 8.13111 3.88551   1
   3   2  25 -4.4514 3.68507   1
   4   2  25 5.69037 3.42151   1
  -1   3  25 1.56605 6.84147   1
   0   3  25 4.06180 5.07266   1
   1   3  25 6.22717 3.96016   1
   2   3  25 -1.1226 3.81358   1
   3   3  25 5.32631 3.49215   1
   1  -2  26 14.0228 5.49841   1
  -1  -1  26 4.64834 6.41261   1
   0  -1  26 -4.9460 3.80678   1
   1  -1  26 8.37306 4.69566   1
   2  -1  26 13.7355 6.22122   1
  -1   0  26 15.3364 8.38971   1
   0   0  26 9.71346 4.33909   1
   1   0  26 7.17376 4.69523   1
   2   0  26 9.19993 5.32023   1
   3   0  26 12.2726 9.02962   1
   0   1  26 0.77328 4.57575   1
   1   1  26 1.76323 4.62572   1
   2   1  26 10.3141 4.00638   1
   3   1  26 14.9337 11.6127   1
   1   2  26 14.1977 4.91218   1
   2   2  26 40.4855 15.9729   1
   0   0   0    0.00    0.00   0

;
_shelx_hkl_checksum              48395
#END Tags that were not found in dictionaries
loop_
_space_group_symop_operation_xyz
'x, y, z'
'-x, -y, -z'
loop_
_atom_site_type_symbol
_atom_site_label
_atom_site_fract_x
_atom_site_fract_y
_atom_site_fract_z
_atom_site_U_iso_or_equiv
_atom_site_adp_type
_atom_site_calc_flag
_atom_site_refinement_flags_adp
_atom_site_refinement_flags_posn
_atom_site_occupancy
C C1 1.1057(7) 0.5597(7) 0.3986(3) 0.0275(13) Uani d . . 1
H H1 1.0512 0.6312 0.3707 0.033 Uiso calc U R 1
C C2 1.1733(7) 0.6105(6) 0.4537(3) 0.0277(13) Uani d . . 1
H H2 1.1673 0.7156 0.463 0.033 Uiso calc U R 1
C C3 1.2509(6) 0.5050(6) 0.4957(3) 0.0251(12) Uani d . . 1
C C4 1.3723(8) 0.4624(7) 0.5993(4) 0.0337(14) Uani d . . 1
H H4A 1.2849 0.3987 0.616 0.051 Uiso calc U R 1
H H4B 1.404 0.5196 0.6366 0.051 Uiso calc U R 1
H H4C 1.4702 0.3986 0.5788 0.051 Uiso calc U R 1
C C5 1.2658(7) 0.3526(6) 0.4809(3) 0.0273(13) Uani d . . 1
H H5 1.3223 0.2818 0.5085 0.033 Uiso calc U R 1
C C6 1.1973(7) 0.3033(6) 0.4250(3) 0.0268(13) Uani d . . 1
H H6 1.206 0.1984 0.4151 0.032 Uiso calc U R 1
C C7 1.1152(7) 0.4080(7) 0.3832(3) 0.0263(13) Uani d . . 1
C C8 1.0357(7) 0.3530(7) 0.3257(3) 0.0261(12) Uani d . . 1
C C9 1.0033(8) 0.4384(8) 0.2722(4) 0.0337(14) Uani d . . 1
H H9 1.0421 0.5356 0.2682 0.04 Uiso calc U R 1
C C10 0.9121(8) 0.3871(8) 0.2209(3) 0.0329(14) Uani d . . 1
C C11 0.8325(8) 0.3419(8) 0.1789(4) 0.0362(15) Uani d . . 1
C C12 0.5131(8) 0.1931(10) 0.1765(4) 0.0415(17) Uani d . . 1
H H12 0.5455 0.083 0.1833 0.05 Uiso calc U R 1
C C13 0.4757(9) 0.2618(10) 0.2464(4) 0.0456(18) Uani d . . 1
H H13A 0.4446 0.3707 0.2429 0.068 Uiso calc U R 1
H H13B 0.5753 0.2441 0.2703 0.068 Uiso calc U R 1
H H13C 0.3832 0.2147 0.271 0.068 Uiso calc U R 1
C C14 0.3534(9) 0.2028(12) 0.1408(5) 0.056(2) Uani d . . 1
H H14A 0.2651 0.1579 0.1691 0.085 Uiso calc U R 1
H H14B 0.3768 0.1476 0.0982 0.085 Uiso calc U R 1
H H14C 0.3166 0.3089 0.1322 0.085 Uiso calc U R 1
C C15 0.8262(9) 0.1051(9) 0.0740(4) 0.0439(18) Uani d . . 1
H H15 0.9188 0.15 0.0462 0.053 Uiso calc U R 1
C C16 0.9079(10) -0.0146(11) 0.1198(5) 0.054(2) Uani d . . 1
H H16A 0.8205 -0.0577 0.1494 0.08 Uiso calc U R 1
H H16B 0.9821 0.0329 0.1469 0.08 Uiso calc U R 1
H H16C 0.9728 -0.095 0.0922 0.08 Uiso calc U R 1
C C17 0.7234(10) 0.0322(12) 0.0258(5) 0.061(3) Uani d . . 1
H H17A 0.7965 -0.0421 -0.0024 0.092 Uiso calc U R 1
H H17B 0.6729 0.1104 -0.0026 0.092 Uiso calc U R 1
H H17C 0.635 -0.0182 0.0514 0.092 Uiso calc U R 1
C C18 0.6293(8) 0.4259(9) 0.0669(4) 0.0409(17) Uani d . . 1
H H18 0.5469 0.3897 0.0386 0.049 Uiso calc U R 1
C C19 0.5434(11) 0.5641(10) 0.1062(4) 0.053(2) Uani d . . 1
H H19A 0.6211 0.6013 0.1348 0.08 Uiso calc U R 1
H H19B 0.4443 0.5359 0.134 0.08 Uiso calc U R 1
H H19C 0.5098 0.6435 0.0748 0.08 Uiso calc U R 1
C C20 0.7783(10) 0.4727(12) 0.0194(5) 0.057(2) Uani d . . 1
H H20A 0.74 0.558 -0.0081 0.085 Uiso calc U R 1
H H20B 0.8249 0.3873 -0.0096 0.085 Uiso calc U R 1
H H20C 0.8645 0.5026 0.0459 0.085 Uiso calc U R 1
C C21 0.9885(7) 0.1941(7) 0.3294(3) 0.0271(13) Uani d . . 1
C C22 0.6825(7) -0.0578(6) 0.3645(3) 0.0251(12) Uani d . . 1
C C23 0.5145(7) -0.0405(6) 0.3902(3) 0.0279(13) Uani d . . 1
H H23 0.481 0.0062 0.4326 0.033 Uiso calc U R 1
C C24 0.3957(7) -0.0930(7) 0.3528(4) 0.0325(14) Uani d . . 1
H H24 0.2808 -0.0816 0.3698 0.039 Uiso calc U R 1
C C25 0.4448(8) -0.1612(7) 0.2911(4) 0.0342(15) Uani d . . 1
C C26 0.3152(9) -0.2187(10) 0.2508(4) 0.0477(19) Uani d . . 1
H H26A 0.2029 -0.1795 0.2704 0.071 Uiso calc U R 1
H H26B 0.3257 -0.3294 0.2517 0.071 Uiso calc U R 1
H H26C 0.3334 -0.1842 0.2044 0.071 Uiso calc U R 1
C C27 0.6154(8) -0.1802(8) 0.2664(4) 0.0370(15) Uani d . . 1
H H27 0.6501 -0.2301 0.2248 0.044 Uiso calc U R 1
C C28 0.7333(7) -0.1255(7) 0.3032(4) 0.0322(14) Uani d . . 1
H H28 0.8481 -0.1347 0.286 0.039 Uiso calc U R 1
N N1 0.8714(6) 0.1713(6) 0.3840(3) 0.0284(11) Uani d . . 1
H H1N 0.8166 0.2519 0.4042 0.034 Uiso calc U R 1
O O1 1.3102(5) 0.5654(5) 0.5502(2) 0.0286(10) Uani d . . 1
O O2 1.0435(6) 0.0962(5) 0.2897(2) 0.0347(11) Uani d . . 1
O O3 0.7497(5) 0.0363(5) 0.4792(2) 0.0322(10) Uani d . . 1
O O4 0.9776(5) -0.0958(5) 0.4033(2) 0.0314(10) Uani d . . 1
S S1 0.82827(17) 0.00489(16) 0.41355(9) 0.0267(4) Uani d . . 1
Si Si1 0.6961(2) 0.2654(3) 0.12308(10) 0.0373(5) Uani d . . 1
loop_
_atom_site_aniso_label
_atom_site_aniso_U_11
_atom_site_aniso_U_22
_atom_site_aniso_U_33
_atom_site_aniso_U_12
_atom_site_aniso_U_13
_atom_site_aniso_U_23
C1 0.016(3) 0.027(3) 0.042(4) -0.005(2) -0.007(2) 0.004(2)
C2 0.015(3) 0.015(2) 0.054(4) -0.003(2) -0.008(2) 0.004(2)
C3 0.009(2) 0.019(3) 0.048(4) 0.0010(19) -0.007(2) -0.002(2)
C4 0.026(3) 0.027(3) 0.051(4) -0.005(2) -0.015(3) 0.004(3)
C5 0.012(2) 0.019(3) 0.053(4) 0.002(2) -0.013(2) 0.002(2)
C6 0.015(3) 0.018(3) 0.048(4) 0.001(2) -0.009(2) -0.002(2)
C7 0.012(2) 0.022(3) 0.046(4) -0.003(2) -0.008(2) 0.001(2)
C8 0.011(2) 0.023(3) 0.044(4) -0.001(2) -0.004(2) -0.001(2)
C9 0.020(3) 0.036(3) 0.047(4) -0.005(2) -0.010(3) 0.002(3)
C10 0.025(3) 0.039(4) 0.036(4) -0.005(3) -0.007(3) 0.006(3)
C11 0.025(3) 0.045(4) 0.040(4) -0.001(3) -0.007(3) 0.001(3)
C12 0.023(3) 0.054(5) 0.048(4) -0.005(3) -0.005(3) -0.002(3)
C13 0.031(4) 0.056(5) 0.049(5) -0.006(3) -0.001(3) 0.003(4)
C14 0.019(3) 0.088(7) 0.065(5) -0.014(4) -0.008(3) -0.004(5)
C15 0.027(3) 0.056(5) 0.050(5) -0.010(3) -0.003(3) -0.008(4)
C16 0.033(4) 0.066(6) 0.061(5) 0.000(4) -0.004(4) -0.007(4)
C17 0.032(4) 0.085(7) 0.065(6) 0.011(4) -0.013(4) -0.030(5)
C18 0.024(3) 0.056(5) 0.047(4) -0.012(3) -0.015(3) 0.003(3)
C19 0.048(5) 0.059(5) 0.055(5) 0.001(4) -0.019(4) -0.001(4)
C20 0.032(4) 0.075(6) 0.065(6) -0.006(4) -0.013(4) 0.017(5)
C21 0.015(2) 0.020(3) 0.047(4) 0.003(2) -0.012(2) 0.001(2)
C22 0.014(2) 0.018(3) 0.045(4) -0.003(2) -0.006(2) 0.003(2)
C23 0.016(3) 0.021(3) 0.047(4) -0.002(2) -0.005(2) 0.000(2)
C24 0.013(3) 0.030(3) 0.055(4) 0.000(2) -0.008(3) -0.001(3)
C25 0.022(3) 0.031(3) 0.053(4) -0.004(2) -0.013(3) 0.000(3)
C26 0.024(3) 0.059(5) 0.063(5) -0.010(3) -0.011(3) -0.011(4)
C27 0.021(3) 0.041(4) 0.051(4) -0.008(3) -0.005(3) -0.009(3)
C28 0.013(3) 0.032(3) 0.053(4) -0.004(2) -0.006(3) -0.002(3)
N1 0.014(2) 0.023(2) 0.049(3) 0.0014(18) -0.009(2) -0.003(2)
O1 0.0180(19) 0.022(2) 0.048(3) -0.0024(15) -0.0121(18) -0.0007(18)
O2 0.025(2) 0.034(2) 0.045(3) -0.0023(19) -0.006(2) -0.003(2)
O3 0.027(2) 0.026(2) 0.048(3) -0.0147(18) -0.0121(19) 0.0044(19)
O4 0.0136(19) 0.024(2) 0.058(3) 0.0003(15) -0.0114(18) 0.0021(19)
S1 0.0157(6) 0.0183(6) 0.0476(9) -0.0034(5) -0.0087(6) 0.0020(6)
Si1 0.0196(8) 0.0543(13) 0.0395(11) -0.0045(8) -0.0086(7) -0.0035(9)
loop_
_atom_type_symbol
_atom_type_description
_atom_type_scat_dispersion_real
_atom_type_scat_dispersion_imag
_atom_type_scat_source
C C 0.0033 0.0016 'International Tables Vol C Tables 4.2.6.8 and 6.1.1.4'
H H 0.0000 0.0000 'International Tables Vol C Tables 4.2.6.8 and 6.1.1.4'
N N 0.0061 0.0033 'International Tables Vol C Tables 4.2.6.8 and 6.1.1.4'
O O 0.0106 0.0060 'International Tables Vol C Tables 4.2.6.8 and 6.1.1.4'
S S 0.1246 0.1234 'International Tables Vol C Tables 4.2.6.8 and 6.1.1.4'
Si Si 0.0817 0.0704 'International Tables Vol C Tables 4.2.6.8 and 6.1.1.4'
loop_
_geom_angle_atom_site_label_1
_geom_angle_atom_site_label_2
_geom_angle_atom_site_label_3
_geom_angle
C7 C1 C2 121.8(6)
C7 C1 H1 119.1
C2 C1 H1 119.1
C1 C2 C3 119.2(5)
C1 C2 H2 120.4
C3 C2 H2 120.4
O1 C3 C5 124.3(5)
O1 C3 C2 115.1(5)
C5 C3 C2 120.6(6)
O1 C4 H4A 109.5
O1 C4 H4B 109.5
H4A C4 H4B 109.5
O1 C4 H4C 109.5
H4A C4 H4C 109.5
H4B C4 H4C 109.5
C3 C5 C6 119.5(5)
C3 C5 H5 120.3
C6 C5 H5 120.3
C5 C6 C7 120.6(5)
C5 C6 H6 119.7
C7 C6 H6 119.7
C1 C7 C6 118.4(6)
C1 C7 C8 121.7(5)
C6 C7 C8 119.9(5)
C9 C8 C7 123.5(6)
C9 C8 C21 119.4(6)
C7 C8 C21 117.1(5)
C8 C9 C10 122.0(6)
C8 C9 H9 119.0
C10 C9 H9 119.0
C11 C10 C9 178.3(7)
C10 C11 Si1 173.5(6)
C13 C12 C14 110.6(6)
C13 C12 Si1 115.1(5)
C14 C12 Si1 112.7(6)
C13 C12 H12 105.9
C14 C12 H12 105.9
Si1 C12 H12 105.9
C12 C13 H13A 109.5
C12 C13 H13B 109.5
H13A C13 H13B 109.5
C12 C13 H13C 109.5
H13A C13 H13C 109.5
H13B C13 H13C 109.5
C12 C14 H14A 109.5
C12 C14 H14B 109.5
H14A C14 H14B 109.5
C12 C14 H14C 109.5
H14A C14 H14C 109.5
H14B C14 H14C 109.5
C17 C15 C16 111.1(7)
C17 C15 Si1 111.2(5)
C16 C15 Si1 112.6(6)
C17 C15 H15 107.2
C16 C15 H15 107.2
Si1 C15 H15 107.2
C15 C16 H16A 109.5
C15 C16 H16B 109.5
H16A C16 H16B 109.5
C15 C16 H16C 109.5
H16A C16 H16C 109.5
H16B C16 H16C 109.5
C15 C17 H17A 109.5
C15 C17 H17B 109.5
H17A C17 H17B 109.5
C15 C17 H17C 109.5
H17A C17 H17C 109.5
H17B C17 H17C 109.5
C19 C18 C20 109.4(7)
C19 C18 Si1 112.6(6)
C20 C18 Si1 111.5(5)
C19 C18 H18 107.7
C20 C18 H18 107.7
Si1 C18 H18 107.7
C18 C19 H19A 109.5
C18 C19 H19B 109.5
H19A C19 H19B 109.5
C18 C19 H19C 109.5
H19A C19 H19C 109.5
H19B C19 H19C 109.5
C18 C20 H20A 109.5
C18 C20 H20B 109.5
H20A C20 H20B 109.5
C18 C20 H20C 109.5
H20A C20 H20C 109.5
H20B C20 H20C 109.5
O2 C21 N1 123.0(6)
O2 C21 C8 124.3(6)
N1 C21 C8 112.7(5)
C28 C22 C23 121.3(5)
C28 C22 S1 120.9(4)
C23 C22 S1 117.8(5)
C22 C23 C24 119.0(6)
C22 C23 H23 120.5
C24 C23 H23 120.5
C25 C24 C23 120.4(6)
C25 C24 H24 119.8
C23 C24 H24 119.8
C24 C25 C27 119.9(6)
C24 C25 C26 120.1(6)
C27 C25 C26 120.0(7)
C25 C26 H26A 109.5
C25 C26 H26B 109.5
H26A C26 H26B 109.5
C25 C26 H26C 109.5
H26A C26 H26C 109.5
H26B C26 H26C 109.5
C28 C27 C25 119.7(7)
C28 C27 H27 120.2
C25 C27 H27 120.2
C22 C28 C27 119.7(6)
C22 C28 H28 120.1
C27 C28 H28 120.1
C21 N1 S1 124.9(4)
C21 N1 H1N 117.6
S1 N1 H1N 117.6
C3 O1 C4 117.6(5)
O3 S1 O4 120.4(3)
O3 S1 N1 104.2(3)
O4 S1 N1 107.7(3)
O3 S1 C22 109.1(3)
O4 S1 C22 108.1(3)
N1 S1 C22 106.6(3)
C11 Si1 C18 106.1(3)
C11 Si1 C12 108.3(3)
C18 Si1 C12 112.6(3)
C11 Si1 C15 106.9(3)
C18 Si1 C15 111.8(4)
C12 Si1 C15 110.8(4)
loop_
_geom_bond_atom_site_label_1
_geom_bond_atom_site_label_2
_geom_bond_distance
C1 C7 1.380(8)
C1 C2 1.385(9)
C1 H1 0.95
C2 C3 1.402(8)
C2 H2 0.95
C3 O1 1.376(7)
C3 C5 1.381(8)
C4 O1 1.437(7)
C4 H4A 0.98
C4 H4B 0.98
C4 H4C 0.98
C5 C6 1.396(8)
C5 H5 0.95
C6 C7 1.413(8)
C6 H6 0.95
C7 C8 1.489(8)
C8 C9 1.345(9)
C8 C21 1.501(8)
C9 C10 1.433(9)
C9 H9 0.95
C10 C11 1.210(9)
C11 Si1 1.835(7)
C12 C13 1.522(11)
C12 C14 1.539(10)
C12 Si1 1.897(8)
C12 H12 1.0
C13 H13A 0.98
C13 H13B 0.98
C13 H13C 0.98
C14 H14A 0.98
C14 H14B 0.98
C14 H14C 0.98
C15 C17 1.532(10)
C15 C16 1.546(12)
C15 Si1 1.898(8)
C15 H15 1.0
C16 H16A 0.98
C16 H16B 0.98
C16 H16C 0.98
C17 H17A 0.98
C17 H17B 0.98
C17 H17C 0.98
C18 C19 1.529(12)
C18 C20 1.543(11)
C18 Si1 1.885(8)
C18 H18 1.0
C19 H19A 0.98
C19 H19B 0.98
C19 H19C 0.98
C20 H20A 0.98
C20 H20B 0.98
C20 H20C 0.98
C21 O2 1.203(8)
C21 N1 1.397(8)
C22 C28 1.378(9)
C22 C23 1.394(8)
C22 S1 1.752(6)
C23 C24 1.400(8)
C23 H23 0.95
C24 C25 1.384(10)
C24 H24 0.95
C25 C27 1.408(9)
C25 C26 1.522(9)
C26 H26A 0.98
C26 H26B 0.98
C26 H26C 0.98
C27 C28 1.395(9)
C27 H27 0.95
C28 H28 0.95
N1 S1 1.648(5)
N1 H1N 0.88
O3 S1 1.416(5)
O4 S1 1.425(4)
