#------------------------------------------------------------------------------
#$Date: 2016-02-18 17:37:37 +0200 (Thu, 18 Feb 2016) $
#$Revision: 176729 $
#$URL: svn://www.crystallography.net/cod/cif/1/51/89/1518995.cif $
#------------------------------------------------------------------------------
#
# This file is available in the Crystallography Open Database (COD),
# http://www.crystallography.net/
#
# All data on this site have been placed in the public domain by the
# contributors.
#
data_1518995
loop_
_publ_author_name
'Zhu, Haitao'
'Chen, Pinhong'
'Liu, Guosheng'
_publ_section_title
;
 Palladium-catalyzed intramolecular aminoacetoxylation of unactivated
 alkenes with hydrogen peroxide as oxidant.
;
_journal_issue                   6
_journal_name_full               'Organic letters'
_journal_page_first              1485
_journal_page_last               1488
_journal_paper_doi               10.1021/acs.orglett.5b00373
_journal_volume                  17
_journal_year                    2015
_chemical_formula_sum            'C15 H21 N O4 S'
_chemical_formula_weight         311.39
_chemical_name_systematic
; 
 ? 
;
_space_group_crystal_system      orthorhombic
_space_group_IT_number           60
_space_group_name_Hall           '-P 2n 2ab'
_space_group_name_H-M_alt        'P b c n'
_symmetry_space_group_name_Hall  '-P 2n 2ab'
_symmetry_space_group_name_H-M   'P b c n'
_atom_sites_solution_hydrogens   geom
_audit_creation_method           SHELXL-2013
_cell_angle_alpha                90
_cell_angle_beta                 90
_cell_angle_gamma                90
_cell_formula_units_Z            8
_cell_length_a                   16.428(6)
_cell_length_b                   13.329(5)
_cell_length_c                   14.387(5)
_cell_measurement_reflns_used    1795
_cell_measurement_temperature    293(2)
_cell_measurement_theta_max      42.017
_cell_measurement_theta_min      4.844
_cell_volume                     3150(2)
_computing_cell_refinement       'Bruker SMART'
_computing_data_collection       'Bruker SMART'
_computing_data_reduction        'Bruker SHELXTL'
_computing_molecular_graphics    'Bruker SHELXTL'
_computing_publication_material  'Bruker SHELXTL'
_computing_structure_refinement  'SHELXL-2013 (Sheldrick, 2013)'
_computing_structure_solution    'Bruker SHELXTL'
_diffrn_ambient_temperature      293(2)
_diffrn_measured_fraction_theta_full 1.000
_diffrn_measured_fraction_theta_max 1.000
_diffrn_measurement_device_type  'CCD area detector'
_diffrn_measurement_method       'phi and omega scans'
_diffrn_radiation_type           MoK\a
_diffrn_radiation_wavelength     0.71073
_diffrn_reflns_av_R_equivalents  0.0897
_diffrn_reflns_av_unetI/netI     0.0611
_diffrn_reflns_Laue_measured_fraction_full 1.000
_diffrn_reflns_Laue_measured_fraction_max 1.000
_diffrn_reflns_limit_h_max       19
_diffrn_reflns_limit_h_min       -17
_diffrn_reflns_limit_k_max       10
_diffrn_reflns_limit_k_min       -16
_diffrn_reflns_limit_l_max       17
_diffrn_reflns_limit_l_min       -17
_diffrn_reflns_number            16683
_diffrn_reflns_point_group_measured_fraction_full 1.000
_diffrn_reflns_point_group_measured_fraction_max 1.000
_diffrn_reflns_theta_full        25.242
_diffrn_reflns_theta_max         25.498
_diffrn_reflns_theta_min         1.967
_exptl_absorpt_coefficient_mu    0.220
_exptl_absorpt_correction_T_max  0.7457
_exptl_absorpt_correction_T_min  0.5500
_exptl_absorpt_correction_type   multi-scan
_exptl_absorpt_process_details   sadabs
_exptl_crystal_colour            colorless
_exptl_crystal_density_diffrn    1.313
_exptl_crystal_description       prismatic
_exptl_crystal_F_000             1328
_exptl_crystal_size_max          0.211
_exptl_crystal_size_mid          0.156
_exptl_crystal_size_min          0.122
_refine_diff_density_max         0.341
_refine_diff_density_min         -0.291
_refine_diff_density_rms         0.054
_refine_ls_extinction_method     none
_refine_ls_goodness_of_fit_ref   0.996
_refine_ls_hydrogen_treatment    constr
_refine_ls_matrix_type           full
_refine_ls_number_parameters     193
_refine_ls_number_reflns         2933
_refine_ls_number_restraints     0
_refine_ls_restrained_S_all      0.996
_refine_ls_R_factor_all          0.0951
_refine_ls_R_factor_gt           0.0525
_refine_ls_shift/su_max          0.001
_refine_ls_shift/su_mean         0.000
_refine_ls_structure_factor_coef Fsqd
_refine_ls_weighting_details
'w=1/[\s^2^(Fo^2^)+(0.0765P)^2^] where P=(Fo^2^+2Fc^2^)/3'
_refine_ls_weighting_scheme      calc
_refine_ls_wR_factor_gt          0.1259
_refine_ls_wR_factor_ref         0.1452
_reflns_Friedel_coverage         0.000
_reflns_number_gt                1797
_reflns_number_total             2933
_reflns_threshold_expression     'I > 2\s(I)'
_cod_data_source_file            ol5b00373_si_002.cif
_cod_data_source_block           cd214192
_cod_original_cell_volume        3150.4(19)
_cod_database_code               1518995
#BEGIN Tags that were not found in dictionaries:
_shelx_space_group_comment
; 
The symmetry employed for this shelxl refinement is uniquely defined 
by the following loop, which should always be used as a source of 
symmetry information in preference to the above space-group names. 
They are only intended as comments. 
;
_shelxl_version_number           2013-4
_shelx_res_file
; 
TITL cd214192 in Pbcn 
CELL 0.71073  16.4279  13.3294  14.3870  90.000  90.000  90.000 
ZERR    8.00   0.0058   0.0046   0.0050   0.000   0.000   0.000 
LATT 1 
SYMM 0.5-X, 0.5-Y, 0.5+Z 
SYMM -X, Y, 0.5-Z 
SYMM 0.5+X, 0.5-Y, -Z 
SFAC C  H  N  O  S 
UNIT 120 168 8 32 8 
OMIT  -3.00  51.00 
L.S. 10 
ACTA 
BOND $H 
FMAP 2 
PLAN 20 
wpdb -1 
mpla c9 > c14 
htab 
conf 
WGHT    0.076500 
FVAR       0.05541 
S1    5    0.701159    0.897116    0.856620    11.00000    0.04632    0.05205 = 
         0.04961    0.00066   -0.01068   -0.00356 
N1    3    0.692432    0.847352    0.753439    11.00000    0.03025    0.04837 = 
         0.05064   -0.00262   -0.00179   -0.00514 
O1    4    0.541901    0.688572    0.638967    11.00000    0.03768    0.05164 = 
         0.07700   -0.01464   -0.00877   -0.00645 
O2    4    0.575580    0.527179    0.636170    11.00000    0.06954    0.05531 = 
         0.17117   -0.01588   -0.01570   -0.00055 
O3    4    0.784437    0.925729    0.866869    11.00000    0.04075    0.07177 = 
         0.08114   -0.00957   -0.02000   -0.00195 
O4    4    0.665474    0.827879    0.921013    11.00000    0.08373    0.06346 = 
         0.05244    0.01314   -0.00683   -0.01096 
C1    1    0.745028    0.878386    0.674067    11.00000    0.03448    0.05816 = 
         0.05765    0.00098    0.00062   -0.00769 
AFIX  13 
H1    2    0.798597    0.895863    0.699292    11.00000   -1.20000 
AFIX   0 
C2    1    0.755669    0.786008    0.612985    11.00000    0.04355    0.06658 = 
         0.06673   -0.00614    0.00950   -0.00022 
AFIX  23 
H2A   2    0.786177    0.735685    0.647021    11.00000   -1.20000 
H2B   2    0.787041    0.804113    0.558385    11.00000   -1.20000 
AFIX   0 
C3    1    0.674600    0.741295    0.582324    11.00000    0.04815    0.06495 = 
         0.05466   -0.01202    0.00165   -0.00012 
AFIX  23 
H3A   2    0.645948    0.788812    0.543117    11.00000   -1.20000 
H3B   2    0.684191    0.680821    0.546455    11.00000   -1.20000 
AFIX   0 
C4    1    0.623366    0.716765    0.666431    11.00000    0.03453    0.04942 = 
         0.05245   -0.00576   -0.00647   -0.00340 
AFIX  13 
H4    2    0.648631    0.662275    0.701914    11.00000   -1.20000 
AFIX   0 
C5    1    0.612406    0.807473    0.727499    11.00000    0.03399    0.04542 = 
         0.05304   -0.00339    0.00060   -0.00598 
AFIX  23 
H5A   2    0.581609    0.858355    0.694533    11.00000   -1.20000 
H5B   2    0.582336    0.789121    0.782976    11.00000   -1.20000 
AFIX   0 
C6    1    0.713455    0.968953    0.621434    11.00000    0.08141    0.05810 = 
         0.07006    0.01176    0.00400   -0.00986 
AFIX 137 
H6A   2    0.662196    0.952790    0.593108    11.00000   -1.50000 
H6B   2    0.751864    0.987439    0.574152    11.00000   -1.50000 
H6C   2    0.706317    1.023963    0.663725    11.00000   -1.50000 
AFIX   0 
C7    1    0.525137    0.590768    0.627426    11.00000    0.05108    0.05922 = 
         0.06959   -0.01309    0.00719   -0.01213 
C8    1    0.438785    0.573850    0.600961    11.00000    0.05670    0.08158 = 
         0.08674   -0.02246    0.00353   -0.02308 
AFIX 137 
H8A   2    0.436495    0.543865    0.540348    11.00000   -1.50000 
H8B   2    0.410459    0.636838    0.600094    11.00000   -1.50000 
H8C   2    0.413614    0.529918    0.645342    11.00000   -1.50000 
AFIX   0 
C9    1    0.641331    1.006670    0.860796    11.00000    0.03949    0.04997 = 
         0.04576   -0.00594   -0.00203   -0.00496 
C10   1    0.559386    1.000673    0.883034    11.00000    0.04653    0.06402 = 
         0.07246   -0.00859    0.00359   -0.01624 
AFIX  43 
H10   2    0.535635    0.938673    0.895010    11.00000   -1.20000 
AFIX   0 
C11   1    0.513360    1.086578    0.887333    11.00000    0.04131    0.07620 = 
         0.09163   -0.01977    0.00488   -0.00168 
AFIX  43 
H11   2    0.458423    1.081651    0.902252    11.00000   -1.20000 
AFIX   0 
C12   1    0.545954    1.178980    0.870331    11.00000    0.05333    0.06730 = 
         0.06373   -0.01928   -0.00565    0.00638 
C13   1    0.627310    1.184269    0.847973    11.00000    0.07027    0.05160 = 
         0.06953   -0.00979    0.00217   -0.00965 
AFIX  43 
H13   2    0.650616    1.246480    0.835799    11.00000   -1.20000 
AFIX   0 
C14   1    0.675203    1.098889    0.843222    11.00000    0.04488    0.05734 = 
         0.06448   -0.00817    0.00604   -0.00883 
AFIX  43 
H14   2    0.730103    1.104023    0.828181    11.00000   -1.20000 
AFIX   0 
C15   1    0.495131    1.273778    0.878959    11.00000    0.08616    0.08459 = 
         0.11847   -0.02767   -0.00746    0.02393 
AFIX 137 
H15A  2    0.467504    1.273916    0.937758    11.00000   -1.50000 
H15B  2    0.455816    1.275864    0.829629    11.00000   -1.50000 
H15C  2    0.529965    1.331442    0.874942    11.00000   -1.50000 
AFIX   0 
HKLF 4 
  
REM  cd214192 in Pbcn 
REM R1 =  0.0525 for    1797 Fo > 4sig(Fo)  and  0.0951 for all    2933 data 
REM    193 parameters refined using      0 restraints 
  
END 
  
WGHT      0.0760      0.0000 
  
REM Instructions for potential hydrogen bonds 
EQIV $1 x-1/2, y-1/2, -z+3/2 
HTAB C8 O3_$1 
  
REM Highest difference peak  0.341,  deepest hole -0.291,  1-sigma level  0.054 
Q1    1   0.6990  0.8931  0.7830  11.00000  0.05    0.34 
Q2    1   0.6973  0.8790  0.9246  11.00000  0.05    0.27 
Q3    1   0.5509  0.6877  0.5555  11.00000  0.05    0.23 
Q4    1   0.4002  0.5933  0.6499  11.00000  0.05    0.20 
Q5    1   0.7469  0.9457  0.5543  11.00000  0.05    0.19 
Q6    1   0.6951  0.8029  0.8607  11.00000  0.05    0.19 
Q7    1   0.5459  0.5584  0.6853  11.00000  0.05    0.18 
Q8    1   0.5596  0.5473  0.7043  11.00000  0.05    0.18 
Q9    1   0.7767  0.9164  0.9614  11.00000  0.05    0.17 
Q10   1   0.6089  1.0035  0.9045  11.00000  0.05    0.17 
Q11   1   0.7675  0.9347  0.7923  11.00000  0.05    0.17 
Q12   1   0.5879  1.1866  0.9109  11.00000  0.05    0.17 
Q13   1   0.5286  1.0838  0.8174  11.00000  0.05    0.17 
Q14   1   0.6901  0.9941  0.8978  11.00000  0.05    0.17 
Q15   1   0.6052  0.5229  0.6146  11.00000  0.05    0.16 
Q16   1   0.7233  0.8251  0.6246  11.00000  0.05    0.16 
Q17   1   0.6455  1.1618  0.9345  11.00000  0.05    0.16 
Q18   1   0.6842  0.9604  0.5570  11.00000  0.05    0.16 
Q19   1   0.5529  0.5663  0.5984  11.00000  0.05    0.16 
Q20   1   0.4385  0.4778  0.5831  11.00000  0.05    0.15 
;
_shelx_res_checksum              41903
_shelx_hkl_file
; 
   0  -1   0    0.00    0.00 
   0   1   0    0.00    0.00 
   0  -2   0    2.58    0.14 
   0  -2   0    2.66    0.12 
   0  -3   0    0.00    0.03 
   0  -3   0   -0.02    0.01 
   0  -4   0    0.78    0.06 
   0  -4   0    0.82    0.08 
   0  -5   0   -0.03    0.02 
   0  -5   0   -0.05    0.04 
   0  -6   0    0.10    0.06 
   0  -6   0    0.19    0.04 
   0  -7   0   -0.01    0.05 
   0  -8   0    2.09    0.18 
   0  -9   0    0.11    0.09 
   0  -9   0    0.06    0.05 
   0 -10   0   22.71    1.01 
   0 -10   0   21.77    1.10 
   0 -11   0   -0.26    0.06 
   0 -11   0   -0.07    0.10 
   0 -12   0    1.60    0.22 
   0 -13   0    0.17    0.13 
   0 -14   0    1.25    0.22 
   0 -15   0   -0.08    0.15 
   0 -16   0    0.06    0.18 
   0 -17   0   -0.02    0.22 
   0 -17   1   -0.10    0.20 
   0 -16   1    0.20    0.20 
   0 -15   1   -0.03    0.16 
   0 -14   1   -0.04    0.13 
   0 -13   1   -0.10    0.12 
   0 -12   1    0.15    0.08 
   0 -12   1    0.31    0.14 
   0 -11   1   -0.03    0.10 
   0 -11   1   -0.11    0.07 
   0 -10   1    0.71    0.10 
   0 -10   1    0.53    0.14 
   0  -9   1   -0.03    0.07 
   0  -8   1    0.46    0.10 
   0  -7   1   -0.09    0.05 
   0  -7   1   -0.04    0.03 
   0  -6   1   16.86    0.75 
   0  -6   1   16.68    0.81 
   0  -5   1    0.03    0.03 
   0  -4   1    0.49    0.05 
   0  -3   1    0.00    0.02 
   0  -2   1   16.42    0.71 
   0  -1   1    0.00    0.01 
   0   0  -1   -0.08    0.00 
   0   0  -1   -0.09    0.00 
   0   0  -1   -0.08    0.01 
   0   0   1   -0.10    0.00 
   0   0   1   -0.08    0.00 
   0  -1  -1   -0.01    0.01 
   0  -2  -1   15.23    0.69 
   0  -3  -1    0.05    0.04 
   0  -3  -1    0.01    0.01 
   0  -4  -1    0.32    0.06 
   0  -4  -1    0.47    0.04 
   0  -5  -1   -0.01    0.04 
   0  -5  -1   -0.01    0.02 
   0  -6  -1   16.32    0.79 
   0  -6  -1   16.56    0.73 
   0  -7  -1   -0.03    0.06 
   0  -8  -1    0.28    0.09 
   0  -9  -1   -0.07    0.08 
   0  -9  -1    0.11    0.04 
   0 -10  -1    0.65    0.14 
   0 -11  -1    0.05    0.06 
   0 -11  -1    0.04    0.10 
   0 -12  -1    0.10    0.12 
   0 -13  -1    0.07    0.11 
   0 -14  -1   -0.20    0.12 
   0 -15  -1   -0.11    0.15 
   0 -16  -1    0.04    0.20 
   0 -17  -1   -0.21    0.25 
   0 -17   2   -0.05    0.21 
   0 -16   2   -0.23    0.16 
   0 -15   2    0.06    0.17 
   0 -14   2    0.02    0.14 
   0 -13   2    0.14    0.09 
   0 -13   2    0.08    0.12 
   0 -12   2    0.15    0.13 
   0 -12   2    0.36    0.10 
   0 -11   2    0.11    0.11 
   0 -11   2    0.08    0.08 
   0 -10   2    1.44    0.19 
   0 -10   2    1.25    0.14 
   0  -9   2   -0.12    0.07 
   0  -9   2   -0.25    0.10 
   0  -8   2    0.18    0.09 
   0  -8   2    0.09    0.06 
   0  -8   2   -0.06    0.10 
   0  -7   2    0.01    0.04 
   0  -6   2    2.06    0.14 
   0  -5   2   -0.02    0.03 
   0  -4   2   13.18    0.60 
   0  -3   2   -0.02    0.02 
   0  -2   2    1.59    0.09 
   0   1  -2   -0.03    0.02 
   0  -1   2   -0.05    0.01 
   0   0  -2   61.95    2.88 
   0   0  -2   66.75    2.85 
   0   0   2   61.68    2.76 
   0  -1  -2    0.00    0.02 
   0  -1  -2    0.01    0.02 
   0   1   2   -0.02    0.01 
   0  -2  -2    1.73    0.11 
   0  -3  -2    0.02    0.04 
   0  -4  -2   12.68    0.60 
   0  -5  -2    0.00    0.04 
   0  -5  -2   -0.03    0.02 
   0  -6  -2    1.66    0.14 
   0  -7  -2    0.00    0.04 
   0  -7  -2    0.02    0.06 
   0  -8  -2    0.16    0.08 
   0  -8  -2    0.19    0.04 
   0  -9  -2    0.08    0.08 
   0  -9  -2    0.07    0.04 
   0 -10  -2    0.94    0.10 
   0 -10  -2    1.00    0.16 
   0 -11  -2   -0.08    0.10 
   0 -12  -2    0.24    0.13 
   0 -13  -2    0.08    0.12 
   0 -14  -2    0.15    0.15 
   0 -15  -2   -0.28    0.14 
   0 -16  -2   -0.02    0.20 
   0 -17  -2   -0.16    0.25 
   0 -17   3    0.12    0.21 
   0 -16   3    0.08    0.19 
   0 -15   3    0.09    0.18 
   0 -14   3    0.20    0.16 
   0 -13   3   -0.15    0.11 
   0 -13   3    0.01    0.08 
   0 -12   3    0.01    0.08 
   0 -12   3   -0.01    0.12 
   0 -11   3    0.04    0.08 
   0 -11   3    0.07    0.11 
   0 -10   3    0.83    0.13 
   0 -10   3    0.74    0.16 
   0  -9   3    0.03    0.09 
   0  -9   3   -0.22    0.11 
   0  -8   3    0.65    0.11 
   0  -7   3   -0.01    0.07 
   0  -7   3    0.07    0.05 
   0  -6   3    0.28    0.06 
   0  -5   3   -0.06    0.03 
   0  -4   3    0.48    0.07 
   0  -3   3    0.03    0.03 
   0  -2   3   13.20    0.59 
   0   1  -3   -0.02    0.04 
   0   1  -3   -0.02    0.04 
   0  -1   3   -0.01    0.02 
   0   0  -3   -0.07    0.03 
   0   0  -3   -0.01    0.03 
   0   0   3   -0.08    0.02 
   0  -1  -3   -0.04    0.03 
   0  -1  -3    0.01    0.03 
   0  -2  -3   13.33    0.60 
   0   2   3   12.63    0.56 
   0  -3  -3    0.02    0.04 
   0  -4  -3    0.32    0.06 
   0  -5  -3    0.03    0.05 
   0  -6  -3   -0.04    0.05 
   0  -7  -3   -0.08    0.05 
   0  -8  -3    0.39    0.10 
   0  -9  -3    0.05    0.03 
   0  -9  -3   -0.03    0.07 
   0 -10  -3    0.72    0.14 
   0 -11  -3   -0.10    0.09 
   0 -12  -3   -0.10    0.10 
   0 -13  -3   -0.25    0.10 
   0 -14  -3   -0.13    0.13 
   0 -15  -3   -0.10    0.16 
   0 -16  -3    0.05    0.22 
   0 -17  -3   -0.26    0.27 
   0 -17   4    0.01    0.21 
   0 -16   4    0.21    0.21 
   0 -15   4    0.16    0.18 
   0 -14   4    1.21    0.17 
   0 -14   4    1.03    0.22 
   0 -13   4    0.05    0.13 
   0 -13   4    0.18    0.09 
   0 -12   4    0.94    0.14 
   0 -12   4    0.86    0.18 
   0 -11   4   -0.26    0.08 
   0 -11   4   -0.07    0.09 
   0 -10   4   16.95    0.81 
   0  -8   4   -0.01    0.11 
   0  -7   4   -0.04    0.04 
   0  -7   4   -0.12    0.09 
   0  -6   4    0.13    0.06 
   0  -5   4   -0.03    0.03 
   0  -4   4    4.29    0.23 
   0  -3   4    0.05    0.03 
   0  -2   4   30.34    1.32 
   0   1  -4   -0.24    0.07 
   0   1  -4   -0.25    0.07 
   0   0  -4 1000.00   42.45 
   0   0  -4  950.27   42.83 
   0  -1  -4   -0.03    0.04 
   0  -1  -4    0.02    0.04 
   0   1   4   -0.07    0.02 
   0  -2  -4   26.50    1.29 
   0  -2  -4   30.47    1.30 
   0   2   4   29.21    1.24 
   0  -4  -4    3.46    0.20 
   0  -5  -4    0.02    0.05 
   0  -6  -4   12.68    0.62 
   0  -7  -4   -0.05    0.06 
   0  -8  -4    0.03    0.07 
   0  -9  -4   -0.05    0.08 
   0 -10  -4   16.03    0.82 
   0 -11  -4    0.23    0.12 
   0 -12  -4    0.87    0.17 
   0 -13  -4   -0.04    0.12 
   0 -14  -4    0.91    0.21 
   0 -15  -4    0.05    0.17 
   0 -16  -4    0.07    0.23 
   0 -17  -4   -0.26    0.28 
   0 -17   5    0.12    0.23 
   0 -16   5    0.57    0.22 
   0 -15   5   -0.07    0.16 
   0 -14   5   -0.04    0.14 
   0 -14   5    0.25    0.11 
   0 -13   5   -0.15    0.11 
   0 -13   5   -0.06    0.09 
   0 -12   5    0.03    0.11 
   0 -12   5    0.12    0.13 
   0 -11   5    0.04    0.11 
   0 -11   5   -0.06    0.08 
   0 -10   5    2.21    0.21 
   0  -7   5   -0.08    0.06 
   0  -6   5   19.17    0.89 
   0  -5   5    0.01    0.05 
   0  -4   5    0.31    0.07 
   0  -3   5    0.00    0.03 
   0   2  -5   12.05    0.60 
   0   1  -5   -0.04    0.05 
   0   1  -5   -0.01    0.05 
   0  -1   5    0.26    0.06 
   0  -1   5   -0.03    0.03 
   0   0  -5    0.02    0.05 
   0   0  -5    0.01    0.06 
   0   0   5    0.27    0.07 
   0  -1  -5    0.03    0.04 
   0  -1  -5   -0.03    0.04 
   0   1   5    0.02    0.02 
   0  -2  -5   12.67    0.58 
   0  -2  -5   11.79    0.59 
   0   2   5   12.51    0.55 
   0  -3  -5   -0.08    0.05 
   0  -3  -5    0.02    0.05 
   0   3   5    0.02    0.02 
   0  -4  -5   57.48    2.57 
   0  -5  -5    0.07    0.06 
   0  -6  -5   17.16    0.82 
   0  -7  -5    0.12    0.08 
   0  -8  -5    8.52    0.46 
   0  -9  -5   -0.09    0.08 
   0 -10  -5    2.32    0.23 
   0 -11  -5    0.11    0.11 
   0 -12  -5    0.05    0.13 
   0 -13  -5   -0.11    0.12 
   0 -14  -5   -0.25    0.13 
   0 -15  -5   -0.11    0.17 
   0 -16  -5    0.23    0.25 
   0 -17  -5    0.06    0.29 
   0 -16   6    0.03    0.19 
   0 -15   6   -0.03    0.12 
   0 -15   6    0.12    0.18 
   0 -14   6    0.44    0.18 
   0 -14   6    0.44    0.13 
   0 -13   6   -0.06    0.13 
   0 -13   6    0.07    0.09 
   0 -12   6    0.65    0.13 
   0 -12   6    0.66    0.17 
   0 -11   6    0.05    0.09 
   0 -10   6    7.26    0.43 
   0  -9   6   -0.01    0.07 
   0  -5   6    0.19    0.10 
   0  -5   6    0.02    0.05 
   0  -4   6    2.82    0.19 
   0  -3   6    0.21    0.08 
   0  -3   6   -0.01    0.04 
   0   2  -6    6.39    0.36 
   0   2  -6    5.92    0.36 
   0   1  -6   -0.07    0.07 
   0   1  -6   -0.17    0.07 
   0   0  -6    3.39    0.22 
   0   0   6    2.65    0.16 
   0  -1  -6    0.04    0.05 
   0  -1  -6   -0.07    0.05 
   0   1   6    0.08    0.02 
   0  -2  -6    5.96    0.33 
   0  -2  -6    6.46    0.33 
   0   2   6    6.14    0.29 
   0  -3  -6   -0.07    0.05 
   0  -3  -6   -0.07    0.06 
   0   3   6   -0.01    0.03 
   0  -4  -6    3.01    0.19 
   0  -4  -6    3.03    0.21 
   0   4   6    2.37    0.14 
   0  -5  -6    0.00    0.07 
   0  -6  -6    3.45    0.23 
   0  -7  -6    0.00    0.07 
   0  -8  -6    1.30    0.16 
   0  -9  -6    0.13    0.10 
   0 -10  -6    7.03    0.43 
   0 -11  -6   -0.12    0.10 
   0 -12  -6    0.47    0.16 
   0 -13  -6    0.02    0.14 
   0 -14  -6   -0.02    0.16 
   0 -15  -6   -0.45    0.16 
   0 -16  -6   -0.42    0.22 
   0 -16   7   -0.07    0.19 
   0 -15   7   -0.06    0.17 
   0 -15   7    0.07    0.12 
   0 -14   7    0.05    0.17 
   0 -14   7    0.03    0.10 
   0 -13   7    0.05    0.14 
   0 -13   7    0.07    0.09 
   0 -12   7    0.05    0.08 
   0 -11   7   -0.06    0.07 
   0 -10   7    0.17    0.09 
   0  -9   7   -0.01    0.08 
   0  -8   7    0.22    0.10 
   0   2  -7    0.64    0.13 
   0   2  -7    0.41    0.11 
   0   1  -7    0.00    0.07 
   0   1  -7   -0.01    0.07 
   0  -1   7    0.09    0.06 
   0   0  -7   -0.14    0.07 
   0   0  -7   -0.01    0.07 
   0   0   7    0.03    0.05 
   0  -1  -7   -0.04    0.06 
   0  -1  -7    0.05    0.06 
   0   1   7    0.03    0.03 
   0  -2  -7    0.76    0.10 
   0  -2  -7    0.61    0.10 
   0   2   7    0.63    0.07 
   0  -3  -7    0.02    0.07 
   0  -3  -7   -0.05    0.06 
   0   3   7   -0.02    0.03 
   0  -4  -7    8.84    0.44 
   0  -4  -7    7.88    0.45 
   0   4   7    8.40    0.39 
   0  -5  -7    0.02    0.08 
   0  -5  -7   -0.03    0.08 
   0  -6  -7    3.95    0.26 
   0  -7  -7    0.11    0.09 
   0  -8  -7    0.31    0.11 
   0  -9  -7   -0.05    0.10 
   0 -10  -7   -0.02    0.11 
   0 -11  -7    0.08    0.12 
   0 -12  -7    0.06    0.12 
   0 -13  -7   -0.05    0.13 
   0 -14  -7   -0.01    0.16 
   0 -15  -7   -0.04    0.19 
   0 -16  -7    0.02    0.26 
   0 -16   8    0.22    0.19 
   0 -16   8    0.05    0.21 
   0 -15   8    0.03    0.13 
   0 -15   8    0.20    0.19 
   0 -14   8    0.12    0.12 
   0 -14   8    0.02    0.16 
   0 -13   8    0.05    0.16 
   0 -13   8    0.07    0.09 
   0 -12   8    0.45    0.12 
   0 -11   8   -0.04    0.09 
   0 -10   8    3.39    0.27 
   0  -9   8    0.16    0.09 
   0  -8   8    0.23    0.10 
   0  -7   8    0.05    0.06 
   0  -6   8    0.05    0.11 
   0   2  -8    6.87    0.43 
   0   2  -8    6.65    0.42 
   0  -2   8    7.17    0.36 
   0   1  -8   -0.46    0.10 
   0  -1   8    0.04    0.06 
   0   0  -8   73.46    3.32 
   0   0  -8   72.66    3.27 
   0   0   8   73.37    3.15 
   0  -1  -8   -0.03    0.08 
   0  -1  -8    0.01    0.07 
   0   1   8    0.00    0.04 
   0  -2  -8    6.96    0.39 
   0  -2  -8    6.76    0.38 
   0   2   8    7.29    0.35 
   0  -3  -8   -0.04    0.07 
   0  -3  -8   -0.06    0.06 
   0   3   8   -0.01    0.04 
   0  -4  -8   -0.08    0.07 
   0  -4  -8    0.04    0.08 
   0   4   8    0.03    0.05 
   0  -5  -8   -0.05    0.07 
   0  -5  -8    0.03    0.08 
   0   5   8    0.03    0.04 
   0  -6  -8    0.07    0.09 
   0  -6  -8    0.07    0.09 
   0  -7  -8    0.08    0.09 
   0  -8  -8    0.32    0.12 
   0  -9  -8   -0.01    0.10 
   0 -10  -8    2.76    0.26 
   0 -11  -8   -0.08    0.12 
   0 -12  -8    0.29    0.14 
   0 -13  -8    0.01    0.14 
   0 -14  -8   -0.04    0.18 
   0 -15  -8   -0.01    0.21 
   0 -16  -8   -0.13    0.26 
   0 -15   9   -0.07    0.15 
   0 -15   9   -0.11    0.18 
   0 -14   9    0.01    0.19 
   0 -14   9    0.11    0.14 
   0 -13   9    0.12    0.12 
   0 -12   9    0.32    0.12 
   0 -11   9    0.03    0.09 
   0 -10   9    0.80    0.15 
   0  -9   9    0.10    0.09 
   0  -8   9    3.21    0.25 
   0  -7   9   -0.04    0.07 
   0  -6   9    2.90    0.22 
   0  -5   9    0.08    0.06 
   0  -4   9    8.12    0.43 
   0  -3   9    0.00    0.05 
   0   2  -9    1.09    0.17 
   0   2  -9    0.97    0.16 
   0  -2   9    1.00    0.13 
   0   1  -9   -0.04    0.09 
   0   1  -9   -0.04    0.08 
   0  -1   9    0.13    0.06 
   0   0  -9    0.07    0.10 
   0   0  -9   -0.11    0.07 
   0   0   9   -0.01    0.05 
   0  -1  -9   -0.03    0.07 
   0  -1  -9   -0.06    0.08 
   0   1   9    0.03    0.05 
   0  -2  -9    0.91    0.14 
   0  -2  -9    0.94    0.14 
   0   2   9    0.81    0.10 
   0  -3  -9    0.01    0.07 
   0  -3  -9   -0.01    0.08 
   0   3   9   -0.04    0.05 
   0  -4  -9    7.86    0.44 
   0  -4  -9    7.80    0.43 
   0   4   9    7.87    0.39 
   0  -5  -9    0.00    0.08 
   0  -5  -9   -0.04    0.09 
   0  -6  -9    2.99    0.23 
   0  -6  -9    3.09    0.25 
   0  -7  -9   -0.02    0.09 
   0  -7  -9   -0.02    0.09 
   0  -8  -9    3.27    0.27 
   0  -8  -9    2.97    0.25 
   0  -9  -9   -0.07    0.11 
   0 -10  -9    0.36    0.14 
   0 -11  -9   -0.11    0.12 
   0 -12  -9    0.19    0.14 
   0 -13  -9   -0.24    0.13 
   0 -14  -9   -0.10    0.18 
   0 -15  -9   -0.03    0.23 
   0 -15  10   -0.03    0.18 
   0 -15  10   -0.14    0.21 
   0 -14  10    0.21    0.22 
   0 -14  10    0.45    0.19 
   0 -13  10    0.12    0.12 
   0 -12  10    0.06    0.10 
   0 -11  10    0.17    0.10 
   0 -10  10    2.37    0.25 
   0  -9  10   -0.02    0.07 
   0  -8  10    0.05    0.09 
   0  -7  10    0.10    0.08 
   0  -6  10   -0.25    0.06 
   0  -5  10   -0.14    0.06 
   0  -4  10    3.66    0.25 
   0   3 -10   -0.20    0.09 
   0  -3  10   -0.10    0.05 
   0   2 -10    0.14    0.11 
   0   2 -10    0.00    0.09 
   0  -2  10    0.06    0.07 
   0   1 -10   -0.18    0.11 
   0   1 -10   -0.06    0.11 
   0  -1  10    0.09    0.06 
   0   0 -10   16.20    0.83 
   0   0 -10   15.45    0.80 
   0   0  10   15.50    0.73 
   0  -1 -10    0.03    0.10 
   0  -1 -10    0.11    0.09 
   0   1  10    0.01    0.05 
   0  -2 -10    0.03    0.08 
   0  -2 -10   -0.03    0.09 
   0   2  10    0.03    0.05 
   0  -3 -10   -0.04    0.09 
   0  -3 -10    0.04    0.09 
   0   3  10    0.08    0.06 
   0  -4 -10    4.22    0.28 
   0  -4 -10    3.84    0.28 
   0   4  10    3.94    0.23 
   0  -5 -10   -0.01    0.10 
   0  -5 -10   -0.09    0.08 
   0  -6 -10    0.14    0.11 
   0  -6 -10    0.11    0.11 
   0  -7 -10    0.04    0.11 
   0  -7 -10    0.06    0.11 
   0  -8 -10   -0.01    0.12 
   0  -8 -10    0.07    0.12 
   0  -9 -10   -0.04    0.12 
   0  -9 -10    0.11    0.13 
   0 -10 -10    2.26    0.27 
   0 -10 -10    1.74    0.23 
   0 -11 -10    0.15    0.13 
   0 -12 -10    0.07    0.14 
   0 -13 -10   -0.06    0.16 
   0 -14 -10    0.30    0.21 
   0 -15 -10   -0.13    0.25 
   0 -14  11    0.03    0.22 
   0 -14  11    0.15    0.19 
   0 -13  11    0.04    0.15 
   0 -12  11    0.10    0.12 
   0 -11  11    0.06    0.10 
   0 -10  11    0.40    0.13 
   0  -9  11   -0.06    0.08 
   0  -8  11   -0.06    0.07 
   0  -7  11   -0.34    0.07 
   0  -6  11    2.55    0.24 
   0  -5  11   -0.02    0.06 
   0  -4  11    0.13    0.08 
   0   3 -11    0.06    0.11 
   0  -3  11   -0.06    0.05 
   0   2 -11    2.34    0.26 
   0   2 -11    2.51    0.28 
   0  -2  11    2.12    0.18 
   0   1 -11   -0.14    0.11 
   0   1 -11    0.00    0.10 
   0  -1  11   -0.02    0.06 
   0   0 -11   -0.02    0.09 
   0   0 -11    0.10    0.12 
   0   0  11   -0.02    0.06 
   0  -1 -11   -0.04    0.09 
   0  -1 -11   -0.04    0.12 
   0   1  11   -0.02    0.05 
   0  -2 -11    2.73    0.27 
   0  -2 -11    2.32    0.23 
   0   2  11    2.33    0.18 
   0  -3 -11    0.01    0.09 
   0  -3 -11   -0.01    0.11 
   0   3  11    0.02    0.07 
   0  -4 -11    0.44    0.14 
   0  -4 -11    0.42    0.13 
   0  -5 -11   -0.09    0.11 
   0  -5 -11    0.04    0.11 
   0  -6 -11    3.31    0.29 
   0  -6 -11    3.67    0.29 
   0  -7 -11    0.04    0.13 
   0  -7 -11    0.06    0.12 
   0  -8 -11    0.38    0.15 
   0  -8 -11    0.24    0.14 
   0  -9 -11    0.06    0.12 
   0  -9 -11   -0.09    0.13 
   0 -10 -11    0.25    0.14 
   0 -10 -11    0.41    0.16 
   0 -11 -11   -0.15    0.15 
   0 -11 -11    0.19    0.15 
   0 -12 -11    0.05    0.16 
   0 -12 -11    0.25    0.16 
   0 -13 -11   -0.12    0.17 
   0 -13 -11   -0.10    0.18 
   0 -14 -11   -0.02    0.19 
   0 -14 -11    0.06    0.23 
   0 -13  12    0.00    0.18 
   0 -12  12    0.04    0.14 
   0 -11  12    0.17    0.12 
   0 -10  12    0.49    0.15 
   0  -9  12    0.06    0.10 
   0  -8  12    0.16    0.09 
   0  -7  12   -0.04    0.07 
   0  -6  12    0.03    0.07 
   0  -5  12   -0.02    0.07 
   0  -4  12    0.33    0.10 
   0   3 -12   -0.03    0.12 
   0  -3  12    0.01    0.06 
   0   2 -12    2.43    0.28 
   0   2 -12    2.47    0.31 
   0  -2  12    2.57    0.20 
   0   1 -12   -0.01    0.13 
   0   1 -12   -0.20    0.10 
   0  -1  12    0.00    0.07 
   0   0 -12    0.18    0.15 
   0   0 -12    0.17    0.13 
   0   0  12   -0.07    0.08 
   0  -1 -12   -0.08    0.14 
   0  -1 -12    0.03    0.11 
   0   1  12    0.03    0.07 
   0  -2 -12    2.55    0.26 
   0  -2 -12    2.63    0.30 
   0   2  12    2.97    0.21 
   0  -3 -12    0.02    0.12 
   0  -3 -12   -0.03    0.10 
   0   3  12   -0.01    0.07 
   0  -4 -12    0.37    0.14 
   0  -4 -12    0.46    0.15 
   0  -5 -12   -0.01    0.12 
   0  -5 -12    0.11    0.13 
   0  -6 -12    0.02    0.12 
   0  -6 -12    0.08    0.13 
   0  -7 -12   -0.05    0.13 
   0  -7 -12    0.07    0.12 
   0  -8 -12    0.15    0.14 
   0  -8 -12    0.03    0.15 
   0  -9 -12    0.13    0.15 
   0  -9 -12    0.21    0.15 
   0 -10 -12    0.28    0.15 
   0 -10 -12    0.37    0.19 
   0 -11 -12    0.00    0.18 
   0 -11 -12   -0.07    0.15 
   0 -12 -12    0.09    0.18 
   0 -12 -12   -0.24    0.16 
   0 -13 -12    0.02    0.22 
   0 -13 -12   -0.24    0.19 
   0 -13  13    0.04    0.19 
   0 -12  13   -0.22    0.16 
   0 -11  13    0.06    0.15 
   0 -10  13    0.12    0.12 
   0  -9  13    0.08    0.11 
   0  -8  13    1.58    0.21 
   0  -7  13    0.04    0.09 
   0  -6  13    0.10    0.08 
   0  -5  13    0.09    0.08 
   0  -4  13    1.45    0.18 
   0  -3  13   -0.04    0.07 
   0   2 -13    0.23    0.15 
   0   2 -13    0.37    0.14 
   0  -2  13    0.27    0.09 
   0   1 -13    0.05    0.15 
   0   1 -13   -0.12    0.11 
   0  -1  13    0.02    0.07 
   0   0 -13    0.06    0.14 
   0   0 -13   -0.07    0.11 
   0   0  13    0.00    0.06 
   0  -1 -13    0.08    0.11 
   0  -1 -13   -0.01    0.14 
   0   1  13    0.10    0.08 
   0  -2 -13    0.17    0.15 
   0  -2 -13    0.23    0.12 
   0   2  13    0.20    0.09 
   0  -3 -13    0.03    0.13 
   0  -3 -13    0.01    0.10 
   0  -4 -13    1.76    0.25 
   0  -4 -13    2.01    0.24 
   0  -5 -13   -0.15    0.12 
   0  -5 -13   -0.04    0.12 
   0  -6 -13   -0.09    0.12 
   0  -6 -13    0.09    0.13 
   0  -7 -13    0.14    0.15 
   0  -7 -13    0.12    0.14 
   0  -8 -13    1.98    0.28 
   0  -8 -13    1.64    0.24 
   0  -9 -13   -0.06    0.15 
   0  -9 -13   -0.12    0.17 
   0 -10 -13    0.28    0.20 
   0 -10 -13    0.31    0.18 
   0 -11 -13    0.15    0.18 
   0 -11 -13    0.06    0.20 
   0 -12 -13    0.09    0.21 
   0 -12 -13    0.15    0.22 
   0 -13 -13    0.15    0.25 
   0 -13 -13   -0.21    0.20 
   0 -12  14    0.17    0.20 
   0 -11  14   -0.01    0.18 
   0 -10  14    0.69    0.19 
   0  -9  14    0.06    0.11 
   0  -8  14    0.08    0.10 
   0  -7  14    0.03    0.09 
   0  -6  14    0.06    0.08 
   0  -5  14    0.04    0.08 
   0  -4  14    0.41    0.11 
   0  -3  14    0.01    0.07 
   0   2 -14   -0.03    0.13 
   0  -2  14    0.11    0.08 
   0   1 -14   -0.13    0.12 
   0   1 -14   -0.11    0.17 
   0  -1  14    0.11    0.08 
   0   0 -14    2.18    0.30 
   0   0 -14    2.24    0.28 
   0   0  14    2.32    0.19 
   0  -1 -14   -0.03    0.11 
   0  -1 -14    0.09    0.16 
   0   1  14    0.00    0.07 
   0  -2 -14    0.20    0.16 
   0  -2 -14    0.01    0.12 
   0   2  14    0.06    0.09 
   0  -3 -14    0.17    0.13 
   0  -3 -14    0.05    0.15 
   0  -4 -14    0.52    0.18 
   0  -4 -14    0.28    0.14 
   0  -5 -14    0.20    0.17 
   0  -5 -14    0.05    0.14 
   0  -6 -14    0.30    0.17 
   0  -6 -14    0.12    0.16 
   0  -7 -14    0.03    0.15 
   0  -7 -14    0.15    0.17 
   0  -8 -14    0.12    0.16 
   0  -8 -14    0.00    0.17 
   0  -9 -14    0.09    0.17 
   0  -9 -14    0.05    0.19 
   0 -10 -14    0.58    0.24 
   0 -10 -14    1.07    0.25 
   0 -11 -14   -0.21    0.21 
   0 -12 -14    0.13    0.24 
   0 -11  15    0.00    0.19 
   0 -10  15    0.10    0.14 
   0  -9  15    0.20    0.14 
   0  -8  15    0.29    0.14 
   0  -7  15    0.11    0.12 
   0  -6  15    0.41    0.14 
   0  -5  15   -0.03    0.09 
   0  -4  15    0.32    0.11 
   0  -3  15    0.06    0.09 
   0   2 -15    0.29    0.18 
   0  -2  15    0.22    0.10 
   0   1 -15    0.18    0.14 
   0  -1  15    0.08    0.09 
   0   0 -15    0.07    0.14 
   0   0  15    0.07    0.08 
   0  -1 -15    0.02    0.12 
   0   1  15   -0.05    0.09 
   0  -2 -15    0.19    0.15 
   0  -3 -15   -0.19    0.12 
   0  -4 -15    0.33    0.18 
   0  -5 -15    0.18    0.16 
   0  -6 -15    0.31    0.19 
   0  -7 -15   -0.06    0.17 
   0  -8 -15   -0.07    0.20 
   0  -9 -15   -0.25    0.20 
   0 -10 -15    0.11    0.23 
   0 -11 -15    0.04    0.23 
   0  -9  16    0.03    0.14 
   0  -8  16    0.12    0.14 
   0  -7  16    0.12    0.13 
   0  -6  16    0.31    0.14 
   0  -5  16    0.08    0.12 
   0  -4  16    0.14    0.11 
   0  -3  16    0.18    0.11 
   0   2 -16    0.09    0.16 
   0  -2  16    0.37    0.13 
   0   1 -16    0.20    0.17 
   0  -1  16    0.09    0.10 
   0   0 -16    0.08    0.15 
   0   0  16    0.00    0.10 
   0  -1 -16    0.18    0.15 
   0  -2 -16    0.22    0.17 
   0  -3 -16   -0.09    0.16 
   0  -4 -16   -0.16    0.17 
   0  -5 -16   -0.11    0.17 
   0  -6 -16    0.34    0.20 
   0  -7 -16   -0.09    0.20 
   0  -8 -16   -0.01    0.22 
   0  -9 -16   -0.07    0.23 
   0  -8  17    0.18    0.16 
   0  -7  17   -0.11    0.12 
   0  -6  17    0.21    0.13 
   0  -5  17    0.00    0.12 
   0  -4  17    0.10    0.13 
   0  -3  17   -0.04    0.12 
   0   2 -17    0.30    0.22 
   0  -2  17    0.67    0.16 
   0   1 -17   -0.06    0.18 
   0  -1  17    0.11    0.12 
   0   0 -17    0.23    0.20 
   0  -1 -17    0.19    0.19 
   0  -2 -17    0.74    0.24 
   0  -3 -17    0.32    0.20 
   0  -4 -17    0.36    0.22 
   0  -5 -17    0.02    0.21 
   0  -6 -17   -0.01    0.21 
   0  -7 -17    0.13    0.23 
   0  -8 -17   -0.25    0.24 
   0  -6  18   -0.08    0.14 
   0  -5  18    0.04    0.14 
   0  -4  18    0.24    0.15 
   0  -3  18   -0.03    0.14 
   0  -2  18    0.19    0.14 
   0   1 -18   -0.28    0.21 
   0   0 -18    0.29    0.24 
   0  -1 -18   -0.04    0.21 
   0  -2 -18   -0.10    0.20 
   0  -3 -18    0.10    0.22 
   0  -4 -18    0.12    0.23 
   0  -5 -18   -0.06    0.23 
   0  -6 -18   -0.04    0.27 
   0   1 -19    0.15    0.27 
   0   0 -19   -0.15    0.24 
   0  -1 -19   -0.15    0.24 
   0  -2 -19    0.14    0.27 
   1  -6 -18    0.23    0.28 
   1  -5 -18    0.15    0.25 
   1  -4 -18    0.19    0.24 
   1  -3 -18    0.05    0.22 
   1  -2 -18   -0.02    0.22 
   1  -1 -18   -0.08    0.22 
   1   0 -18    0.38    0.24 
   1   1 -18    0.00    0.23 
  -1  -2  18    0.13    0.14 
  -1  -3  18    0.05    0.13 
  -1  -4  18   -0.08    0.13 
  -1  -5  18    0.07    0.14 
   1  -8 -17    0.07    0.25 
   1  -7 -17    0.22    0.23 
   1  -6 -17    0.08    0.22 
   1  -5 -17    0.04    0.22 
   1  -4 -17   -0.04    0.20 
   1  -3 -17   -0.03    0.18 
   1  -2 -17    0.80    0.23 
   1  -1 -17    0.01    0.19 
   1   0 -17   -0.04    0.17 
  -1  -1  17    0.29    0.12 
   1   1 -17   -0.29    0.17 
  -1  -2  17    0.69    0.15 
  -1  -3  17    0.06    0.11 
  -1  -4  17    0.07    0.12 
  -1  -5  17   -0.11    0.11 
  -1  -6  17    0.10    0.13 
  -1  -7  17    0.01    0.13 
  -1  -8  17    0.28    0.17 
   1  -9 -16    0.06    0.24 
   1  -8 -16   -0.04    0.21 
   1  -7 -16   -0.02    0.20 
   1  -6 -16    0.14    0.19 
   1  -5 -16    0.12    0.18 
   1  -4 -16    0.43    0.20 
   1  -3 -16   -0.03    0.15 
   1  -2 -16    0.16    0.16 
   1  -1 -16    0.18    0.17 
  -1   0  16    2.19    0.23 
   1   0 -16    2.66    0.33 
  -1  -1  16    0.20    0.10 
   1   1 -16   -0.04    0.17 
  -1  -2  16    0.10    0.09 
   1   2 -16    0.11    0.19 
  -1  -3  16    0.12    0.10 
  -1  -4  16    0.41    0.13 
  -1  -5  16   -0.03    0.10 
  -1  -6  16    0.17    0.13 
  -1  -7  16    0.23    0.13 
  -1  -8  16    0.05    0.13 
  -1  -9  16    0.01    0.13 
   1 -11 -15    0.16    0.23 
   1 -10 -15   -0.31    0.21 
   1  -9 -15   -0.19    0.20 
   1  -9 -15    0.02    0.24 
   1  -8 -15    0.34    0.22 
   1  -8 -15   -0.06    0.20 
   1  -7 -15   -0.22    0.17 
   1  -7 -15   -0.02    0.18 
   1  -6 -15    0.19    0.20 
   1  -6 -15    0.35    0.18 
   1  -5 -15    0.21    0.19 
   1  -5 -15   -0.03    0.14 
   1  -4 -15    0.27    0.16 
   1  -4 -15    0.27    0.18 
   1  -3 -15    0.00    0.14 
   1  -3 -15    0.07    0.17 
   1  -2 -15    1.24    0.26 
   1  -2 -15    1.28    0.22 
  -1   1  15    0.21    0.10 
   1  -1 -15    0.44    0.16 
   1  -1 -15    0.31    0.20 
  -1   0  15    0.06    0.08 
   1   0 -15   -0.10    0.17 
   1   0 -15    0.17    0.14 
  -1  -1  15    0.19    0.10 
   1   1 -15    0.22    0.14 
   1   1 -15    0.29    0.19 
  -1  -2  15    0.93    0.15 
   1   2 -15    1.02    0.21 
  -1  -3  15    0.05    0.08 
  -1  -4  15    0.17    0.09 
  -1  -5  15    0.04    0.09 
  -1  -6  15    0.44    0.13 
  -1  -7  15    0.16    0.13 
  -1  -8  15    0.39    0.15 
  -1  -9  15    0.05    0.12 
  -1 -10  15    0.28    0.15 
  -1 -11  15    0.07    0.20 
   1 -12 -14    0.14    0.23 
   1 -12 -14    0.28    0.28 
   1 -11 -14   -0.20    0.20 
   1 -11 -14   -0.12    0.21 
   1 -10 -14    0.21    0.19 
   1 -10 -14   -0.01    0.20 
   1  -9 -14    0.39    0.20 
   1  -9 -14    0.05    0.18 
   1  -8 -14   -0.17    0.16 
   1  -8 -14   -0.07    0.14 
   1  -7 -14    0.18    0.17 
   1  -7 -14   -0.03    0.16 
   1  -6 -14    0.07    0.16 
   1  -6 -14   -0.11    0.13 
   1  -5 -14    0.11    0.16 
   1  -5 -14    0.01    0.12 
   1  -4 -14    0.24    0.13 
   1  -4 -14    0.26    0.15 
   1  -3 -14    0.10    0.12 
   1  -3 -14    0.20    0.17 
   1  -2 -14    0.08    0.16 
   1  -2 -14   -0.08    0.12 
  -1   1  14    0.17    0.08 
   1  -1 -14    0.20    0.14 
   1  -1 -14    0.19    0.17 
  -1   0  14   -0.09    0.06 
   1   0 -14    0.23    0.14 
   1   0 -14    0.09    0.15 
  -1  -1  14    0.25    0.09 
   1   1 -14    0.11    0.16 
   1   1 -14    0.08    0.13 
  -1  -2  14    0.12    0.08 
   1   2 -14    0.00    0.13 
   1   2 -14    0.13    0.16 
  -1  -3  14    0.00    0.07 
  -1  -4  14    0.26    0.10 
  -1  -5  14    0.07    0.08 
  -1  -6  14    0.17    0.10 
  -1  -7  14    0.23    0.11 
  -1  -8  14    0.18    0.11 
  -1  -9  14    0.24    0.12 
  -1 -10  14    0.03    0.14 
  -1 -11  14   -0.01    0.16 
  -1 -12  14    0.02    0.19 
   1 -13 -13    0.17    0.21 
   1 -13 -13    0.07    0.27 
   1 -12 -13   -0.33    0.19 
   1 -12 -13   -0.06    0.22 
   1 -11 -13    0.20    0.21 
   1 -11 -13    0.22    0.19 
   1 -10 -13    0.14    0.20 
   1 -10 -13    0.17    0.17 
   1  -9 -13    0.00    0.16 
   1  -9 -13    0.01    0.16 
   1  -8 -13    0.28    0.16 
   1  -8 -13    0.00    0.16 
   1  -7 -13    0.14    0.15 
   1  -7 -13    0.24    0.15 
   1  -6 -13    0.20    0.15 
   1  -6 -13   -0.05    0.12 
   1  -5 -13    0.16    0.14 
   1  -5 -13   -0.03    0.12 
   1  -4 -13    0.16    0.14 
   1  -4 -13   -0.07    0.11 
   1  -3 -13    0.06    0.12 
   1  -3 -13    0.19    0.15 
  -1   2  13    1.17    0.14 
   1  -2 -13    1.41    0.25 
   1  -2 -13    1.43    0.20 
  -1   1  13   -0.02    0.07 
   1  -1 -13   -0.02    0.10 
   1  -1 -13    0.05    0.14 
  -1   0  13    0.05    0.07 
   1   0 -13    0.12    0.12 
   1   0 -13    0.11    0.14 
  -1  -1  13    0.01    0.07 
   1   1 -13   -0.06    0.11 
   1   1 -13    0.14    0.15 
  -1  -2  13    1.45    0.17 
   1   2 -13    1.56    0.27 
   1   2 -13    1.15    0.22 
  -1  -3  13    0.20    0.09 
  -1  -4  13    0.09    0.07 
  -1  -5  13    0.03    0.07 
  -1  -6  13    0.14    0.09 
  -1  -7  13    0.28    0.11 
  -1  -8  13    0.15    0.10 
  -1  -9  13    0.22    0.11 
  -1 -10  13    0.26    0.13 
  -1 -11  13    0.05    0.14 
  -1 -12  13    0.03    0.17 
  -1 -13  13    0.22    0.20 
   1 -13 -12   -0.01    0.23 
   1 -13 -12   -0.30    0.18 
   1 -12 -12   -0.27    0.16 
   1 -12 -12   -0.15    0.17 
   1 -11 -12    0.18    0.16 
   1 -11 -12    0.32    0.19 
   1 -10 -12    0.76    0.22 
   1 -10 -12    0.76    0.19 
   1  -9 -12    0.22    0.14 
   1  -9 -12    0.26    0.17 
   1  -8 -12    0.53    0.18 
   1  -8 -12    0.27    0.14 
   1  -7 -12    0.07    0.13 
   1  -7 -12    0.26    0.14 
   1  -6 -12    0.72    0.17 
   1  -6 -12    0.47    0.15 
   1  -5 -12    0.20    0.13 
   1  -5 -12    0.04    0.11 
   1  -4 -12    2.12    0.23 
   1  -4 -12    1.87    0.24 
  -1   3  12    0.26    0.09 
   1  -3 -12    0.31    0.15 
   1  -3 -12    0.08    0.10 
  -1   2  12    0.49    0.10 
   1  -2 -12    0.44    0.14 
   1  -2 -12    0.59    0.17 
  -1   1  12    0.00    0.06 
   1  -1 -12    0.02    0.10 
   1  -1 -12    0.13    0.15 
  -1   0  12    7.35    0.41 
   1   0 -12    7.16    0.46 
   1   0 -12    8.36    0.53 
  -1  -1  12   -0.04    0.07 
   1   1 -12   -0.25    0.14 
   1   1 -12    0.09    0.13 
  -1  -2  12    0.38    0.10 
   1   2 -12    0.36    0.15 
   1   2 -12    0.45    0.18 
  -1  -3  12    0.31    0.10 
  -1  -4  12    2.28    0.22 
  -1  -5  12   -0.01    0.08 
  -1  -6  12    0.86    0.15 
  -1  -7  12    0.06    0.09 
  -1  -8  12    0.51    0.13 
  -1  -9  12    0.11    0.10 
  -1 -10  12    0.60    0.15 
  -1 -11  12    0.06    0.12 
  -1 -12  12    0.14    0.15 
  -1 -13  12    0.02    0.17 
   1 -14 -11   -0.01    0.23 
   1 -13 -11    0.02    0.19 
   1 -12 -11    0.12    0.16 
   1 -12 -11    0.04    0.18 
   1 -11 -11    0.11    0.14 
   1 -11 -11    0.15    0.17 
   1 -10 -11    0.02    0.13 
   1 -10 -11    0.20    0.15 
   1  -9 -11    0.03    0.13 
   1  -9 -11    0.01    0.12 
   1  -8 -11    1.62    0.23 
   1  -8 -11    1.50    0.21 
   1  -7 -11    0.19    0.13 
   1  -7 -11   -0.03    0.11 
   1  -6 -11    3.08    0.27 
   1  -6 -11    3.35    0.28 
   1  -5 -11    0.02    0.11 
   1  -5 -11    0.06    0.11 
   1  -4 -11    3.21    0.28 
   1  -4 -11    3.75    0.28 
  -1   3  11    0.27    0.07 
   1  -3 -11    0.31    0.13 
   1  -3 -11    0.11    0.11 
  -1   2  11    3.20    0.20 
   1  -2 -11    3.24    0.30 
   1  -2 -11    2.91    0.25 
  -1   1  11    1.00    0.12 
   1  -1 -11    0.60    0.19 
   1  -1 -11    0.83    0.16 
  -1   0  11    0.04    0.06 
   1   0 -11   -0.16    0.11 
   1   0 -11   -0.06    0.09 
  -1  -1  11    0.78    0.12 
   1   1 -11    0.84    0.16 
   1   1 -11    0.71    0.20 
  -1  -2  11    3.02    0.22 
   1   2 -11    2.99    0.29 
   1   2 -11    3.48    0.34 
  -1  -3  11    0.39    0.09 
  -1  -4  11    3.80    0.27 
  -1  -5  11    0.15    0.08 
  -1  -6  11    2.66    0.23 
  -1  -8  11    1.16    0.18 
  -1  -9  11    0.07    0.09 
  -1 -10  11    0.17    0.10 
  -1 -11  11    0.04    0.11 
  -1 -12  11    0.23    0.13 
  -1 -13  11    0.06    0.14 
  -1 -14  11    0.07    0.17 
   1 -15 -10   -0.09    0.25 
   1 -14 -10    0.08    0.22 
   1 -13 -10    0.07    0.17 
   1 -12 -10    0.11    0.14 
   1 -11 -10    0.08    0.14 
   1 -10 -10    0.12    0.13 
   1  -9 -10    0.01    0.12 
   1  -9 -10    0.23    0.14 
   1  -8 -10    1.36    0.21 
   1  -8 -10    1.13    0.19 
   1  -7 -10   -0.03    0.12 
   1  -7 -10    0.02    0.11 
   1  -6 -10    2.24    0.22 
   1  -6 -10    2.07    0.23 
   1  -5 -10    0.61    0.13 
   1  -5 -10    0.55    0.14 
  -1   4  10    0.39    0.08 
   1  -4 -10    0.38    0.12 
   1  -4 -10    0.42    0.12 
  -1   3  10    0.18    0.06 
   1  -3 -10    0.17    0.10 
   1  -3 -10    0.03    0.10 
  -1   2  10    0.87    0.10 
   1  -2 -10    0.68    0.15 
   1  -2 -10    0.72    0.14 
  -1   1  10    0.33    0.08 
   1  -1 -10    0.15    0.10 
   1  -1 -10    0.23    0.13 
  -1   0  10    1.28    0.14 
   1   0 -10    0.76    0.15 
   1   0 -10    1.52    0.22 
  -1  -1  10    0.36    0.10 
   1   1 -10    0.12    0.12 
   1   1 -10    0.08    0.13 
   1   2 -10    0.61    0.17 
   1   2 -10    0.68    0.15 
  -1  -3  10    0.43    0.15 
  -1  -8  10    1.10    0.18 
  -1  -9  10    0.10    0.09 
  -1 -10  10    0.26    0.11 
  -1 -11  10    0.18    0.11 
  -1 -12  10    0.34    0.13 
  -1 -13  10    0.10    0.12 
  -1 -14  10    0.08    0.15 
  -1 -15  10   -0.03    0.21 
  -1 -15  10   -0.07    0.18 
   1 -15  -9    0.02    0.23 
   1 -14  -9    0.01    0.19 
   1 -13  -9    0.06    0.14 
   1 -12  -9    0.15    0.13 
   1 -11  -9    0.16    0.13 
   1 -10  -9    0.02    0.11 
   1  -9  -9   -0.04    0.11 
   1  -8  -9    0.15    0.12 
   1  -7  -9    0.00    0.10 
   1  -7  -9    0.26    0.12 
   1  -6  -9    1.25    0.17 
   1  -6  -9    1.47    0.19 
   1  -5  -9    0.11    0.09 
   1  -5  -9    0.04    0.10 
  -1   4   9    0.45    0.07 
   1  -4  -9    0.52    0.12 
   1  -4  -9    0.38    0.11 
  -1   3   9    1.23    0.11 
   1  -3  -9    1.35    0.15 
   1  -3  -9    1.08    0.15 
  -1   2   9   -0.11    0.05 
   1  -2  -9    0.13    0.08 
   1  -2  -9    0.09    0.08 
  -1   1   9    0.06    0.05 
   1  -1  -9    0.00    0.07 
   1  -1  -9    0.14    0.09 
   1   0  -9   -0.01    0.08 
   1   0  -9    0.08    0.09 
   1   1  -9    0.04    0.09 
   1   1  -9    0.03    0.08 
  -1  -2   9    0.16    0.08 
   1   2  -9   -0.09    0.09 
   1   2  -9    0.08    0.10 
  -1  -3   9    1.13    0.14 
  -1  -3   9    1.98    0.18 
  -1  -4   9    0.87    0.15 
  -1  -4   9    0.36    0.09 
  -1  -5   9    0.00    0.05 
  -1  -5   9    0.19    0.13 
  -1  -8   9    0.10    0.18 
  -1 -10   9    0.18    0.10 
  -1 -11   9    0.31    0.12 
  -1 -12   9    0.17    0.10 
  -1 -13   9    0.10    0.11 
  -1 -14   9    0.20    0.14 
  -1 -15   9   -0.02    0.22 
  -1 -15   9    0.07    0.16 
   1 -16  -8   -0.04    0.27 
   1 -15  -8   -0.11    0.21 
   1 -14  -8    0.16    0.18 
   1 -13  -8   -0.07    0.14 
   1 -12  -8    0.13    0.13 
   1 -11  -8    0.18    0.13 
   1 -10  -8    1.67    0.21 
   1  -9  -8    0.31    0.12 
   1  -8  -8    0.29    0.11 
   1  -7  -8    1.26    0.17 
   1  -6  -8    4.41    0.30 
   1  -6  -8    4.19    0.28 
   1  -5  -8    0.08    0.08 
   1  -5  -8    0.34    0.10 
  -1   4   8    0.70    0.07 
   1  -4  -8    0.83    0.13 
   1  -4  -8    0.80    0.13 
  -1   3   8    0.15    0.05 
   1  -3  -8    0.10    0.08 
   1  -3  -8   -0.04    0.07 
  -1   2   8    0.93    0.09 
   1  -2  -8    0.82    0.12 
   1  -2  -8    0.80    0.13 
   1  -1  -8    0.52    0.11 
   1  -1  -8    0.60    0.13 
   1   0  -8   11.62    0.63 
   1   0  -8   11.45    0.59 
  -1  -1   8    0.63    0.10 
  -1  -1   8    0.54    0.10 
   1   1  -8    0.63    0.13 
   1   1  -8    0.61    0.15 
  -1  -2   8    1.06    0.12 
   1   2  -8    0.61    0.15 
   1   2  -8    0.64    0.14 
  -1  -3   8    0.13    0.06 
  -1  -4   8    0.81    0.12 
  -1  -5   8    0.00    0.05 
  -1  -6   8    4.41    0.28 
  -1  -7   8    1.13    0.15 
  -1  -8   8    0.51    0.16 
  -1 -10   8    1.79    0.24 
  -1 -11   8    0.12    0.12 
  -1 -12   8    0.21    0.10 
  -1 -13   8    0.25    0.10 
  -1 -14   8    0.58    0.15 
  -1 -14   8    0.33    0.20 
  -1 -15   8    0.12    0.14 
  -1 -15   8    0.13    0.21 
  -1 -16   8   -0.04    0.18 
  -1 -16   8    0.07    0.21 
   1 -16  -7   -0.33    0.25 
   1 -15  -7   -0.23    0.19 
   1 -14  -7   -0.12    0.15 
   1 -13  -7   -0.03    0.13 
   1 -12  -7    0.38    0.15 
   1 -11  -7    0.06    0.11 
   1 -10  -7    0.10    0.11 
   1  -9  -7    0.01    0.10 
   1  -8  -7    5.51    0.34 
   1  -7  -7    0.25    0.11 
   1  -6  -7    0.88    0.14 
   1  -5  -7   -0.08    0.07 
  -1   4   7    9.73    0.44 
   1  -4  -7    9.68    0.50 
   1  -4  -7    9.70    0.50 
  -1   3   7    1.44    0.10 
   1  -3  -7    1.64    0.15 
   1  -3  -7    1.54    0.15 
  -1   2   7    4.43    0.22 
   1  -2  -7    3.79    0.25 
   1  -2  -7    4.34    0.25 
  -1   1   7    0.01    0.03 
   1  -1  -7    0.09    0.08 
   1  -1  -7    0.31    0.08 
  -1   0   7    0.02    0.04 
   1   0  -7    0.03    0.07 
   1   0  -7   -0.03    0.07 
  -1  -1   7    0.18    0.05 
   1   1  -7    0.37    0.10 
   1   1  -7    0.39    0.11 
  -1  -2   7    4.21    0.24 
   1   2  -7    4.09    0.30 
   1   2  -7    3.99    0.28 
  -1  -3   7    1.44    0.12 
  -1  -4   7   10.09    0.50 
  -1  -5   7    0.04    0.05 
  -1  -6   7    1.33    0.15 
  -1  -7   7   -0.03    0.05 
  -1  -8   7    6.67    0.39 
  -1  -9   7   -0.03    0.13 
  -1 -10   7   -0.04    0.17 
  -1 -11   7    0.16    0.09 
  -1 -12   7    0.69    0.14 
  -1 -13   7    0.17    0.10 
  -1 -14   7   -0.10    0.16 
  -1 -14   7    0.20    0.11 
  -1 -15   7    0.06    0.18 
  -1 -15   7    0.25    0.13 
  -1 -16   7   -0.27    0.18 
  -1 -16   7   -0.05    0.17 
   1 -16  -6   -0.01    0.24 
   1 -15  -6   -0.01    0.19 
   1 -14  -6    0.03    0.15 
   1 -13  -6   -0.19    0.11 
   1 -12  -6    0.69    0.16 
   1 -11  -6   -0.17    0.10 
   1 -10  -6    3.40    0.27 
   1  -9  -6    0.66    0.14 
   1  -8  -6    0.19    0.10 
   1  -7  -6   -0.05    0.07 
   1  -6  -6    3.19    0.22 
   1  -5  -6    5.11    0.29 
   1  -4  -6   11.94    0.59 
  -1   3   6    1.55    0.10 
   1  -3  -6    1.78    0.15 
   1  -3  -6    1.56    0.14 
   1  -2  -6    3.42    0.21 
   1  -2  -6    3.32    0.21 
   1  -1  -6    0.61    0.10 
   1  -1  -6    0.83    0.10 
  -1   0   6   25.50    1.11 
   1   0  -6   24.65    1.16 
   1   0  -6   25.36    1.19 
  -1  -1   6    0.63    0.08 
   1   1  -6    0.51    0.11 
   1   1  -6    0.61    0.13 
  -1  -2   6    3.60    0.20 
   1   2  -6    3.31    0.26 
   1   2  -6    3.55    0.24 
  -1  -3   6    2.03    0.14 
  -1  -4   6   12.36    0.59 
  -1  -5   6    5.72    0.32 
  -1  -6   6    3.47    0.23 
  -1  -7   6   -0.04    0.05 
  -1  -8   6    0.08    0.07 
  -1  -9   6    0.58    0.12 
  -1  -9   6    1.02    0.19 
  -1 -12   6    0.54    0.12 
  -1 -13   6   -0.01    0.14 
  -1 -13   6    0.17    0.10 
  -1 -14   6    0.24    0.11 
  -1 -14   6    0.04    0.17 
  -1 -15   6    0.18    0.13 
  -1 -15   6   -0.02    0.18 
  -1 -16   6    0.25    0.21 
   1 -17  -5   -0.02    0.30 
   1 -16  -5   -0.47    0.21 
   1 -15  -5    0.31    0.21 
   1 -14  -5    0.04    0.15 
   1 -13  -5   -0.04    0.12 
   1 -12  -5    0.29    0.13 
   1 -11  -5    0.71    0.16 
   1 -10  -5    0.34    0.13 
   1  -9  -5    0.01    0.09 
   1  -8  -5    0.22    0.10 
   1  -7  -5    0.44    0.10 
   1  -6  -5    2.98    0.21 
   1  -5  -5    2.07    0.16 
   1  -4  -5    0.01    0.06 
  -1   3   5    2.82    0.14 
   1  -3  -5    3.14    0.19 
  -1   2   5    8.69    0.40 
   1  -2  -5    8.66    0.43 
   1  -2  -5    9.17    0.44 
   1  -1  -5    3.66    0.22 
   1  -1  -5    3.78    0.21 
  -1   0   5   -0.01    0.02 
   1   0  -5   -0.06    0.04 
   1   0  -5    0.00    0.06 
  -1  -1   5    4.05    0.21 
   1   1  -5    4.22    0.24 
   1   1  -5    3.99    0.26 
  -1  -2   5    8.93    0.42 
   1   2  -5    8.37    0.47 
  -1  -3   5    3.15    0.18 
  -1  -4   5    0.03    0.04 
  -1  -5   5    2.17    0.15 
  -1  -6   5    3.31    0.21 
  -1  -7   5    0.52    0.09 
  -1  -8   5    0.42    0.10 
  -1  -9   5    0.03    0.07 
  -1 -10   5    0.87    0.19 
  -1 -10   5    0.52    0.13 
  -1 -11   5    1.05    0.22 
  -1 -12   5    0.22    0.13 
  -1 -12   5    0.21    0.15 
  -1 -13   5   -0.02    0.14 
  -1 -13   5    0.04    0.09 
  -1 -14   5   -0.06    0.14 
  -1 -14   5    0.16    0.09 
  -1 -15   5    0.17    0.17 
  -1 -15   5    0.12    0.12 
  -1 -16   5   -0.05    0.19 
  -1 -17   5    0.26    0.23 
   1 -17  -4    0.15    0.29 
   1 -16  -4   -0.25    0.21 
   1 -15  -4    0.09    0.19 
   1 -14  -4    0.34    0.16 
   1 -13  -4    0.06    0.12 
   1 -12  -4    0.19    0.12 
   1 -11  -4    1.27    0.18 
   1 -10  -4    0.61    0.14 
   1  -9  -4    0.33    0.10 
   1  -8  -4    0.60    0.12 
   1  -7  -4    6.05    0.34 
   1  -6  -4    7.97    0.42 
   1  -5  -4    2.19    0.16 
   1  -4  -4    0.84    0.09 
   1  -3  -4    5.89    0.30 
  -1   2   4    0.81    0.05 
   1  -2  -4    0.82    0.09 
   1  -2  -4    0.94    0.09 
  -1   1   4    0.23    0.03 
   1  -1  -4    0.16    0.05 
   1  -1  -4    0.17    0.05 
  -1   0   4    2.21    0.12 
   1   0  -4    2.25    0.17 
   1   0  -4    2.31    0.14 
  -1  -1   4    0.26    0.04 
   1   1  -4    0.10    0.07 
   1   1  -4    0.08    0.06 
  -1  -2   4    0.93    0.08 
   1   2  -4    0.91    0.12 
  -1  -3   4    5.34    0.27 
  -1  -4   4    0.99    0.10 
  -1  -5   4    2.40    0.16 
  -1  -6   4    8.86    0.44 
  -1  -7   4    6.52    0.35 
  -1  -8   4    0.43    0.09 
  -1  -9   4    0.26    0.08 
  -1 -10   4    1.41    0.19 
  -1 -10   4    0.53    0.12 
  -1 -12   4    0.15    0.10 
  -1 -12   4    0.09    0.12 
  -1 -13   4    0.12    0.14 
  -1 -13   4    0.16    0.10 
  -1 -14   4    0.19    0.15 
  -1 -14   4    0.33    0.11 
  -1 -15   4    0.06    0.17 
  -1 -16   4   -0.02    0.18 
  -1 -17   4   -0.05    0.21 
   1 -17  -3   -0.07    0.27 
   1 -16  -3    0.26    0.23 
   1 -15  -3   -0.31    0.16 
   1 -14  -3    0.22    0.15 
   1 -13  -3    0.16    0.13 
   1 -12  -3    0.09    0.12 
   1 -11  -3    0.10    0.12 
   1 -10  -3    0.10    0.10 
   1  -9  -3    0.14    0.08 
   1  -8  -3    4.45    0.28 
   1  -7  -3    0.02    0.07 
   1  -6  -3    0.06    0.06 
   1  -5  -3    2.07    0.15 
   1  -4  -3    8.68    0.43 
   1  -3  -3    8.23    0.40 
  -1   2   3    1.20    0.06 
   1  -2  -3    1.16    0.09 
  -1   1   3    0.42    0.04 
   1  -1  -3    0.52    0.06 
   1  -1  -3    0.51    0.05 
  -1   0   3    0.01    0.02 
   1   0  -3   -0.02    0.02 
   1   0  -3    0.03    0.05 
  -1  -1   3    0.59    0.05 
   1   1  -3    0.31    0.06 
   1   1  -3    0.51    0.08 
  -1  -2   3    1.28    0.09 
  -1  -3   3    8.05    0.38 
  -1  -4   3    8.91    0.42 
  -1  -5   3    1.99    0.13 
  -1  -6   3    0.05    0.04 
  -1  -7   3    0.04    0.04 
  -1  -8   3    4.64    0.27 
  -1  -9   3    0.06    0.06 
  -1 -10   3    0.18    0.12 
  -1 -10   3   -0.08    0.06 
  -1 -11   3   -0.02    0.11 
  -1 -12   3   -0.01    0.11 
  -1 -12   3    0.11    0.09 
  -1 -13   3    0.28    0.10 
  -1 -13   3    0.15    0.14 
  -1 -14   3    0.15    0.15 
  -1 -15   3    0.12    0.17 
  -1 -16   3   -0.06    0.18 
  -1 -17   3    0.11    0.22 
   1 -17  -2   -0.31    0.26 
   1 -16  -2    0.05    0.21 
   1 -15  -2    0.00    0.17 
   1 -14  -2    0.50    0.17 
   1 -13  -2    0.02    0.11 
   1 -12  -2    4.05    0.31 
   1 -11  -2    0.12    0.11 
   1 -10  -2    6.45    0.32 
   1 -10  -2    6.41    0.39 
   1  -9  -2    0.06    0.04 
   1  -9  -2    0.05    0.07 
   1  -8  -2    0.40    0.05 
   1  -8  -2    0.45    0.10 
   1  -7  -2    0.09    0.06 
   1  -7  -2    0.02    0.03 
   1  -6  -2    2.92    0.19 
   1  -6  -2    2.70    0.14 
   1  -5  -2    0.08    0.05 
   1  -4  -2   75.64    3.36 
   1  -3  -2    3.03    0.17 
   1  -2  -2   41.18    1.83 
  -1   1   2    0.96    0.05 
   1  -1  -2    1.16    0.07 
  -1   0   2   27.89    1.19 
   1   0  -2   27.55    1.25 
  -1  -1   2    1.05    0.06 
   1   1  -2    0.90    0.09 
  -1  -2   2   38.90    1.68 
  -1  -3   2    3.05    0.16 
  -1  -4   2   77.57    3.32 
  -1  -5   2    0.02    0.03 
  -1  -6   2    2.93    0.17 
  -1  -7   2    0.01    0.04 
  -1  -8   2    0.41    0.08 
  -1  -9   2    0.01    0.05 
  -1  -9   2    0.06    0.09 
  -1 -10   2    7.15    0.44 
  -1 -11   2   -0.06    0.10 
  -1 -12   2    4.32    0.34 
  -1 -12   2    4.28    0.28 
  -1 -13   2    0.11    0.10 
  -1 -13   2   -0.11    0.12 
  -1 -14   2    0.70    0.19 
  -1 -15   2   -0.05    0.16 
  -1 -16   2   -0.15    0.17 
  -1 -17   2    0.13    0.21 
   1 -17  -1   -0.13    0.24 
   1 -16  -1   -0.03    0.19 
   1 -15  -1   -0.19    0.14 
   1 -14  -1    0.28    0.15 
   1 -13  -1   -0.06    0.11 
   1 -12  -1    0.09    0.12 
   1 -11  -1    0.49    0.14 
   1 -10  -1    0.44    0.13 
   1 -10  -1    0.53    0.08 
   1  -9  -1    0.10    0.05 
   1  -9  -1    0.00    0.08 
   1  -8  -1    1.28    0.14 
   1  -8  -1    1.07    0.09 
   1  -7  -1    2.61    0.18 
   1  -7  -1    2.49    0.14 
   1  -6  -1    1.14    0.11 
   1  -6  -1    0.94    0.07 
   1  -5  -1    0.04    0.04 
   1  -5  -1    0.03    0.02 
   1  -4  -1    0.33    0.03 
   1  -4  -1    0.36    0.06 
   1  -3  -1    3.51    0.16 
   1  -3  -1    3.51    0.19 
  -1   2   1    7.69    0.34 
   1  -2  -1    7.44    0.34 
   1  -2  -1    7.93    0.36 
  -1   1   1   19.68    0.88 
   1  -1  -1   21.01    0.91 
   1  -1  -1   20.18    0.88 
   1   0  -1   -0.02    0.01 
   1   0  -1   -0.01    0.01 
  -1  -1   1   19.80    0.86 
  -1  -2   1    7.76    0.35 
  -1  -3   1    3.65    0.18 
  -1  -4   1    0.43    0.05 
  -1  -5   1    0.02    0.03 
  -1  -6   1    1.13    0.09 
  -1  -7   1    2.42    0.15 
  -1  -8   1    1.37    0.16 
  -1  -8   1    1.30    0.12 
  -1  -9   1    0.02    0.08 
  -1  -9   1    0.03    0.05 
  -1 -10   1    0.11    0.08 
  -1 -10   1    0.63    0.14 
  -1 -11   1    0.47    0.13 
  -1 -12   1    0.29    0.08 
  -1 -12   1    0.09    0.12 
  -1 -13   1    0.09    0.13 
  -1 -14   1    0.17    0.14 
  -1 -15   1   -0.04    0.15 
  -1 -16   1    0.06    0.19 
  -1 -17   1    0.06    0.21 
   1 -17   0    0.26    0.22 
   1 -16   0   -0.11    0.19 
   1 -15   0   -0.11    0.16 
   1 -14   0    0.06    0.14 
   1 -13   0   -0.06    0.13 
   1 -12   0   -0.13    0.10 
   1 -11   0    4.15    0.30 
   1 -11   0    3.57    0.23 
   1 -10   0   -0.06    0.09 
   1 -10   0   -0.05    0.06 
   1  -9   0    0.00    0.07 
   1  -9   0    0.05    0.04 
   1  -8   0   -0.10    0.04 
   1  -8   0    0.05    0.06 
   1  -7   0   14.34    0.64 
   1  -7   0   13.95    0.70 
   1  -6   0    0.05    0.05 
   1  -6   0    0.03    0.03 
   1  -5   0    0.17    0.05 
   1  -5   0    0.15    0.03 
   1  -4   0   -0.02    0.02 
   1  -4   0    0.07    0.04 
   1  -3   0    3.17    0.18 
   1  -3   0    3.48    0.16 
   1  -2   0   -0.03    0.01 
   1  -2   0   -0.04    0.01 
   1  -1   0    9.93    0.43 
   1  -1   0    9.95    0.45 
  -1   0   0   -0.04    0.00 
  -1   0   0   -0.03    0.00 
  -1   0   0   -0.03    0.01 
   1   0   0   -0.04    0.00 
   1   0   0   -0.04    0.01 
   1   1   0    6.84    0.31 
  -1  -2   0   -0.04    0.01 
  -1  -3   0    3.23    0.16 
  -1  -4   0   -0.01    0.02 
  -1  -5   0    0.06    0.03 
  -1  -6   0    0.00    0.03 
  -1  -6   0    0.00    0.06 
  -1  -7   0   13.04    0.60 
  -1  -7   0   13.53    0.67 
  -1  -8   0    0.03    0.04 
  -1  -8   0   -0.06    0.07 
  -1  -9   0   -0.09    0.08 
  -1  -9   0    0.02    0.04 
  -1 -10   0    0.01    0.10 
  -1 -11   0    4.20    0.32 
  -1 -12   0   -0.03    0.10 
  -1 -13   0    0.05    0.12 
  -1 -14   0   -0.01    0.13 
  -1 -15   0   -0.29    0.13 
  -1 -16   0    0.06    0.21 
  -1 -17   0   -0.23    0.23 
   1 -17   1   -0.29    0.19 
   1 -16   1    0.12    0.19 
   1 -15   1   -0.03    0.17 
   1 -14   1    0.22    0.15 
   1 -13   1    0.20    0.13 
   1 -12   1   -0.04    0.11 
   1 -12   1    0.16    0.08 
   1 -11   1    0.60    0.11 
   1 -11   1    0.71    0.15 
   1 -10   1    0.70    0.15 
   1 -10   1    0.71    0.10 
   1  -9   1    0.11    0.05 
   1  -9   1    0.09    0.08 
   1  -8   1    1.24    0.11 
   1  -8   1    1.34    0.15 
   1  -7   1    2.61    0.19 
   1  -7   1    2.81    0.16 
   1  -6   1    1.05    0.09 
   1  -6   1    1.29    0.12 
   1  -5   1    0.09    0.04 
   1  -5   1    0.06    0.03 
   1  -4   1    0.50    0.06 
   1  -4   1    0.60    0.07 
   1  -3   1    3.88    0.19 
   1  -3   1    3.61    0.20 
   1  -2   1    7.88    0.35 
   1  -1   1   20.84    0.90 
  -1   0  -1   -0.01    0.01 
   1   0   1   -0.01    0.00 
  -1  -1  -1   19.03    0.85 
  -1  -2  -1    7.67    0.36 
   1   2   1    7.44    0.35 
  -1  -3  -1    3.46    0.19 
  -1  -4  -1    0.43    0.04 
  -1  -4  -1    0.39    0.06 
  -1  -5  -1    0.04    0.02 
  -1  -5  -1   -0.02    0.04 
  -1  -6  -1    0.96    0.12 
  -1  -6  -1    1.07    0.08 
  -1  -7  -1    2.50    0.19 
  -1  -7  -1    2.48    0.14 
  -1  -8  -1    1.01    0.14 
  -1  -8  -1    1.17    0.09 
  -1  -9  -1   -0.07    0.08 
  -1  -9  -1    0.01    0.04 
  -1 -10  -1    0.63    0.14 
  -1 -11  -1    0.55    0.14 
  -1 -11  -1    0.48    0.10 
  -1 -12  -1    0.05    0.11 
  -1 -13  -1    0.00    0.12 
  -1 -14  -1    0.40    0.16 
  -1 -15  -1   -0.27    0.13 
  -1 -16  -1    0.04    0.20 
  -1 -17  -1    0.05    0.25 
   1 -17   2    0.01    0.21 
   1 -16   2   -0.17    0.17 
   1 -15   2    0.00    0.16 
   1 -14   2    0.47    0.17 
   1 -13   2    0.09    0.09 
   1 -13   2    0.19    0.13 
   1 -12   2    4.41    0.28 
   1 -12   2    4.50    0.35 
   1 -11   2    0.15    0.08 
   1 -11   2    0.27    0.13 
   1 -10   2    7.04    0.38 
   1 -10   2    7.29    0.44 
   1  -9   2    0.08    0.08 
   1  -9   2    0.02    0.05 
   1  -8   2    0.41    0.08 
   1  -8   2    0.48    0.10 
   1  -7   2   -0.02    0.06 
   1  -7   2    0.09    0.04 
   1  -6   2    3.36    0.22 
   1  -6   2    3.35    0.19 
   1  -5   2    0.06    0.03 
   1  -4   2   80.21    3.43 
   1  -3   2    2.98    0.16 
   1  -2   2   39.92    1.72 
  -1   1  -2    1.04    0.08 
   1  -1   2    1.03    0.06 
  -1   0  -2   30.51    1.31 
  -1   0  -2   29.00    1.32 
   1   0   2   29.30    1.27 
  -1  -1  -2    0.93    0.06 
  -1  -1  -2    1.06    0.06 
   1   1   2    0.78    0.05 
  -1  -2  -2   36.93    1.64 
   1   2   2   36.99    1.59 
  -1  -3  -2    2.84    0.16 
   1   3   2    2.94    0.15 
  -1  -4  -2   76.11    3.39 
  -1  -4  -2   76.42    3.25 
  -1  -5  -2    0.02    0.02 
  -1  -5  -2   -0.04    0.05 
  -1  -6  -2    2.86    0.15 
  -1  -6  -2    2.89    0.20 
  -1  -7  -2   -0.01    0.03 
  -1  -7  -2    0.01    0.06 
  -1  -8  -2    0.33    0.05 
  -1  -8  -2    0.42    0.10 
  -1  -9  -2   -0.03    0.04 
  -1  -9  -2   -0.03    0.08 
  -1 -10  -2    6.57    0.40 
  -1 -11  -2   -0.01    0.11 
  -1 -12  -2    4.42    0.33 
  -1 -13  -2    0.06    0.12 
  -1 -14  -2    0.49    0.17 
  -1 -15  -2    0.03    0.17 
  -1 -16  -2   -0.09    0.20 
  -1 -17  -2   -0.05    0.25 
   1 -17   3    0.02    0.21 
   1 -16   3    0.27    0.20 
   1 -15   3   -0.05    0.17 
   1 -14   3    0.46    0.17 
   1 -13   3    0.06    0.13 
   1 -13   3    0.36    0.10 
   1 -12   3    0.11    0.12 
   1 -12   3    0.02    0.08 
   1 -11   3    0.04    0.08 
   1 -11   3    0.11    0.11 
   1 -10   3    0.00    0.10 
   1 -10   3    0.05    0.07 
   1  -9   3    0.15    0.06 
   1  -9   3    0.10    0.09 
   1  -8   3    4.46    0.30 
   1  -8   3    5.16    0.28 
   1  -7   3    0.04    0.04 
   1  -6   3    0.03    0.04 
   1  -5   3    2.06    0.14 
   1  -4   3    9.83    0.46 
   1  -3   3    8.53    0.40 
   1  -2   3    1.09    0.08 
  -1   1  -3    0.52    0.08 
   1  -1   3    0.58    0.06 
  -1   0  -3    0.00    0.04 
  -1   0  -3   -0.01    0.03 
   1   0   3    0.00    0.02 
  -1  -1  -3    0.56    0.06 
  -1  -1  -3    0.61    0.06 
  -1  -2  -3    1.19    0.09 
   1   2   3    1.25    0.08 
  -1  -3  -3    7.80    0.37 
   1   3   3    7.51    0.35 
  -1  -4  -3    8.73    0.43 
  -1  -5  -3    1.92    0.14 
  -1  -6  -3    0.02    0.06 
  -1  -7  -3   -0.02    0.06 
  -1  -7  -3    0.02    0.02 
  -1  -8  -3    4.19    0.21 
  -1  -8  -3    4.60    0.28 
  -1  -9  -3   -0.17    0.07 
  -1 -10  -3   -0.02    0.09 
  -1 -11  -3    0.08    0.11 
  -1 -12  -3    0.20    0.12 
  -1 -13  -3    0.00    0.12 
  -1 -14  -3    0.33    0.16 
  -1 -15  -3    0.01    0.16 
  -1 -16  -3   -0.07    0.21 
  -1 -17  -3   -0.38    0.26 
   1 -17   4    0.14    0.22 
   1 -16   4   -0.04    0.19 
   1 -15   4    0.08    0.17 
   1 -14   4    0.28    0.16 
   1 -14   4    0.36    0.12 
   1 -13   4   -0.08    0.13 
   1 -13   4   -0.04    0.08 
   1 -12   4    0.00    0.08 
   1 -12   4    0.25    0.13 
   1 -11   4    1.59    0.21 
   1 -11   4    1.40    0.18 
   1 -10   4    0.30    0.10 
   1 -10   4    0.37    0.14 
   1  -9   4    0.39    0.11 
   1  -9   4    0.32    0.08 
   1  -8   4    0.54    0.10 
   1  -7   4    7.17    0.38 
   1  -6   4    9.34    0.46 
   1  -5   4    2.46    0.16 
   1  -4   4    1.10    0.11 
   1  -3   4    5.90    0.29 
  -1   2  -4    0.93    0.11 
   1  -2   4    0.96    0.09 
  -1   1  -4    0.04    0.07 
  -1   1  -4    0.04    0.05 
   1  -1   4    0.14    0.04 
   1   0   4    2.05    0.12 
  -1  -1  -4    0.20    0.04 
  -1  -1  -4    0.24    0.06 
  -1  -2  -4    1.27    0.11 
  -1  -2  -4    1.22    0.09 
   1   2   4    0.91    0.07 
  -1  -3  -4    5.58    0.28 
   1   3   4    5.49    0.26 
  -1  -4  -4    0.81    0.09 
  -1  -5  -4    2.13    0.15 
  -1  -6  -4    8.40    0.44 
  -1  -7  -4    6.19    0.35 
  -1  -8  -4    0.64    0.12 
  -1  -9  -4    0.26    0.10 
  -1 -10  -4    0.71    0.14 
  -1 -11  -4    1.56    0.20 
  -1 -12  -4   -0.17    0.11 
  -1 -13  -4   -0.12    0.11 
  -1 -14  -4    0.23    0.16 
  -1 -15  -4   -0.12    0.16 
  -1 -16  -4   -0.30    0.22 
  -1 -17  -4    0.14    0.29 
   1 -17   5    0.03    0.22 
   1 -16   5    0.11    0.20 
   1 -15   5    0.15    0.17 
   1 -14   5    0.12    0.11 
   1 -14   5   -0.06    0.14 
   1 -13   5    0.08    0.10 
   1 -13   5    0.09    0.13 
   1 -12   5    0.27    0.11 
   1 -12   5    0.49    0.16 
   1 -11   5    0.57    0.13 
   1 -11   5    0.74    0.17 
   1 -10   5    0.34    0.13 
   1 -10   5    0.38    0.11 
   1  -9   5    0.06    0.07 
   1  -8   5    0.30    0.09 
   1  -7   5    0.53    0.10 
   1  -6   5    3.06    0.20 
   1  -5   5    2.18    0.16 
   1  -4   5   -0.21    0.05 
   1  -3   5    3.50    0.20 
  -1   2  -5    9.25    0.48 
   1  -2   5    8.80    0.43 
  -1   1  -5    4.14    0.25 
  -1   1  -5    3.84    0.24 
   1  -1   5    4.19    0.21 
  -1   0  -5   -0.06    0.05 
  -1   0  -5    0.02    0.06 
   1   0   5    0.00    0.03 
  -1  -1  -5    4.26    0.24 
  -1  -1  -5    4.10    0.22 
  -1  -2  -5    9.17    0.46 
  -1  -2  -5    9.32    0.44 
   1   2   5    9.38    0.43 
  -1  -3  -5    3.13    0.20 
  -1  -3  -5    3.08    0.18 
   1   3   5    3.08    0.16 
  -1  -4  -5    0.10    0.06 
   1   4   5    0.02    0.03 
  -1  -5  -5    2.14    0.16 
  -1  -6  -5    2.92    0.20 
  -1  -7  -5    0.46    0.10 
  -1  -8  -5    0.31    0.10 
  -1  -9  -5   -0.06    0.08 
  -1 -10  -5    0.41    0.13 
  -1 -11  -5    0.60    0.15 
  -1 -12  -5    0.49    0.15 
  -1 -13  -5   -0.03    0.14 
  -1 -14  -5   -0.05    0.13 
  -1 -15  -5    0.17    0.19 
  -1 -16  -5   -0.35    0.21 
  -1 -17  -5   -0.19    0.29 
   1 -16   6    0.24    0.20 
   1 -15   6    0.17    0.19 
   1 -15   6   -0.01    0.12 
   1 -14   6    0.41    0.18 
   1 -14   6    0.31    0.12 
   1 -13   6    0.07    0.14 
   1 -13   6    0.03    0.09 
   1 -12   6    0.62    0.13 
   1 -12   6    0.88    0.18 
   1 -11   6   -0.05    0.08 
   1 -11   6   -0.04    0.12 
   1 -10   6    3.43    0.26 
   1  -9   6    0.71    0.13 
   1  -8   6    0.02    0.08 
   1  -7   6    0.01    0.05 
   1  -6   6    3.10    0.21 
   1  -5   6    6.32    0.34 
   1  -4   6   12.07    0.58 
   1  -3   6    1.78    0.13 
  -1   2  -6    3.66    0.25 
   1  -2   6    3.51    0.20 
  -1   1  -6    0.46    0.10 
  -1   1  -6    0.49    0.11 
   1  -1   6    0.62    0.08 
  -1   0  -6   25.13    1.19 
  -1   0  -6   26.17    1.20 
   1   0   6   25.74    1.13 
  -1  -1  -6    0.57    0.09 
  -1  -1  -6    0.71    0.09 
  -1  -2  -6    3.68    0.21 
  -1  -2  -6    3.76    0.22 
   1   2   6    3.42    0.19 
  -1  -3  -6    1.71    0.14 
  -1  -3  -6    1.77    0.16 
   1   3   6    1.94    0.12 
  -1  -4  -6   11.07    0.57 
  -1  -4  -6   11.42    0.55 
   1   4   6   11.27    0.51 
  -1  -5  -6    5.45    0.31 
  -1  -6  -6    3.21    0.22 
  -1  -7  -6    0.06    0.08 
  -1  -8  -6    0.23    0.10 
  -1  -9  -6    0.92    0.15 
  -1 -10  -6    3.42    0.27 
  -1 -11  -6    0.17    0.11 
  -1 -12  -6    0.68    0.17 
  -1 -13  -6   -0.07    0.13 
  -1 -14  -6    0.05    0.16 
  -1 -15  -6   -0.08    0.19 
  -1 -16  -6   -0.15    0.25 
   1 -16   7    0.09    0.21 
   1 -15   7    0.11    0.13 
   1 -15   7   -0.08    0.17 
   1 -14   7   -0.01    0.16 
   1 -14   7   -0.04    0.10 
   1 -13   7    0.08    0.10 
   1 -13   7   -0.03    0.14 
   1 -12   7    0.39    0.16 
   1 -12   7    0.42    0.11 
   1 -11   7    0.08    0.09 
   1 -10   7    0.01    0.08 
   1  -9   7    0.04    0.07 
   1  -8   7    7.34    0.41 
   1  -7   7    0.17    0.08 
   1  -6   7    1.12    0.15 
   1  -5   7    0.06    0.05 
   1  -4   7    9.47    0.48 
   1  -3   7    1.47    0.12 
  -1   2  -7    4.19    0.29 
   1  -2   7    4.20    0.24 
  -1   1  -7    0.22    0.09 
  -1   1  -7    0.18    0.09 
   1  -1   7    0.26    0.06 
  -1   0  -7    0.09    0.07 
  -1   0  -7    0.06    0.08 
   1   0   7   -0.04    0.04 
  -1  -1  -7    0.17    0.08 
  -1  -1  -7    0.25    0.08 
   1   1   7    0.24    0.05 
  -1  -2  -7    4.03    0.26 
  -1  -2  -7    4.12    0.24 
   1   2   7    4.23    0.22 
  -1  -3  -7    1.70    0.16 
  -1  -3  -7    1.52    0.14 
   1   3   7    1.50    0.11 
  -1  -4  -7   10.12    0.50 
  -1  -4  -7    9.57    0.52 
   1   4   7    9.81    0.46 
  -1  -5  -7   -0.08    0.07 
  -1  -5  -7    0.17    0.08 
   1   5   7    0.05    0.03 
  -1  -6  -7    1.15    0.14 
  -1  -7  -7    0.26    0.10 
  -1  -8  -7    6.31    0.37 
  -1  -9  -7   -0.01    0.10 
  -1 -10  -7    0.15    0.11 
  -1 -11  -7    0.23    0.12 
  -1 -12  -7    0.39    0.14 
  -1 -13  -7   -0.06    0.14 
  -1 -14  -7    0.07    0.16 
  -1 -15  -7    0.06    0.21 
  -1 -16  -7   -0.04    0.25 
   1 -16   8    0.10    0.22 
   1 -16   8   -0.09    0.18 
   1 -15   8   -0.02    0.19 
   1 -15   8    0.16    0.15 
   1 -14   8    0.49    0.19 
   1 -14   8    0.57    0.16 
   1 -13   8    0.13    0.15 
   1 -13   8    0.12    0.10 
   1 -12   8    0.12    0.09 
   1 -12   8    0.01    0.13 
   1 -11   8    0.15    0.11 
   1 -10   8    1.34    0.19 
   1  -9   8    0.22    0.09 
   1  -8   8    0.21    0.09 
   1  -7   8    1.13    0.15 
   1  -6   8    4.18    0.27 
   1  -5   8    0.15    0.06 
   1  -4   8    0.90    0.12 
  -1   3  -8    0.18    0.10 
   1  -3   8    0.12    0.05 
  -1   2  -8    0.71    0.15 
   1  -2   8    0.81    0.11 
  -1   1  -8    0.49    0.15 
  -1   1  -8    0.35    0.13 
   1  -1   8    0.70    0.10 
  -1   0  -8   13.42    0.62 
  -1   0  -8   11.06    0.62 
   1   0   8   10.97    0.55 
  -1  -1  -8    0.63    0.12 
  -1  -1  -8    0.61    0.12 
   1   1   8    0.61    0.08 
  -1  -2  -8    0.85    0.12 
  -1  -2  -8    1.16    0.14 
   1   2   8    0.90    0.10 
  -1  -3  -8    0.02    0.07 
  -1  -3  -8    0.17    0.09 
   1   3   8    0.11    0.05 
  -1  -4  -8    0.72    0.11 
  -1  -4  -8    0.85    0.14 
   1   4   8    0.80    0.09 
  -1  -5  -8    0.04    0.09 
  -1  -5  -8    0.07    0.08 
   1   5   8    0.23    0.06 
  -1  -6  -8    4.41    0.30 
  -1  -6  -8    3.84    0.26 
  -1  -7  -8    1.07    0.17 
  -1  -7  -8    0.86    0.14 
  -1  -8  -8    0.40    0.12 
  -1  -9  -8    0.09    0.11 
  -1 -10  -8    1.61    0.20 
  -1 -11  -8    0.05    0.12 
  -1 -12  -8   -0.24    0.11 
  -1 -13  -8   -0.34    0.13 
  -1 -14  -8    0.29    0.19 
  -1 -15  -8   -0.41    0.20 
  -1 -16  -8   -0.15    0.27 
   1 -15   9    0.02    0.20 
   1 -15   9   -0.08    0.16 
   1 -14   9   -0.14    0.18 
   1 -14   9    0.11    0.14 
   1 -13   9   -0.03    0.10 
   1 -13   9   -0.02    0.15 
   1 -12   9    0.19    0.11 
   1 -11   9    0.33    0.12 
   1 -10   9    0.20    0.09 
   1  -9   9    0.14    0.09 
   1  -8   9    0.06    0.09 
   1  -7   9    0.17    0.08 
   1  -6   9    1.41    0.17 
   1  -5   9   -0.02    0.05 
   1  -4   9    0.23    0.08 
  -1   3  -9    1.24    0.19 
   1  -3   9    1.08    0.13 
  -1   2  -9   -0.04    0.07 
   1  -2   9   -0.02    0.05 
  -1   1  -9    0.14    0.09 
  -1   1  -9    0.03    0.09 
   1  -1   9   -0.04    0.05 
  -1   0  -9    0.02    0.10 
  -1   0  -9    0.00    0.09 
   1   0   9   -0.07    0.04 
  -1  -1  -9    0.11    0.09 
  -1  -1  -9   -0.01    0.08 
   1   1   9   -0.02    0.05 
  -1  -2  -9    0.14    0.09 
  -1  -2  -9    0.09    0.08 
   1   2   9    0.01    0.05 
  -1  -3  -9    1.12    0.15 
  -1  -3  -9    1.22    0.14 
   1   3   9    1.07    0.11 
  -1  -4  -9    0.55    0.11 
  -1  -4  -9    0.68    0.13 
   1   4   9    0.34    0.09 
  -1  -5  -9   -0.07    0.09 
  -1  -5  -9    0.06    0.09 
   1   5   9    0.00    0.05 
  -1  -6  -9    1.50    0.18 
  -1  -6  -9    1.69    0.20 
  -1  -7  -9    0.10    0.10 
  -1  -7  -9    0.19    0.11 
  -1  -8  -9   -0.10    0.10 
  -1  -8  -9   -0.01    0.10 
  -1  -9  -9    0.04    0.11 
  -1 -10  -9    0.14    0.12 
  -1 -11  -9    0.17    0.13 
  -1 -12  -9   -0.18    0.12 
  -1 -13  -9   -0.22    0.14 
  -1 -14  -9   -0.30    0.17 
  -1 -15  -9   -0.13    0.22 
   1 -15  10    0.08    0.19 
   1 -15  10   -0.15    0.21 
   1 -14  10   -0.05    0.15 
   1 -14  10    0.13    0.20 
   1 -13  10    0.16    0.13 
   1 -13  10   -0.15    0.16 
   1 -12  10    0.19    0.12 
   1 -11  10    0.04    0.09 
   1 -10  10    0.06    0.09 
   1  -9  10    0.01    0.08 
   1  -8  10    0.87    0.15 
   1  -7  10    0.15    0.09 
   1  -6  10    1.66    0.19 
   1  -5  10    0.43    0.10 
   1  -4  10    0.27    0.09 
  -1   3 -10    0.00    0.10 
   1  -3  10    0.11    0.07 
  -1   2 -10    0.59    0.16 
   1  -2  10    0.73    0.11 
  -1   1 -10    0.28    0.13 
  -1   1 -10    0.32    0.14 
   1  -1  10    0.37    0.09 
  -1   0 -10    1.52    0.19 
  -1   0 -10    1.07    0.18 
   1   0  10    1.14    0.14 
  -1  -1 -10    0.14    0.10 
  -1  -1 -10    0.11    0.11 
   1   1  10    0.27    0.08 
  -1  -2 -10    0.40    0.12 
  -1  -2 -10    0.65    0.14 
   1   2  10    0.72    0.11 
  -1  -3 -10    0.30    0.10 
  -1  -3 -10    0.15    0.10 
   1   3  10    0.06    0.06 
  -1  -4 -10    0.38    0.12 
  -1  -4 -10    0.47    0.12 
   1   4  10    0.29    0.09 
  -1  -5 -10    0.55    0.14 
  -1  -5 -10    0.54    0.13 
  -1  -6 -10    2.20    0.21 
  -1  -6 -10    2.01    0.23 
  -1  -7 -10    0.03    0.11 
  -1  -7 -10   -0.11    0.12 
  -1  -8 -10    1.11    0.18 
  -1  -8 -10    1.48    0.21 
  -1  -9 -10   -0.06    0.12 
  -1  -9 -10    0.04    0.11 
  -1 -10 -10    0.00    0.14 
  -1 -10 -10    0.18    0.13 
  -1 -11 -10    0.11    0.15 
  -1 -11 -10    0.11    0.13 
  -1 -12 -10   -0.06    0.14 
  -1 -13 -10    0.04    0.17 
  -1 -14 -10   -0.04    0.20 
  -1 -15 -10   -0.10    0.25 
   1 -14  11    0.03    0.19 
   1 -14  11   -0.30    0.20 
   1 -13  11    0.17    0.14 
   1 -12  11    0.02    0.12 
   1 -11  11    0.07    0.11 
   1 -10  11    0.01    0.09 
   1  -9  11   -0.04    0.08 
   1  -8  11    1.31    0.18 
   1  -7  11   -0.16    0.08 
   1  -6  11    2.76    0.23 
   1  -5  11    0.12    0.08 
   1  -4  11    4.05    0.27 
  -1   3 -11    0.12    0.11 
   1  -3  11    0.34    0.09 
  -1   2 -11    2.88    0.29 
   1  -2  11    2.96    0.21 
  -1   1 -11    0.93    0.19 
  -1   1 -11    0.68    0.16 
   1  -1  11    0.74    0.11 
  -1   0 -11    0.01    0.10 
  -1   0 -11   -0.06    0.11 
   1   0  11    0.01    0.06 
  -1  -1 -11    1.06    0.19 
  -1  -1 -11    0.81    0.17 
   1   1  11    0.87    0.11 
  -1  -2 -11    3.56    0.29 
  -1  -2 -11    3.24    0.27 
   1   2  11    3.33    0.22 
  -1  -3 -11    0.18    0.12 
  -1  -3 -11    0.13    0.11 
   1   3  11    0.34    0.09 
  -1  -4 -11    4.27    0.30 
  -1  -4 -11    4.10    0.31 
   1   4  11    3.93    0.25 
  -1  -5 -11    0.25    0.12 
  -1  -5 -11    0.03    0.11 
  -1  -6 -11    2.83    0.29 
  -1  -6 -11    3.33    0.27 
  -1  -7 -11   -0.02    0.12 
  -1  -7 -11   -0.02    0.12 
  -1  -8 -11    1.35    0.22 
  -1  -8 -11    1.83    0.21 
  -1  -9 -11    0.04    0.13 
  -1  -9 -11   -0.15    0.12 
  -1 -10 -11    0.07    0.13 
  -1 -10 -11    0.01    0.13 
  -1 -11 -11    0.01    0.15 
  -1 -11 -11   -0.13    0.15 
  -1 -12 -11    0.16    0.17 
  -1 -12 -11    0.15    0.17 
  -1 -13 -11    0.00    0.18 
  -1 -13 -11    0.08    0.18 
  -1 -14 -11    0.10    0.19 
  -1 -14 -11   -0.26    0.22 
   1 -13  12   -0.01    0.18 
   1 -12  12    0.07    0.15 
   1 -11  12   -0.03    0.11 
   1 -10  12    0.38    0.14 
   1  -9  12    0.24    0.12 
   1  -8  12    0.43    0.12 
   1  -7  12    0.09    0.08 
   1  -6  12    0.78    0.14 
   1  -5  12    0.09    0.08 
   1  -4  12    1.95    0.20 
  -1   3 -12    0.42    0.14 
   1  -3  12    0.20    0.09 
  -1   2 -12    0.26    0.14 
   1  -2  12    0.35    0.10 
  -1   1 -12   -0.14    0.14 
  -1   1 -12   -0.02    0.13 
   1  -1  12    0.02    0.07 
  -1   0 -12    7.46    0.49 
  -1   0 -12    8.10    0.52 
   1   0  12    7.76    0.42 
  -1  -1 -12    0.02    0.11 
  -1  -1 -12   -0.10    0.13 
   1   1  12    0.02    0.08 
  -1  -2 -12    0.53    0.15 
  -1  -2 -12    0.57    0.17 
   1   2  12    0.54    0.11 
  -1  -3 -12    0.34    0.14 
  -1  -3 -12    0.43    0.16 
   1   3  12    0.21    0.09 
  -1  -4 -12    2.23    0.26 
  -1  -4 -12    2.91    0.27 
  -1  -5 -12   -0.05    0.12 
  -1  -5 -12    0.08    0.12 
  -1  -6 -12    0.87    0.17 
  -1  -6 -12    0.70    0.18 
  -1  -7 -12   -0.13    0.12 
  -1  -7 -12    0.12    0.13 
  -1  -8 -12    0.20    0.16 
  -1  -8 -12    0.21    0.14 
  -1  -9 -12    0.22    0.17 
  -1  -9 -12    0.07    0.14 
  -1 -10 -12    0.57    0.21 
  -1 -10 -12    0.50    0.16 
  -1 -11 -12   -0.20    0.15 
  -1 -11 -12    0.05    0.17 
  -1 -12 -12    0.04    0.17 
  -1 -12 -12   -0.03    0.19 
  -1 -13 -12    0.07    0.21 
  -1 -13 -12   -0.17    0.19 
   1 -13  13   -0.01    0.20 
   1 -12  13   -0.09    0.17 
   1 -11  13    0.07    0.15 
   1 -10  13    0.23    0.13 
   1  -9  13    0.10    0.11 
   1  -8  13    0.15    0.11 
   1  -7  13    0.31    0.11 
   1  -6  13    0.10    0.09 
   1  -5  13    0.10    0.08 
   1  -4  13   -0.01    0.07 
  -1   3 -13    0.09    0.14 
   1  -3  13    0.22    0.09 
  -1   2 -13    1.12    0.22 
   1  -2  13    1.27    0.16 
  -1   1 -13   -0.10    0.13 
  -1   1 -13   -0.02    0.11 
   1  -1  13    0.05    0.07 
  -1   0 -13    0.10    0.11 
  -1   0 -13    0.08    0.15 
   1   0  13    0.01    0.06 
  -1  -1 -13    0.04    0.12 
  -1  -1 -13   -0.05    0.15 
   1   1  13   -0.03    0.07 
  -1  -2 -13    0.99    0.19 
  -1  -2 -13    1.40    0.24 
   1   2  13    1.14    0.15 
  -1  -3 -13    0.54    0.19 
  -1  -3 -13    0.15    0.12 
  -1  -4 -13   -0.11    0.11 
  -1  -4 -13    0.13    0.14 
  -1  -5 -13   -0.18    0.11 
  -1  -5 -13    0.09    0.13 
  -1  -6 -13   -0.05    0.13 
  -1  -6 -13    0.25    0.15 
  -1  -7 -13    0.35    0.16 
  -1  -7 -13   -0.12    0.13 
  -1  -8 -13    0.25    0.18 
  -1  -8 -13    0.16    0.15 
  -1  -9 -13    0.06    0.17 
  -1  -9 -13    0.04    0.15 
  -1 -10 -13    0.22    0.18 
  -1 -10 -13    0.21    0.20 
  -1 -11 -13   -0.02    0.18 
  -1 -11 -13    0.02    0.20 
  -1 -12 -13    0.02    0.21 
  -1 -12 -13    0.17    0.21 
  -1 -13 -13   -0.04    0.23 
   1 -12  14    0.22    0.21 
   1 -11  14    0.17    0.19 
   1 -10  14    0.07    0.15 
   1  -9  14    0.20    0.13 
   1  -8  14    0.13    0.12 
   1  -7  14    0.06    0.10 
   1  -6  14    0.06    0.09 
   1  -5  14   -0.06    0.08 
   1  -4  14    0.11    0.09 
  -1   3 -14    0.05    0.14 
   1  -3  14    0.02    0.08 
  -1   2 -14   -0.11    0.12 
   1  -2  14    0.04    0.07 
  -1   1 -14    0.22    0.15 
   1  -1  14    0.03    0.08 
  -1   0 -14    0.05    0.13 
   1   0  14   -0.01    0.07 
  -1  -1 -14    0.17    0.13 
   1   1  14    0.12    0.08 
  -1  -2 -14    0.21    0.14 
   1   2  14    0.05    0.09 
  -1  -3 -14    0.11    0.13 
  -1  -4 -14    0.10    0.12 
  -1  -5 -14   -0.18    0.13 
  -1  -6 -14    0.08    0.15 
  -1  -7 -14    0.06    0.16 
  -1  -8 -14    0.00    0.18 
  -1  -9 -14    0.14    0.20 
  -1 -10 -14    0.16    0.21 
  -1 -11 -14    0.14    0.22 
  -1 -12 -14   -0.27    0.21 
   1 -11  15    0.00    0.20 
   1 -10  15    0.08    0.15 
   1  -9  15    0.00    0.12 
   1  -8  15    0.22    0.14 
   1  -7  15    0.26    0.14 
   1  -6  15    0.22    0.12 
   1  -5  15    0.02    0.10 
   1  -4  15    0.14    0.10 
   1  -3  15    0.02    0.09 
  -1   2 -15    1.09    0.23 
   1  -2  15    1.25    0.18 
  -1   1 -15    0.35    0.16 
   1  -1  15    0.14    0.10 
  -1   0 -15   -0.05    0.13 
   1   0  15    0.08    0.09 
  -1  -1 -15    0.23    0.15 
   1   1  15    0.13    0.10 
  -1  -2 -15    1.17    0.23 
  -1  -3 -15   -0.04    0.14 
  -1  -4 -15    0.07    0.16 
  -1  -5 -15   -0.08    0.15 
  -1  -6 -15   -0.10    0.17 
  -1  -7 -15    0.09    0.19 
  -1  -8 -15    0.40    0.22 
  -1  -9 -15   -0.11    0.21 
  -1 -10 -15    0.05    0.23 
  -1 -11 -15   -0.03    0.23 
   1  -9  16   -0.04    0.14 
   1  -8  16    0.16    0.14 
   1  -7  16    0.13    0.14 
   1  -6  16    0.09    0.11 
   1  -5  16    0.06    0.11 
   1  -4  16    0.73    0.16 
   1  -3  16    0.23    0.12 
  -1   2 -16   -0.16    0.17 
   1  -2  16    0.04    0.10 
  -1   1 -16    0.02    0.17 
   1  -1  16    0.14    0.10 
  -1   0 -16    2.32    0.33 
   1   0  16    2.71    0.26 
  -1  -1 -16    0.19    0.17 
  -1  -2 -16    0.17    0.17 
  -1  -3 -16   -0.13    0.16 
  -1  -4 -16    0.51    0.22 
  -1  -5 -16    0.05    0.18 
  -1  -6 -16   -0.08    0.18 
  -1  -7 -16   -0.20    0.20 
  -1  -8 -16   -0.21    0.22 
  -1  -9 -16    0.10    0.25 
   1  -8  17    0.08    0.15 
   1  -7  17    0.11    0.15 
   1  -6  17    0.18    0.14 
   1  -5  17    0.09    0.13 
   1  -4  17    0.16    0.13 
   1  -3  17   -0.11    0.11 
  -1   2 -17    0.80    0.27 
   1  -2  17    0.85    0.17 
  -1   1 -17   -0.12    0.18 
   1  -1  17   -0.14    0.11 
  -1   0 -17    0.04    0.19 
  -1  -1 -17    0.01    0.18 
  -1  -2 -17    0.69    0.24 
  -1  -3 -17    0.05    0.20 
  -1  -4 -17    0.29    0.22 
  -1  -5 -17   -0.07    0.23 
  -1  -6 -17   -0.06    0.21 
  -1  -7 -17   -0.01    0.22 
  -1  -8 -17   -0.23    0.23 
   1  -5  18    0.00    0.14 
   1  -4  18   -0.07    0.14 
   1  -3  18    0.00    0.14 
  -1   2 -18   -0.05    0.22 
   1  -2  18   -0.03    0.13 
  -1   1 -18   -0.25    0.21 
  -1   0 -18    0.34    0.26 
  -1  -1 -18   -0.18    0.22 
  -1  -2 -18    0.15    0.22 
  -1  -3 -18    0.11    0.23 
  -1  -4 -18   -0.24    0.21 
  -1  -5 -18    0.02    0.24 
  -1  -6 -18   -0.26    0.23 
  -1   1 -19   -0.16    0.24 
  -1   0 -19    0.08    0.25 
  -1  -1 -19   -0.07    0.25 
  -1  -2 -19   -0.09    0.25 
  -2  -2  18    0.01    0.14 
  -2  -3  18    0.19    0.14 
  -2  -4  18    0.07    0.14 
  -2  -5  18   -0.01    0.14 
   2  -8 -17   -0.52    0.23 
   2  -7 -17    0.17    0.22 
   2  -6 -17    0.22    0.22 
   2  -5 -17   -0.07    0.21 
   2  -4 -17   -0.28    0.18 
   2  -4 -17   -0.27    0.18 
   2  -3 -17    0.13    0.18 
   2  -2 -17    0.40    0.22 
   2  -1 -17    0.15    0.19 
   2   0 -17    0.11    0.20 
  -2  -1  17    0.08    0.11 
   2   1 -17   -0.02    0.19 
  -2  -2  17    0.51    0.14 
  -2  -3  17    0.29    0.13 
  -2  -4  17    0.12    0.12 
  -2  -5  17    0.10    0.13 
  -2  -6  17    0.03    0.11 
  -2  -7  17    0.11    0.13 
   2  -9 -16   -0.07    0.23 
   2  -8 -16   -0.22    0.22 
   2  -7 -16   -0.10    0.20 
   2  -7 -16    0.02    0.27 
   2  -6 -16    0.41    0.19 
   2  -6 -16    0.33    0.24 
   2  -5 -16   -0.11    0.22 
   2  -5 -16    0.04    0.18 
   2  -4 -16    0.14    0.17 
   2  -4 -16    0.10    0.22 
   2  -3 -16    0.15    0.17 
   2  -3 -16    0.35    0.23 
   2  -2 -16   -0.09    0.18 
   2  -2 -16   -0.02    0.16 
   2  -1 -16    0.29    0.19 
   2  -1 -16    0.45    0.22 
  -2   0  16    0.09    0.10 
   2   0 -16   -0.12    0.19 
   2   0 -16   -0.03    0.16 
  -2  -1  16    0.71    0.13 
   2   1 -16    0.53    0.25 
   2   1 -16    0.76    0.22 
  -2  -2  16    0.34    0.11 
  -2  -3  16    0.22    0.10 
  -2  -4  16    0.18    0.11 
  -2  -5  16   -0.05    0.10 
  -2  -6  16    0.13    0.12 
  -2  -7  16    0.05    0.12 
  -2  -8  16    0.18    0.13 
  -2  -9  16    0.30    0.17 
   2 -11 -15    0.49    0.33 
   2 -11 -15   -0.06    0.24 
   2 -10 -15   -0.11    0.23 
   2 -10 -15    0.38    0.27 
   2  -9 -15    0.12    0.20 
   2  -9 -15    0.36    0.24 
   2  -8 -15   -0.10    0.18 
   2  -8 -15   -0.04    0.19 
   2  -7 -15    0.29    0.19 
   2  -7 -15    0.48    0.21 
   2  -6 -15   -0.09    0.15 
   2  -6 -15    0.43    0.19 
   2  -5 -15    0.12    0.14 
   2  -5 -15    0.09    0.18 
   2  -4 -15   -0.08    0.14 
   2  -4 -15   -0.25    0.16 
   2  -3 -15    0.01    0.18 
   2  -3 -15    0.06    0.14 
   2  -2 -15    0.09    0.14 
   2  -2 -15    0.02    0.17 
  -2   1  15    0.38    0.11 
   2  -1 -15    0.42    0.17 
   2  -1 -15    0.46    0.20 
  -2   0  15    0.03    0.08 
   2   0 -15    0.00    0.13 
   2   0 -15    0.08    0.18 
  -2  -1  15    0.52    0.12 
   2   1 -15    0.27    0.20 
   2   1 -15    0.19    0.15 
  -2  -2  15   -0.01    0.08 
   2   2 -15    0.13    0.18 
   2   2 -15    0.07    0.16 
  -2  -3  15    0.13    0.09 
  -2  -4  15    0.06    0.09 
  -2  -5  15    0.14    0.10 
  -2  -6  15    0.18    0.11 
  -2  -7  15    0.12    0.11 
  -2  -8  15    0.28    0.13 
  -2  -9  15    0.16    0.12 
  -2 -10  15    0.04    0.12 
   2 -12 -14    0.26    0.25 
   2 -12 -14    0.06    0.27 
   2 -11 -14    0.04    0.22 
   2 -11 -14    0.07    0.23 
   2 -10 -14   -0.12    0.20 
   2 -10 -14    0.43    0.21 
   2  -9 -14   -0.02    0.18 
   2  -9 -14    0.02    0.17 
   2  -8 -14    0.05    0.18 
   2  -8 -14    0.16    0.17 
   2  -7 -14   -0.04    0.16 
   2  -7 -14   -0.09    0.14 
   2  -6 -14    0.95    0.20 
   2  -6 -14    1.25    0.23 
   2  -5 -14    0.02    0.12 
   2  -5 -14    0.22    0.16 
   2  -4 -14    0.43    0.18 
   2  -4 -14    0.21    0.13 
   2  -3 -14    0.32    0.14 
   2  -3 -14    0.17    0.16 
   2  -2 -14    0.68    0.18 
   2  -2 -14    0.72    0.21 
  -2   1  14   -0.04    0.06 
   2  -1 -14   -0.17    0.11 
   2  -1 -14    0.00    0.15 
  -2   0  14    0.68    0.12 
   2   0 -14    0.69    0.18 
   2   0 -14    0.67    0.20 
  -2  -1  14    0.10    0.08 
   2   1 -14   -0.03    0.14 
   2   1 -14   -0.04    0.12 
  -2  -2  14    0.70    0.12 
   2   2 -14    1.02    0.25 
   2   2 -14    0.66    0.19 
  -2  -3  14    0.14    0.09 
  -2  -4  14    0.30    0.12 
  -2  -5  14    0.03    0.08 
  -2  -6  14    1.43    0.20 
  -2  -7  14    0.27    0.11 
  -2  -8  14    0.43    0.13 
  -2  -9  14    0.24    0.12 
  -2 -10  14    0.23    0.16 
  -2 -11  14    0.34    0.19 
  -2 -12  14   -0.01    0.19 
   2 -13 -13   -0.04    0.21 
   2 -13 -13    0.32    0.29 
   2 -12 -13    0.01    0.21 
   2 -12 -13    0.51    0.26 
   2 -11 -13   -0.14    0.19 
   2 -11 -13    0.17    0.19 
   2 -10 -13    0.00    0.18 
   2 -10 -13    0.75    0.20 
   2  -9 -13    0.21    0.18 
   2  -9 -13    0.04    0.16 
   2  -8 -13    0.60    0.17 
   2  -8 -13    0.24    0.17 
   2  -7 -13   -0.01    0.13 
   2  -7 -13    0.00    0.14 
   2  -6 -13   -0.14    0.12 
   2  -6 -13   -0.04    0.13 
   2  -5 -13    0.31    0.15 
   2  -5 -13    0.19    0.13 
   2  -4 -13    0.31    0.13 
   2  -4 -13    0.58    0.18 
   2  -3 -13    0.83    0.17 
   2  -3 -13    1.15    0.23 
  -2   2  13    1.08    0.13 
   2  -2 -13    0.88    0.22 
   2  -2 -13    0.62    0.16 
  -2   1  13    0.11    0.08 
   2  -1 -13    0.09    0.14 
   2  -1 -13    0.08    0.12 
  -2   0  13    0.08    0.07 
   2   0 -13    0.06    0.11 
   2   0 -13    0.01    0.15 
  -2  -1  13    0.09    0.07 
   2   1 -13    0.19    0.17 
   2   1 -13    0.11    0.12 
  -2  -2  13    0.81    0.14 
   2   2 -13    0.90    0.23 
   2   2 -13    0.83    0.19 
  -2  -3  13    0.75    0.14 
  -2  -4  13    0.54    0.12 
  -2  -5  13    0.35    0.10 
  -2  -6  13    0.12    0.08 
  -2  -7  13    0.06    0.09 
  -2  -8  13    0.44    0.14 
  -2  -9  13    0.08    0.10 
  -2 -10  13    0.22    0.13 
  -2 -11  13    0.14    0.14 
  -2 -12  13    0.35    0.19 
   2 -13 -12    0.05    0.19 
   2 -13 -12    0.08    0.22 
   2 -12 -12   -0.30    0.18 
   2 -12 -12    0.10    0.19 
   2 -11 -12    0.31    0.19 
   2 -11 -12    0.31    0.20 
   2 -10 -12   -0.08    0.16 
   2 -10 -12    0.14    0.14 
   2  -9 -12    0.19    0.16 
   2  -9 -12    0.26    0.15 
   2  -8 -12    0.08    0.14 
   2  -8 -12    0.18    0.16 
   2  -7 -12   -0.05    0.12 
   2  -7 -12   -0.02    0.12 
   2  -6 -12   -0.09    0.13 
   2  -6 -12    0.29    0.13 
   2  -5 -12    0.44    0.16 
   2  -5 -12    0.34    0.13 
   2  -4 -12    0.42    0.16 
   2  -4 -12    0.14    0.12 
  -2   3  12    0.24    0.08 
   2  -3 -12    0.17    0.11 
   2  -3 -12    0.05    0.13 
  -2   2  12    0.84    0.11 
   2  -2 -12    0.75    0.19 
   2  -2 -12    0.65    0.15 
  -2   1  12    2.19    0.17 
   2  -1 -12    2.28    0.28 
   2  -1 -12    1.71    0.22 
  -2   0  12    2.20    0.19 
   2   0 -12    2.47    0.25 
   2   0 -12    2.33    0.30 
  -2  -1  12    2.17    0.20 
   2   1 -12    1.99    0.25 
   2   1 -12    1.48    0.27 
   2   2 -12    0.82    0.19 
   2   2 -12    0.67    0.21 
  -2  -3  12    0.58    0.19 
  -2  -4  12    0.54    0.20 
  -2  -5  12    0.70    0.21 
  -2  -8  12    0.06    0.10 
  -2  -9  12    0.11    0.12 
  -2 -10  12    0.15    0.12 
  -2 -11  12    0.38    0.14 
  -2 -12  12    0.26    0.15 
  -2 -13  12    0.18    0.17 
   2 -14 -11    0.17    0.25 
   2 -13 -11   -0.03    0.19 
   2 -12 -11   -0.08    0.17 
   2 -12 -11    0.07    0.17 
   2 -11 -11   -0.01    0.14 
   2 -11 -11    0.11    0.16 
   2 -10 -11   -0.04    0.13 
   2 -10 -11    0.12    0.15 
   2  -9 -11    0.16    0.14 
   2  -9 -11    0.15    0.14 
   2  -8 -11    0.11    0.14 
   2  -8 -11    0.11    0.12 
   2  -7 -11    3.90    0.32 
   2  -7 -11    4.41    0.33 
   2  -6 -11    1.21    0.19 
   2  -6 -11    0.61    0.15 
   2  -5 -11    0.06    0.11 
   2  -5 -11   -0.03    0.10 
   2  -4 -11    0.41    0.13 
   2  -4 -11    0.56    0.15 
  -2   3  11    0.32    0.07 
   2  -3 -11    0.14    0.10 
   2  -3 -11    0.09    0.11 
  -2   2  11    0.03    0.07 
   2  -2 -11    0.08    0.14 
   2  -2 -11    0.18    0.11 
  -2   1  11    0.41    0.08 
   2  -1 -11    0.32    0.12 
   2  -1 -11    0.10    0.13 
   2   0 -11    0.03    0.12 
   2   0 -11    0.04    0.09 
   2   1 -11    0.23    0.11 
   2   1 -11    0.27    0.14 
  -2  -2  11    0.30    0.11 
   2   2 -11    0.07    0.14 
   2   2 -11    0.06    0.13 
  -2  -3  11    0.37    0.15 
  -2  -3  11    0.06    0.07 
   2   3 -11   -0.01    0.13 
  -2  -4  11    1.23    0.19 
  -2  -4  11    0.13    0.10 
  -2  -5  11    0.09    0.08 
  -2  -5  11    0.26    0.17 
  -2  -8  11    0.01    0.20 
  -2 -10  11    0.17    0.10 
  -2 -11  11    0.05    0.11 
  -2 -12  11    0.08    0.12 
  -2 -13  11    0.17    0.15 
  -2 -14  11    0.30    0.18 
   2 -15 -10    0.16    0.27 
   2 -14 -10    0.30    0.24 
   2 -13 -10    0.05    0.19 
   2 -12 -10    0.03    0.15 
   2 -11 -10    0.33    0.14 
   2 -10 -10    0.40    0.15 
   2  -9 -10    0.40    0.15 
   2  -9 -10    0.32    0.13 
   2  -8 -10    0.91    0.18 
   2  -8 -10    0.91    0.17 
   2  -7 -10    0.69    0.16 
   2  -7 -10    0.50    0.15 
   2  -6 -10    2.32    0.24 
   2  -6 -10    2.11    0.22 
   2  -5 -10    0.50    0.14 
   2  -5 -10    0.51    0.13 
  -2   4  10    4.16    0.23 
   2  -4 -10    4.28    0.30 
   2  -4 -10    4.27    0.29 
  -2   3  10    1.70    0.13 
   2  -3 -10    2.06    0.19 
   2  -3 -10    1.56    0.20 
  -2   2  10    2.98    0.19 
   2  -2 -10    2.75    0.27 
   2  -2 -10    3.01    0.23 
   2  -1 -10    0.46    0.12 
   2  -1 -10    0.32    0.13 
  -2   0  10    6.20    0.33 
   2   0 -10    5.49    0.41 
   2   0 -10    6.22    0.37 
  -2  -1  10    0.08    0.08 
   2   1 -10    0.23    0.15 
   2   1 -10    0.21    0.12 
  -2  -2  10    3.03    0.21 
   2   2 -10    2.91    0.27 
   2   2 -10    3.03    0.31 
  -2  -3  10    1.79    0.17 
   2   3 -10    1.71    0.26 
  -2  -4  10    4.16    0.27 
  -2  -5  10    0.57    0.11 
  -2  -6  10    0.14    0.09 
  -2  -7  10    1.30    0.21 
  -2  -7  10    0.78    0.14 
  -2  -8  10    0.88    0.17 
  -2  -8  10    1.40    0.24 
  -2 -11  10    0.02    0.10 
  -2 -12  10    0.31    0.13 
  -2 -13  10    0.26    0.13 
  -2 -14  10    0.27    0.16 
  -2 -15  10    0.09    0.18 
   2 -15  -9   -0.06    0.24 
   2 -14  -9    0.29    0.20 
   2 -13  -9    0.06    0.15 
   2 -12  -9    0.50    0.16 
   2 -11  -9    0.04    0.12 
   2 -10  -9    0.21    0.13 
   2  -9  -9    0.03    0.11 
   2  -8  -9    0.51    0.14 
   2  -7  -9    0.08    0.11 
   2  -7  -9    0.13    0.12 
   2  -6  -9    0.10    0.10 
   2  -6  -9   -0.03    0.08 
   2  -5  -9    0.12    0.10 
   2  -5  -9    0.06    0.09 
  -2   4   9    0.86    0.08 
   2  -4  -9    0.95    0.15 
   2  -4  -9    1.02    0.14 
  -2   3   9    0.32    0.06 
   2  -3  -9    0.41    0.12 
   2  -3  -9    0.33    0.10 
   2  -2  -9   11.99    0.63 
   2  -2  -9   11.43    0.59 
  -2   1   9    0.04    0.06 
   2  -1  -9    0.34    0.10 
   2  -1  -9    0.30    0.12 
  -2   0   9    0.02    0.05 
   2   0  -9   -0.18    0.06 
   2   0  -9   -0.10    0.10 
  -2  -1   9    0.30    0.07 
   2   1  -9    0.26    0.13 
   2   1  -9    0.38    0.12 
  -2  -2   9   11.18    0.55 
   2   2  -9   11.64    0.66 
   2   2  -9   11.09    0.61 
  -2  -3   9    0.28    0.08 
   2   3  -9    0.31    0.14 
  -2  -4   9    0.76    0.11 
  -2  -5   9    0.12    0.06 
  -2  -6   9    0.04    0.06 
  -2  -7   9    0.24    0.08 
  -2  -8   9    0.09    0.10 
  -2  -9   9    0.01    0.09 
  -2  -9   9    0.21    0.18 
  -2 -12   9    0.61    0.14 
  -2 -13   9    0.18    0.11 
  -2 -14   9    0.40    0.14 
  -2 -15   9    0.17    0.23 
  -2 -15   9    0.25    0.17 
   2 -16  -8   -0.24    0.25 
   2 -15  -8   -0.28    0.21 
   2 -14  -8   -0.13    0.16 
   2 -13  -8    0.09    0.15 
   2 -12  -8   -0.01    0.12 
   2 -11  -8    0.83    0.16 
   2 -10  -8    0.17    0.12 
   2  -9  -8    1.26    0.18 
   2  -8  -8    0.10    0.11 
   2  -7  -8    0.78    0.15 
   2  -6  -8    0.73    0.14 
   2  -5  -8    0.07    0.08 
   2  -5  -8    0.06    0.08 
  -2   4   8    0.50    0.06 
   2  -4  -8    0.44    0.11 
   2  -4  -8    0.41    0.10 
   2  -3  -8    1.14    0.13 
   2  -3  -8    0.97    0.14 
  -2   2   8    1.26    0.10 
   2  -2  -8    1.34    0.14 
   2  -2  -8    1.29    0.16 
   2  -1  -8    5.73    0.36 
   2  -1  -8    5.87    0.33 
  -2   0   8    1.48    0.12 
   2   0  -8    1.53    0.16 
   2   0  -8    1.36    0.20 
  -2  -1   8    6.12    0.33 
   2   1  -8    6.38    0.37 
   2   1  -8    6.29    0.41 
  -2  -2   8    1.52    0.13 
   2   2  -8    1.44    0.21 
   2   2  -8    1.40    0.17 
  -2  -3   8    1.05    0.12 
   2   3  -8    1.05    0.19 
  -2  -4   8    0.60    0.11 
  -2  -5   8   -0.01    0.05 
  -2  -6   8    0.62    0.11 
  -2  -7   8    0.80    0.13 
  -2  -8   8   -0.02    0.07 
  -2  -9   8   -0.01    0.07 
  -2 -10   8   -0.05    0.18 
  -2 -10   8   -0.12    0.08 
  -2 -13   8    0.45    0.12 
  -2 -14   8    0.41    0.13 
  -2 -15   8   -0.11    0.19 
  -2 -15   8    0.23    0.15 
  -2 -16   8    0.22    0.19 
  -2 -16   8    0.23    0.23 
   2 -16  -7    0.03    0.26 
   2 -15  -7    0.00    0.20 
   2 -14  -7    0.08    0.16 
   2 -13  -7    0.05    0.13 
   2 -12  -7    0.07    0.12 
   2 -11  -7    0.09    0.12 
   2 -10  -7    0.54    0.14 
   2  -9  -7   -0.10    0.10 
   2  -8  -7    0.01    0.10 
   2  -7  -7    7.37    0.42 
   2  -6  -7    1.19    0.15 
   2  -5  -7    0.09    0.08 
  -2   4   7    0.55    0.05 
   2  -4  -7    0.64    0.11 
   2  -4  -7    0.41    0.11 
  -2   3   7    0.06    0.03 
   2  -3  -7   -0.02    0.06 
   2  -3  -7   -0.03    0.06 
  -2   2   7   11.06    0.50 
   2  -2  -7   10.85    0.55 
   2  -2  -7   10.55    0.53 
   2  -1  -7    3.56    0.25 
   2  -1  -7    3.48    0.22 
  -2   0   7    0.01    0.03 
   2   0  -7   -0.10    0.08 
   2   0  -7   -0.03    0.07 
  -2  -1   7    3.61    0.21 
   2   1  -7    3.35    0.24 
   2   1  -7    3.76    0.28 
  -2  -2   7   11.52    0.54 
   2   2  -7   10.82    0.62 
   2   2  -7   11.17    0.58 
  -2  -3   7    0.02    0.04 
  -2  -4   7    0.51    0.09 
  -2  -5   7    0.18    0.07 
  -2  -6   7    1.03    0.14 
  -2  -7   7    8.01    0.44 
  -2  -8   7   -0.01    0.06 
  -2  -9   7    0.08    0.08 
  -2 -10   7    0.04    0.09 
  -2 -11   7   -0.05    0.09 
  -2 -11   7    0.00    0.19 
  -2 -12   7   -0.30    0.20 
  -2 -13   7    0.14    0.10 
  -2 -14   7    0.38    0.12 
  -2 -14   7    0.29    0.19 
  -2 -15   7    0.07    0.19 
  -2 -15   7    0.17    0.13 
  -2 -16   7   -0.05    0.17 
  -2 -16   7    0.20    0.21 
   2 -16  -6   -0.13    0.24 
   2 -15  -6    0.02    0.19 
   2 -14  -6    0.03    0.15 
   2 -13  -6    0.15    0.14 
   2 -12  -6    0.11    0.12 
   2 -11  -6    1.57    0.21 
   2 -10  -6    2.02    0.22 
   2  -9  -6    1.76    0.20 
   2  -8  -6    1.57    0.17 
   2  -7  -6    0.14    0.09 
   2  -6  -6   10.92    0.56 
   2  -5  -6    2.98    0.21 
   2  -4  -6    7.00    0.38 
  -2   3   6    0.54    0.05 
   2  -3  -6    0.48    0.10 
   2  -3  -6    0.55    0.09 
  -2   2   6   13.26    0.60 
   2  -2  -6   13.11    0.63 
   2  -2  -6   13.72    0.65 
   2  -1  -6   14.10    0.70 
   2  -1  -6   14.70    0.68 
  -2   0   6    2.27    0.14 
   2   0  -6    2.41    0.21 
   2   0  -6    2.00    0.16 
  -2  -1   6   13.74    0.62 
   2   1  -6   14.52    0.71 
   2   1  -6   12.31    0.65 
  -2  -2   6   14.46    0.67 
   2   2  -6   14.98    0.77 
  -2  -3   6    0.63    0.09 
  -2  -4   6    7.48    0.38 
  -2  -5   6    3.27    0.21 
  -2  -6   6   12.66    0.62 
  -2  -7   6    0.10    0.06 
  -2  -8   6    1.70    0.18 
  -2  -9   6    1.86    0.19 
  -2 -10   6    2.12    0.22 
  -2 -11   6    3.21    0.29 
  -2 -11   6    2.08    0.23 
  -2 -13   6    0.20    0.17 
  -2 -14   6    0.34    0.12 
  -2 -14   6    0.02    0.16 
  -2 -15   6    0.26    0.12 
  -2 -15   6   -0.13    0.16 
  -2 -16   6    0.04    0.20 
   2 -17  -5   -0.09    0.26 
   2 -16  -5    0.17    0.23 
   2 -15  -5   -0.10    0.17 
   2 -14  -5   -0.18    0.13 
   2 -13  -5   -0.12    0.12 
   2 -12  -5    3.10    0.29 
   2 -11  -5    0.01    0.11 
   2 -10  -5    0.00    0.10 
   2  -9  -5    0.92    0.15 
   2  -8  -5    4.62    0.30 
   2  -7  -5    0.09    0.08 
   2  -6  -5    0.22    0.09 
   2  -5  -5    2.61    0.19 
   2  -4  -5    8.35    0.43 
  -2   3   5    0.05    0.02 
   2  -3  -5   -0.03    0.05 
  -2   2   5   35.26    1.52 
   2  -2  -5   36.09    1.60 
   2  -2  -5   34.31    1.57 
   2  -1  -5    2.19    0.14 
  -2   0   5   -0.01    0.02 
   2   0  -5    0.01    0.03 
   2   0  -5   -0.07    0.06 
  -2  -1   5    3.83    0.20 
   2   1  -5    3.55    0.26 
  -2  -2   5   37.24    1.64 
   2   2  -5   38.11    1.76 
  -2  -3   5    0.01    0.03 
  -2  -4   5    8.80    0.43 
  -2  -5   5    2.98    0.19 
  -2  -6   5    0.16    0.06 
  -2  -7   5    0.01    0.05 
  -2  -8   5    4.74    0.29 
  -2  -9   5    1.27    0.16 
  -2 -10   5    0.03    0.08 
  -2 -11   5   -0.03    0.08 
  -2 -13   5   -0.17    0.13 
  -2 -14   5   -0.09    0.15 
  -2 -14   5    0.17    0.10 
  -2 -15   5   -0.06    0.18 
  -2 -15   5    0.08    0.12 
  -2 -16   5    0.21    0.20 
  -2 -17   5    0.10    0.22 
   2 -17  -4   -0.22    0.26 
   2 -16  -4   -0.03    0.22 
   2 -15  -4   -0.08    0.17 
   2 -14  -4    0.44    0.18 
   2 -13  -4   -0.13    0.11 
   2 -12  -4    0.33    0.13 
   2 -11  -4    0.03    0.11 
   2 -10  -4    0.60    0.14 
   2  -9  -4    1.79    0.19 
   2  -8  -4    1.61    0.17 
   2  -7  -4    1.15    0.14 
   2  -6  -4   10.93    0.55 
   2  -5  -4    0.82    0.11 
   2  -4  -4    1.54    0.13 
  -2   3   4    0.21    0.02 
   2  -3  -4    0.23    0.06 
  -2   2   4    3.11    0.15 
   2  -2  -4    3.09    0.19 
  -2   1   4    3.14    0.16 
  -2   0   4    2.14    0.12 
   2   0  -4    2.26    0.17 
   2   0  -4    1.90    0.12 
  -2  -1   4    6.92    0.31 
   2   1  -4    7.24    0.37 
   2   1  -4    5.42    0.32 
  -2  -2   4    3.25    0.18 
   2   2  -4    3.35    0.23 
  -2  -3   4    0.18    0.05 
  -2  -4   4    1.37    0.11 
  -2  -5   4    0.94    0.11 
  -2  -6   4   11.57    0.56 
  -2  -7   4    1.19    0.13 
  -2  -8   4    1.97    0.16 
  -2  -9   4    2.73    0.20 
  -2 -10   4    0.47    0.11 
  -2 -11   4    0.09    0.08 
  -2 -12   4    0.49    0.20 
  -2 -12   4    0.45    0.12 
  -2 -12   4    0.34    0.15 
  -2 -13   4    0.10    0.14 
  -2 -13   4   -0.54    0.18 
  -2 -14   4    0.39    0.18 
  -2 -14   4    0.45    0.12 
  -2 -15   4    0.03    0.17 
  -2 -16   4   -0.08    0.18 
  -2 -17   4    0.16    0.22 
   2 -17  -3   -0.04    0.28 
   2 -16  -3   -0.22    0.21 
   2 -15  -3    0.08    0.17 
   2 -14  -3    0.01    0.14 
   2 -13  -3    0.07    0.13 
   2 -12  -3    1.79    0.22 
   2 -11  -3    0.28    0.13 
   2 -10  -3    0.83    0.15 
   2  -9  -3    0.20    0.10 
   2  -8  -3    2.17    0.18 
   2  -7  -3   12.97    0.65 
   2  -6  -3    4.79    0.28 
   2  -5  -3    0.53    0.09 
   2  -4  -3    9.71    0.48 
   2  -3  -3    1.36    0.08 
   2  -3  -3    1.34    0.11 
   2  -2  -3   66.33    2.95 
  -2   1   3   21.41    1.02 
   2  -1  -3   25.94    1.05 
  -2   0   3    0.01    0.02 
   2   0  -3   -0.07    0.05 
   2   0  -3    0.01    0.03 
  -2  -1   3   38.48    1.65 
   2   1  -3   37.71    1.74 
  -2  -2   3   63.39    2.69 
   2   2  -3   61.67    2.82 
  -2  -3   3    1.52    0.11 
  -2  -4   3    9.55    0.46 
  -2  -5   3    0.67    0.09 
  -2  -6   3    5.48    0.30 
  -2  -7   3   13.56    0.64 
  -2  -8   3    2.43    0.17 
  -2  -9   3    0.16    0.07 
  -2 -10   3    1.18    0.15 
  -2 -11   3    0.24    0.08 
  -2 -12   3    2.18    0.26 
  -2 -12   3    2.87    0.27 
  -2 -12   3    2.15    0.21 
  -2 -13   3   -0.39    0.18 
  -2 -13   3    0.06    0.13 
  -2 -14   3   -0.02    0.15 
  -2 -14   3    0.12    0.10 
  -2 -15   3   -0.02    0.17 
  -2 -16   3    0.22    0.19 
  -2 -17   3    0.08    0.21 
   2 -17  -2    0.01    0.26 
   2 -16  -2   -0.10    0.20 
   2 -15  -2    0.41    0.20 
   2 -14  -2   -0.03    0.14 
   2 -13  -2    0.01    0.12 
   2 -12  -2   -0.06    0.10 
   2 -11  -2    3.79    0.29 
   2 -10  -2    0.09    0.10 
   2  -9  -2    4.81    0.25 
   2  -9  -2    4.67    0.30 
   2  -8  -2    1.28    0.10 
   2  -8  -2    1.36    0.15 
   2  -7  -2    0.41    0.09 
   2  -7  -2    0.24    0.05 
   2  -6  -2    1.46    0.13 
   2  -6  -2    1.31    0.09 
   2  -5  -2   22.03    0.95 
   2  -5  -2   21.49    1.01 
   2  -4  -2   13.88    0.66 
   2  -4  -2   14.11    0.62 
   2  -3  -2   21.18    1.00 
   2  -3  -2   22.79    0.96 
   2  -2  -2    5.98    0.29 
   2  -2  -2    5.88    0.28 
   2  -1  -2   90.32    3.94 
   2  -1  -2   94.05    4.07 
   2   0  -2   10.81    0.51 
   2   0  -2   10.92    0.52 
  -2  -1   2   98.35    4.09 
   2   1  -2   93.46    4.26 
  -2  -2   2    6.25    0.30 
  -2  -3   2   22.39    0.99 
  -2  -4   2   14.83    0.67 
  -2  -5   2   23.46    1.05 
  -2  -6   2    1.56    0.12 
  -2  -7   2    0.29    0.06 
  -2  -8   2    1.40    0.13 
  -2  -9   2    4.95    0.28 
  -2 -10   2    0.07    0.07 
  -2 -10   2   -0.06    0.10 
  -2 -11   2    3.84    0.25 
  -2 -11   2    3.86    0.31 
  -2 -12   2    0.05    0.08 
  -2 -12   2   -0.04    0.12 
  -2 -12   2   -0.16    0.14 
  -2 -13   2   -0.14    0.19 
  -2 -13   2    0.04    0.13 
  -2 -14   2   -0.09    0.14 
  -2 -15   2    0.48    0.19 
  -2 -16   2   -0.07    0.18 
  -2 -17   2    0.00    0.21 
   2 -17  -1   -0.06    0.23 
   2 -16  -1   -0.21    0.19 
   2 -15  -1   -0.02    0.17 
   2 -14  -1    0.17    0.14 
   2 -13  -1    0.23    0.14 
   2 -12  -1    1.95    0.23 
   2 -11  -1    0.34    0.13 
   2 -10  -1    0.27    0.11 
   2 -10  -1    0.30    0.08 
   2  -9  -1    0.28    0.09 
   2  -9  -1    0.22    0.06 
   2  -8  -1    0.60    0.07 
   2  -8  -1    0.58    0.10 
   2  -7  -1    2.72    0.19 
   2  -7  -1    2.76    0.15 
   2  -6  -1    0.05    0.03 
   2  -6  -1    0.05    0.05 
   2  -5  -1    7.34    0.38 
   2  -5  -1    7.57    0.34 
   2  -4  -1    9.38    0.46 
   2  -4  -1    9.50    0.42 
   2  -3  -1    6.64    0.32 
   2  -3  -1    6.49    0.30 
   2  -2  -1  229.68   10.01 
   2  -2  -1  241.17   10.36 
   2  -1  -1   14.65    0.66 
   2  -1  -1   15.04    0.67 
   2   0  -1   -0.01    0.02 
   2   0  -1    0.00    0.02 
   2   1  -1   13.48    0.66 
   2   1  -1   14.76    0.64 
   2   2  -1  234.07    9.96 
  -2  -3   1    6.60    0.32 
  -2  -4   1    9.07    0.42 
  -2  -5   1    7.51    0.36 
  -2  -6   1    0.13    0.05 
  -2  -7   1    2.83    0.18 
  -2  -8   1    0.59    0.09 
  -2  -9   1    0.28    0.07 
  -2  -9   1    0.25    0.11 
  -2 -10   1    0.34    0.12 
  -2 -10   1    0.34    0.08 
  -2 -11   1    0.40    0.09 
  -2 -11   1    0.19    0.12 
  -2 -12   1    1.86    0.24 
  -2 -13   1    0.16    0.13 
  -2 -14   1   -0.09    0.13 
  -2 -15   1   -0.04    0.16 
  -2 -16   1   -0.23    0.17 
  -2 -17   1   -0.21    0.24 
   2 -17   0   -0.17    0.20 
   2 -16   0    0.30    0.20 
   2 -15   0   -0.06    0.16 
   2 -14   0    0.37    0.17 
   2 -13   0   -0.12    0.12 
   2 -12   0    0.24    0.13 
   2 -11   0    0.13    0.11 
   2 -11   0   -0.11    0.07 
   2 -10   0    0.00    0.06 
   2 -10   0   -0.01    0.09 
   2  -9   0    0.02    0.08 
   2  -9   0   -0.06    0.04 
   2  -8   0    8.37    0.41 
   2  -8   0    8.55    0.46 
   2  -7   0   -0.01    0.04 
   2  -7   0    0.07    0.06 
   2  -6   0    6.93    0.33 
   2  -6   0    6.78    0.36 
   2  -5   0    0.01    0.03 
   2  -5   0    0.01    0.04 
   2  -4   0   34.50    1.54 
   2  -4   0   33.76    1.47 
   2  -3   0   -0.04    0.03 
   2  -3   0   -0.03    0.02 
   2  -2   0    0.25    0.04 
   2  -2   0    0.28    0.04 
   2  -1   0   -0.01    0.01 
   2  -1   0   -0.02    0.01 
   2   0   0   31.36    1.35 
   2   0   0   30.57    1.37 
   2   1   0   -0.02    0.01 
   2   2   0    0.24    0.05 
   2   3   0    0.03    0.04 
  -2  -4   0   36.54    1.59 
  -2  -5   0    0.01    0.03 
  -2  -6   0    6.49    0.32 
  -2  -7   0    0.01    0.03 
  -2  -7   0   -0.03    0.07 
  -2  -8   0    8.13    0.41 
  -2  -8   0    8.62    0.47 
  -2  -9   0    0.02    0.09 
  -2  -9   0   -0.01    0.04 
  -2 -10   0    0.07    0.06 
  -2 -10   0   -0.06    0.09 
  -2 -11   0    0.01    0.10 
  -2 -11   0    0.02    0.06 
  -2 -12   0    0.24    0.12 
  -2 -13   0   -0.15    0.11 
  -2 -14   0    0.19    0.15 
  -2 -15   0    0.07    0.16 
  -2 -16   0   -0.03    0.20 
  -2 -17   0   -0.11    0.24 
   2 -17   1    0.09    0.22 
   2 -16   1    0.00    0.19 
   2 -15   1    0.04    0.18 
   2 -14   1    0.11    0.14 
   2 -13   1   -0.03    0.12 
   2 -12   1    2.20    0.25 
   2 -12   1    2.06    0.19 
   2 -11   1    0.15    0.08 
   2 -11   1    0.20    0.11 
   2 -10   1    0.35    0.08 
   2 -10   1    0.38    0.12 
   2  -9   1    0.35    0.07 
   2  -9   1    0.31    0.11 
   2  -8   1    0.54    0.08 
   2  -8   1    0.64    0.11 
   2  -7   1    2.85    0.17 
   2  -7   1    3.21    0.21 
   2  -6   1    0.06    0.04 
   2  -6   1    0.05    0.05 
   2  -5   1    7.67    0.40 
   2  -5   1    7.97    0.37 
   2  -4   1    9.42    0.42 
   2  -4   1    8.87    0.44 
   2  -3   1    7.07    0.31 
   2  -3   1    6.24    0.32 
   2  -2   1  187.05    9.22 
   2  -2   1  232.56    8.91 
   2  -1   1   13.96    0.65 
   2  -1   1   14.94    0.64 
  -2   0  -1    0.04    0.02 
   2   0   1    0.01    0.01 
  -2  -1  -1   13.22    0.63 
   2   1   1   14.70    0.62 
   2   3   1    5.17    0.26 
   2   4   1    8.67    0.42 
  -2  -5  -1    7.79    0.41 
  -2  -5  -1    7.89    0.37 
  -2  -6  -1   -0.08    0.06 
  -2  -6  -1    0.04    0.03 
  -2  -7  -1    2.63    0.16 
  -2  -7  -1    2.55    0.20 
  -2  -8  -1    0.48    0.11 
  -2  -8  -1    0.45    0.07 
  -2  -9  -1    0.08    0.09 
  -2  -9  -1    0.23    0.05 
  -2 -10  -1    0.33    0.12 
  -2 -10  -1    0.24    0.07 
  -2 -11  -1    0.32    0.08 
  -2 -11  -1    0.16    0.12 
  -2 -12  -1    1.98    0.24 
  -2 -13  -1   -0.16    0.11 
  -2 -14  -1    0.11    0.15 
  -2 -15  -1   -0.09    0.15 
  -2 -16  -1   -0.01    0.20 
  -2 -17  -1    0.05    0.26 
   2 -17   2   -0.04    0.21 
   2 -16   2    0.12    0.18 
   2 -15   2    0.34    0.19 
   2 -14   2    0.01    0.14 
   2 -13   2    0.19    0.11 
   2 -13   2    0.21    0.13 
   2 -12   2   -0.02    0.08 
   2 -12   2   -0.05    0.11 
   2 -11   2    4.19    0.27 
   2 -11   2    4.53    0.33 
   2 -10   2    0.18    0.10 
   2 -10   2   -0.08    0.06 
   2  -9   2    5.55    0.30 
   2  -9   2    5.19    0.34 
   2  -8   2    1.81    0.17 
   2  -8   2    1.70    0.13 
   2  -7   2    0.37    0.07 
   2  -7   2    0.39    0.09 
   2  -6   2    1.71    0.12 
   2  -6   2    1.63    0.14 
   2  -5   2   23.96    1.04 
   2  -5   2   22.96    1.09 
   2  -4   2   14.23    0.69 
   2  -4   2   15.03    0.66 
   2  -3   2   23.01    0.99 
   2  -3   2   22.19    1.03 
   2  -2   2    6.40    0.30 
  -2   1  -2  100.01    4.32 
   2  -1   2   96.30    4.18 
  -2   0  -2   12.19    0.56 
   2   0   2   11.86    0.54 
  -2  -1  -2   94.53    4.03 
  -2  -1  -2   96.29    4.00 
   2   1   2   82.78    3.89 
  -2  -2  -2    5.92    0.27 
   2   2   2    5.16    0.27 
  -2  -3  -2   20.93    0.96 
   2   3   2   21.12    0.93 
  -2  -4  -2   14.34    0.67 
   2   4   2   14.01    0.65 
  -2  -5  -2   22.57    1.05 
  -2  -6  -2    1.64    0.15 
  -2  -6  -2    1.55    0.11 
  -2  -7  -2    0.30    0.09 
  -2  -7  -2    0.33    0.05 
  -2  -8  -2    1.29    0.16 
  -2  -8  -2    1.35    0.10 
  -2  -9  -2    4.36    0.30 
  -2  -9  -2    4.51    0.23 
  -2 -10  -2    0.03    0.09 
  -2 -10  -2    0.01    0.05 
  -2 -11  -2    4.33    0.32 
  -2 -12  -2    0.11    0.10 
  -2 -13  -2    0.10    0.13 
  -2 -14  -2    0.04    0.13 
  -2 -15  -2    0.28    0.18 
  -2 -16  -2    0.13    0.21 
  -2 -17  -2   -0.08    0.26 
   2 -17   3    0.21    0.23 
   2 -16   3   -0.13    0.18 
   2 -15   3    0.04    0.16 
   2 -14   3   -0.06    0.13 
   2 -13   3   -0.07    0.12 
   2 -13   3    0.11    0.10 
   2 -12   3    2.00    0.24 
   2 -12   3    2.21    0.20 
   2 -11   3    0.35    0.13 
   2 -11   3    0.19    0.09 
   2 -10   3    1.24    0.15 
   2 -10   3    1.39    0.18 
   2  -9   3    0.17    0.09 
   2  -9   3    0.35    0.08 
   2  -8   3    2.50    0.20 
   2  -8   3    2.67    0.18 
   2  -7   3   14.94    0.68 
   2  -7   3   14.12    0.72 
   2  -6   3    5.95    0.30 
   2  -6   3    5.61    0.33 
   2  -5   3    0.61    0.08 
   2  -4   3   10.08    0.47 
   2  -3   3    1.58    0.11 
   2  -2   3   63.77    2.73 
  -2   1  -3   36.07    1.66 
   2  -1   3   37.73    1.60 
  -2   0  -3   -0.01    0.04 
   2   0   3   -0.05    0.02 
  -2  -1  -3   38.96    1.60 
  -2  -1  -3   37.81    1.61 
   2   1   3   31.56    1.56 
  -2  -2  -3   64.16    2.73 
  -2  -2  -3   60.51    2.72 
   2   2   3   59.94    2.64 
  -2  -3  -3    1.61    0.11 
   2   3   3    1.50    0.10 
  -2  -4  -3    8.49    0.44 
   2   4   3    9.73    0.43 
  -2  -5  -3    0.51    0.08 
   2   5   3    0.55    0.07 
  -2  -6  -3    5.25    0.26 
  -2  -6  -3    5.04    0.29 
  -2  -7  -3   13.13    0.66 
  -2  -7  -3   13.29    0.59 
  -2  -8  -3    2.20    0.13 
  -2  -8  -3    2.36    0.19 
  -2  -9  -3    0.15    0.09 
  -2  -9  -3    0.22    0.05 
  -2 -10  -3    1.24    0.17 
  -2 -11  -3    0.27    0.12 
  -2 -12  -3    1.83    0.23 
  -2 -13  -3   -0.12    0.11 
  -2 -14  -3    0.03    0.14 
  -2 -15  -3   -0.13    0.16 
  -2 -16  -3    0.00    0.21 
  -2 -17  -3    0.03    0.29 
   2 -17   4   -0.07    0.21 
   2 -16   4    0.23    0.20 
   2 -15   4    0.14    0.18 
   2 -14   4    0.51    0.19 
   2 -14   4    0.49    0.14 
   2 -13   4    0.07    0.09 
   2 -13   4    0.20    0.14 
   2 -12   4    0.57    0.15 
   2 -12   4    0.45    0.11 
   2 -11   4    0.23    0.10 
   2 -11   4    0.06    0.11 
   2 -10   4    0.67    0.13 
   2 -10   4    0.61    0.15 
   2  -9   4    2.71    0.22 
   2  -9   4    2.33    0.18 
   2  -8   4    2.49    0.20 
   2  -8   4    2.11    0.17 
   2  -7   4    1.10    0.12 
   2  -6   4   12.69    0.60 
   2  -5   4    1.01    0.11 
   2  -4   4    1.53    0.11 
   2  -3   4    0.25    0.06 
  -2   2  -4    3.43    0.22 
   2  -2   4    3.31    0.18 
  -2   1  -4    6.85    0.38 
   2  -1   4    7.35    0.34 
  -2   0  -4    2.14    0.14 
  -2   0  -4    2.19    0.16 
   2   0   4    2.17    0.13 
  -2  -1  -4    7.38    0.34 
  -2  -1  -4    7.59    0.37 
   2   1   4    6.63    0.34 
  -2  -2  -4    3.35    0.18 
  -2  -2  -4    3.39    0.20 
   2   2   4    3.32    0.18 
  -2  -3  -4    0.13    0.06 
  -2  -3  -4    0.23    0.05 
   2   3   4    0.09    0.03 
  -2  -4  -4    1.28    0.11 
   2   4   4    1.39    0.10 
  -2  -5  -4    0.77    0.09 
   2   5   4    0.83    0.08 
  -2  -6  -4   11.25    0.55 
   2   6   4   10.63    0.51 
  -2  -7  -4    0.85    0.08 
  -2  -7  -4    1.08    0.13 
  -2  -8  -4    1.68    0.11 
  -2  -8  -4    1.79    0.17 
  -2  -9  -4    2.22    0.20 
  -2 -10  -4    0.74    0.14 
  -2 -11  -4    0.19    0.12 
  -2 -12  -4    0.23    0.13 
  -2 -13  -4   -0.15    0.12 
  -2 -14  -4    0.26    0.16 
  -2 -15  -4    0.07    0.18 
  -2 -16  -4   -0.12    0.22 
  -2 -17  -4   -0.25    0.29 
   2 -17   5   -0.07    0.21 
   2 -16   5    0.11    0.20 
   2 -15   5    0.05    0.18 
   2 -14   5   -0.16    0.14 
   2 -14   5    0.08    0.11 
   2 -13   5    0.11    0.13 
   2 -13   5    0.18    0.10 
   2 -12   5    3.51    0.27 
   2 -12   5    3.81    0.31 
   2 -11   5    0.06    0.12 
   2 -11   5    0.04    0.09 
   2 -10   5   -0.03    0.08 
   2 -10   5    0.10    0.10 
   2  -9   5    1.23    0.18 
   2  -9   5    1.43    0.16 
   2  -8   5    4.85    0.29 
   2  -7   5    0.08    0.06 
   2  -6   5    0.14    0.06 
   2  -5   5    3.11    0.20 
   2  -4   5    8.52    0.42 
   2  -3   5   -0.03    0.04 
  -2   2  -5   37.13    1.75 
   2  -2   5   38.99    1.66 
  -2   1  -5    3.77    0.24 
   2  -1   5    3.58    0.20 
  -2   0  -5   -0.01    0.05 
  -2   0  -5    0.00    0.06 
   2   0   5   -0.03    0.03 
  -2  -1  -5    3.76    0.22 
  -2  -1  -5    3.60    0.20 
   2   1   5    3.80    0.20 
  -2  -2  -5   37.11    1.71 
  -2  -2  -5   38.75    1.70 
   2   2   5   38.41    1.65 
  -2  -3  -5    0.00    0.04 
  -2  -3  -5    0.02    0.06 
   2   3   5    0.04    0.03 
  -2  -4  -5    8.45    0.41 
   2   4   5    7.70    0.38 
  -2  -5  -5    3.06    0.20 
   2   5   5    3.14    0.18 
  -2  -6  -5    0.15    0.08 
  -2  -7  -5    0.02    0.07 
  -2  -8  -5    4.74    0.30 
  -2  -9  -5    1.27    0.17 
  -2 -10  -5    0.08    0.11 
  -2 -11  -5   -0.03    0.11 
  -2 -12  -5    3.16    0.28 
  -2 -13  -5   -0.11    0.13 
  -2 -14  -5   -0.13    0.15 
  -2 -15  -5   -0.29    0.17 
  -2 -16  -5    0.30    0.24 
  -2 -17  -5   -0.03    0.29 
   2 -16   6    0.07    0.20 
   2 -15   6    0.10    0.17 
   2 -15   6    0.11    0.14 
   2 -14   6   -0.01    0.09 
   2 -14   6    0.03    0.15 
   2 -13   6    0.29    0.12 
   2 -13   6    0.37    0.15 
   2 -12   6   -0.01    0.12 
   2 -12   6    0.10    0.09 
   2 -11   6    2.07    0.22 
   2 -11   6    2.75    0.26 
   2 -10   6    1.78    0.20 
   2 -10   6    2.21    0.23 
   2  -9   6    2.65    0.21 
   2  -8   6    1.67    0.17 
   2  -7   6    0.09    0.06 
   2  -6   6   13.37    0.65 
   2  -5   6    3.32    0.21 
   2  -4   6    7.39    0.38 
   2  -3   6    0.53    0.09 
  -2   2  -6   13.99    0.72 
   2  -2   6   14.01    0.65 
  -2   1  -6   15.73    0.74 
  -2   1  -6   14.18    0.71 
   2  -1   6   14.72    0.68 
  -2   0  -6    2.06    0.18 
  -2   0  -6    3.12    0.20 
   2   0   6    2.34    0.15 
  -2  -1  -6   15.06    0.70 
  -2  -1  -6   15.09    0.72 
   2   1   6   14.65    0.68 
  -2  -2  -6   14.50    0.70 
  -2  -2  -6   14.88    0.72 
   2   2   6   15.72    0.69 
  -2  -3  -6    0.61    0.08 
  -2  -3  -6    0.50    0.10 
   2   3   6    0.63    0.08 
  -2  -4  -6    7.34    0.39 
  -2  -4  -6    7.01    0.36 
   2   4   6    6.61    0.34 
  -2  -5  -6    3.14    0.20 
   2   5   6    2.96    0.17 
  -2  -6  -6   12.27    0.61 
  -2  -7  -6    0.08    0.09 
  -2  -8  -6    1.68    0.18 
  -2  -9  -6    2.16    0.21 
  -2 -10  -6    1.99    0.21 
  -2 -11  -6    2.18    0.24 
  -2 -12  -6    0.06    0.13 
  -2 -13  -6    0.06    0.14 
  -2 -14  -6    0.10    0.16 
  -2 -15  -6   -0.21    0.18 
  -2 -16  -6   -0.16    0.24 
   2 -16   7    0.04    0.22 
   2 -15   7    0.16    0.18 
   2 -15   7    0.17    0.14 
   2 -14   7    0.23    0.12 
   2 -14   7    0.46    0.18 
   2 -13   7    0.14    0.15 
   2 -13   7    0.09    0.10 
   2 -12   7    0.02    0.08 
   2 -12   7    0.08    0.13 
   2 -11   7   -0.04    0.08 
   2 -11   7   -0.01    0.11 
   2 -10   7    0.82    0.14 
   2  -9   7    0.10    0.08 
   2  -8   7   -0.04    0.07 
   2  -7   7    7.98    0.43 
   2  -6   7    1.01    0.14 
   2  -5   7    0.11    0.05 
   2  -4   7    0.47    0.10 
  -2   3  -7    0.06    0.09 
   2  -3   7   -0.01    0.05 
  -2   2  -7   11.21    0.61 
   2  -2   7   11.09    0.53 
  -2   1  -7    3.57    0.26 
  -2   1  -7    2.96    0.22 
   2  -1   7    3.78    0.21 
  -2   0  -7   -0.05    0.07 
  -2   0  -7    0.02    0.08 
   2   0   7    0.02    0.04 
  -2  -1  -7    3.36    0.22 
  -2  -1  -7    3.32    0.23 
   2   1   7    3.60    0.20 
  -2  -2  -7   11.14    0.58 
  -2  -2  -7   11.60    0.55 
   2   2   7   11.41    0.54 
  -2  -3  -7   -0.02    0.06 
  -2  -3  -7   -0.03    0.07 
   2   3   7    0.01    0.04 
  -2  -4  -7    0.75    0.12 
  -2  -4  -7    0.58    0.10 
   2   4   7    0.49    0.08 
  -2  -5  -7    0.10    0.08 
  -2  -5  -7    0.24    0.10 
   2   5   7    0.09    0.05 
  -2  -6  -7    1.30    0.14 
  -2  -6  -7    1.11    0.16 
  -2  -7  -7    7.96    0.44 
  -2  -8  -7    0.04    0.09 
  -2  -9  -7    0.14    0.11 
  -2 -10  -7    0.83    0.16 
  -2 -11  -7   -0.16    0.11 
  -2 -12  -7   -0.16    0.12 
  -2 -13  -7   -0.19    0.14 
  -2 -14  -7   -0.41    0.15 
  -2 -15  -7   -0.19    0.20 
  -2 -16  -7   -0.19    0.25 
   2 -16   8    0.06    0.21 
   2 -16   8    0.23    0.23 
   2 -15   8   -0.07    0.14 
   2 -15   8    0.23    0.20 
   2 -14   8    0.05    0.17 
   2 -14   8    0.10    0.13 
   2 -13   8    0.31    0.12 
   2 -13   8    0.44    0.17 
   2 -12   8    0.08    0.13 
   2 -12   8    0.05    0.09 
   2 -11   8    1.28    0.20 
   2 -11   8    0.73    0.15 
   2 -10   8   -0.01    0.09 
   2  -9   8    1.36    0.18 
   2  -8   8    0.10    0.08 
   2  -7   8    0.91    0.14 
   2  -6   8    0.61    0.11 
   2  -5   8    0.03    0.05 
   2  -4   8    0.55    0.10 
  -2   3  -8    0.98    0.17 
   2  -3   8    1.22    0.13 
  -2   2  -8    1.34    0.19 
   2  -2   8    1.31    0.13 
  -2   1  -8    5.86    0.38 
  -2   1  -8    5.97    0.36 
   2  -1   8    6.09    0.32 
  -2   0  -8    1.68    0.19 
  -2   0  -8    1.41    0.17 
   2   0   8    1.55    0.14 
  -2  -1  -8    6.46    0.37 
  -2  -1  -8    6.07    0.37 
   2   1   8    6.41    0.33 
  -2  -2  -8    1.29    0.13 
  -2  -2  -8    1.60    0.17 
   2   2   8    1.40    0.13 
  -2  -3  -8    0.95    0.14 
  -2  -3  -8    0.96    0.11 
   2   3   8    1.08    0.12 
  -2  -4  -8    0.55    0.12 
  -2  -4  -8    0.34    0.09 
   2   4   8    0.58    0.09 
  -2  -5  -8   -0.08    0.07 
  -2  -5  -8   -0.01    0.08 
   2   5   8    0.05    0.05 
  -2  -6  -8    0.73    0.14 
  -2  -6  -8    0.73    0.13 
  -2  -7  -8    0.74    0.14 
  -2  -7  -8    0.96    0.17 
  -2  -8  -8    0.01    0.10 
  -2  -9  -8    1.32    0.18 
  -2 -10  -8    0.04    0.11 
  -2 -11  -8    1.03    0.18 
  -2 -12  -8    0.02    0.12 
  -2 -13  -8    0.44    0.17 
  -2 -14  -8   -0.08    0.16 
  -2 -15  -8   -0.31    0.21 
  -2 -16  -8   -0.28    0.26 
   2 -15   9    0.04    0.17 
   2 -15   9    0.09    0.21 
   2 -14   9    0.29    0.19 
   2 -14   9    0.08    0.14 
   2 -13   9    0.01    0.11 
   2 -13   9    0.08    0.16 
   2 -12   9    0.66    0.19 
   2 -12   9    0.63    0.14 
   2 -11   9    0.08    0.09 
   2 -10   9    0.02    0.08 
   2  -9   9    0.02    0.08 
   2  -8   9    0.57    0.13 
   2  -7   9    0.31    0.10 
   2  -6   9   -0.01    0.06 
   2  -5   9    0.21    0.07 
   2  -4   9    0.62    0.11 
  -2   3  -9    0.18    0.12 
   2  -3   9    0.31    0.08 
  -2   2  -9   11.37    0.65 
   2  -2   9   11.79    0.57 
  -2   1  -9    0.09    0.09 
  -2   1  -9    0.04    0.11 
   2  -1   9    0.25    0.07 
  -2   0  -9   -0.11    0.08 
  -2   0  -9   -0.12    0.08 
   2   0   9    0.02    0.05 
  -2  -1  -9    0.11    0.10 
  -2  -1  -9    0.14    0.11 
   2   1   9    0.32    0.08 
  -2  -2  -9   11.63    0.59 
  -2  -2  -9   11.37    0.57 
   2   2   9   10.27    0.53 
  -2  -3  -9    0.28    0.09 
  -2  -3  -9    0.26    0.10 
   2   3   9    0.39    0.08 
  -2  -4  -9    1.05    0.13 
  -2  -4  -9    0.98    0.15 
   2   4   9    0.95    0.12 
  -2  -5  -9    0.11    0.09 
  -2  -5  -9    0.03    0.10 
   2   5   9    0.23    0.07 
  -2  -6  -9    0.07    0.10 
  -2  -6  -9    0.19    0.12 
  -2  -7  -9    0.27    0.12 
  -2  -7  -9    0.24    0.12 
  -2  -8  -9    0.60    0.14 
  -2  -8  -9    0.91    0.17 
  -2  -9  -9    0.11    0.12 
  -2  -9  -9    0.00    0.11 
  -2 -10  -9   -0.07    0.11 
  -2 -11  -9    0.04    0.13 
  -2 -12  -9    0.37    0.15 
  -2 -13  -9   -0.14    0.14 
  -2 -14  -9    0.11    0.19 
  -2 -15  -9   -0.12    0.23 
   2 -15  10    0.08    0.20 
   2 -15  10    0.16    0.22 
   2 -14  10   -0.01    0.16 
   2 -14  10    0.17    0.20 
   2 -13  10    0.07    0.13 
   2 -13  10    0.06    0.17 
   2 -12  10    0.34    0.13 
   2 -12  10    0.18    0.17 
   2 -11  10    0.28    0.11 
   2 -10  10    0.22    0.11 
   2  -9  10    0.32    0.11 
   2  -8  10    0.92    0.16 
   2  -7  10    0.65    0.13 
   2  -6  10    2.00    0.21 
   2  -5  10    0.46    0.11 
   2  -4  10    3.82    0.25 
  -2   3 -10    1.66    0.23 
   2  -3  10    1.60    0.16 
  -2   2 -10    2.93    0.28 
   2  -2  10    2.33    0.18 
  -2   1 -10    0.33    0.13 
  -2   1 -10    0.48    0.14 
   2  -1  10    0.31    0.08 
  -2   0 -10    6.05    0.39 
  -2   0 -10    6.16    0.40 
   2   0  10    6.24    0.34 
  -2  -1 -10    0.44    0.13 
  -2  -1 -10    0.42    0.14 
   2   1  10    0.39    0.09 
  -2  -2 -10    3.09    0.24 
  -2  -2 -10    3.02    0.24 
   2   2  10    2.26    0.18 
  -2  -3 -10    1.80    0.21 
  -2  -3 -10    2.03    0.19 
   2   3  10    2.21    0.17 
  -2  -4 -10    4.77    0.30 
  -2  -4 -10    4.31    0.32 
   2   4  10    4.87    0.28 
  -2  -5 -10    0.57    0.12 
  -2  -5 -10    0.60    0.15 
  -2  -6 -10    2.21    0.25 
  -2  -6 -10    2.54    0.23 
  -2  -7 -10    0.83    0.16 
  -2  -7 -10    0.83    0.18 
  -2  -8 -10    0.87    0.18 
  -2  -8 -10    0.83    0.16 
  -2  -9 -10    0.24    0.12 
  -2  -9 -10    0.51    0.16 
  -2 -10 -10    0.15    0.14 
  -2 -10 -10    0.20    0.13 
  -2 -11 -10    0.08    0.14 
  -2 -11 -10    0.19    0.16 
  -2 -12 -10    0.47    0.16 
  -2 -12 -10    0.46    0.18 
  -2 -13 -10   -0.24    0.15 
  -2 -14 -10   -0.16    0.20 
  -2 -15 -10    0.04    0.25 
   2 -14  11    0.03    0.20 
   2 -14  11    0.19    0.22 
   2 -13  11    0.06    0.15 
   2 -13  11    0.22    0.21 
   2 -12  11    0.01    0.12 
   2 -11  11    0.05    0.11 
   2 -10  11    0.03    0.10 
   2  -9  11    0.07    0.09 
   2  -8  11    0.15    0.10 
   2  -7  11    3.58    0.27 
   2  -6  11    0.65    0.13 
   2  -5  11    0.12    0.08 
   2  -4  11    0.39    0.10 
  -2   3 -11    0.05    0.11 
   2  -3  11    0.06    0.07 
  -2   2 -11    0.10    0.11 
   2  -2  11    0.05    0.07 
  -2   1 -11    0.13    0.12 
  -2   1 -11    0.03    0.11 
   2  -1  11    0.25    0.08 
  -2   0 -11    0.01    0.11 
  -2   0 -11    0.13    0.11 
   2   0  11   -0.04    0.06 
  -2  -1 -11    0.19    0.13 
  -2  -1 -11    0.10    0.12 
   2   1  11    0.18    0.08 
  -2  -2 -11    0.09    0.10 
  -2  -2 -11    0.19    0.12 
   2   2  11    0.03    0.07 
  -2  -3 -11    0.13    0.11 
  -2  -3 -11    0.17    0.12 
   2   3  11    0.19    0.09 
  -2  -4 -11    0.58    0.14 
  -2  -4 -11    0.47    0.14 
   2   4  11    0.61    0.12 
  -2  -5 -11    0.12    0.12 
  -2  -5 -11   -0.14    0.11 
  -2  -6 -11    1.15    0.19 
  -2  -6 -11    0.94    0.17 
  -2  -7 -11    3.97    0.33 
  -2  -7 -11    4.11    0.31 
  -2  -8 -11    0.09    0.12 
  -2  -8 -11    0.23    0.15 
  -2  -9 -11    0.35    0.15 
  -2  -9 -11    0.18    0.15 
  -2 -10 -11    0.29    0.15 
  -2 -10 -11   -0.15    0.15 
  -2 -11 -11    0.05    0.15 
  -2 -11 -11   -0.01    0.15 
  -2 -12 -11   -0.04    0.15 
  -2 -12 -11   -0.03    0.16 
  -2 -13 -11    0.15    0.19 
  -2 -13 -11    0.12    0.19 
  -2 -14 -11    0.01    0.23 
  -2 -14 -11    0.03    0.19 
   2 -13  12    0.11    0.19 
   2 -12  12    0.16    0.17 
   2 -11  12    0.20    0.14 
   2 -10  12   -0.01    0.10 
   2  -9  12    0.11    0.11 
   2  -8  12   -0.05    0.07 
   2  -7  12    0.10    0.08 
   2  -6  12    0.22    0.09 
   2  -5  12    0.43    0.11 
   2  -4  12    0.13    0.08 
  -2   3 -12    0.24    0.14 
   2  -3  12    0.10    0.08 
  -2   2 -12    0.49    0.17 
   2  -2  12    0.79    0.13 
  -2   1 -12    2.11    0.27 
  -2   1 -12    1.85    0.25 
   2  -1  12    1.65    0.18 
  -2   0 -12    2.84    0.29 
  -2   0 -12    2.48    0.28 
   2   0  12    2.43    0.20 
  -2  -1 -12    1.80    0.24 
  -2  -1 -12    2.33    0.27 
  -2  -1 -12    1.83    0.24 
   2   1  12    2.29    0.20 
  -2  -2 -12    0.57    0.15 
  -2  -2 -12    0.77    0.18 
   2   2  12    0.23    0.08 
  -2  -3 -12    0.31    0.12 
  -2  -3 -12    0.11    0.13 
   2   3  12    0.24    0.10 
  -2  -4 -12    0.28    0.14 
  -2  -4 -12    0.50    0.15 
  -2  -5 -12    0.42    0.15 
  -2  -5 -12    0.29    0.14 
  -2  -6 -12    0.22    0.13 
  -2  -6 -12    0.14    0.14 
  -2  -7 -12    0.10    0.14 
  -2  -7 -12    0.16    0.14 
  -2  -8 -12   -0.05    0.14 
  -2  -8 -12   -0.11    0.13 
  -2  -9 -12    0.31    0.17 
  -2  -9 -12    0.16    0.15 
  -2 -10 -12   -0.04    0.17 
  -2 -10 -12    0.10    0.15 
  -2 -11 -12    0.43    0.18 
  -2 -11 -12    0.23    0.19 
  -2 -12 -12    0.04    0.19 
  -2 -12 -12    0.03    0.18 
  -2 -13 -12    0.05    0.20 
  -2 -13 -12    0.07    0.23 
   2 -12  13    0.41    0.21 
   2 -11  13    0.06    0.16 
   2 -10  13    0.10    0.13 
   2  -9  13    0.01    0.11 
   2  -8  13    0.51    0.14 
   2  -7  13    0.03    0.09 
   2  -6  13    0.08    0.08 
   2  -5  13    0.19    0.10 
   2  -4  13    0.43    0.11 
  -2   3 -13    0.66    0.19 
   2  -3  13    0.81    0.14 
  -2   2 -13    0.60    0.18 
   2  -2  13    0.66    0.13 
  -2   1 -13    0.13    0.14 
   2  -1  13    0.00    0.07 
  -2   0 -13   -0.06    0.11 
   2   0  13   -0.05    0.07 
  -2  -1 -13    0.01    0.12 
   2   1  13    0.08    0.08 
  -2  -2 -13    0.94    0.19 
   2   2  13    0.08    0.07 
  -2  -3 -13    0.64    0.17 
  -2  -4 -13    0.25    0.15 
  -2  -5 -13    0.14    0.15 
  -2  -6 -13   -0.10    0.13 
  -2  -7 -13   -0.12    0.14 
  -2  -8 -13    0.38    0.18 
  -2  -9 -13   -0.18    0.17 
  -2 -10 -13    0.15    0.20 
  -2 -11 -13   -0.01    0.19 
  -2 -12 -13    0.66    0.25 
  -2 -13 -13    0.17    0.23 
   2 -12  14    0.08    0.20 
   2 -11  14    0.16    0.20 
   2 -10  14    0.14    0.16 
   2  -9  14   -0.06    0.10 
   2  -8  14    0.31    0.13 
   2  -7  14    0.15    0.11 
   2  -6  14    1.12    0.19 
   2  -5  14   -0.07    0.08 
   2  -4  14    0.27    0.10 
  -2   3 -14    0.01    0.14 
   2  -3  14    0.42    0.11 
  -2   2 -14    0.83    0.21 
   2  -2  14    0.91    0.15 
  -2   1 -14    0.00    0.12 
   2  -1  14    0.13    0.08 
  -2   0 -14    1.10    0.21 
   2   0  14    0.77    0.14 
  -2  -1 -14   -0.04    0.12 
   2   1  14    0.04    0.09 
  -2  -2 -14    0.60    0.19 
   2   2  14    0.26    0.10 
  -2  -3 -14    0.27    0.15 
  -2  -4 -14    0.29    0.16 
  -2  -5 -14   -0.03    0.14 
  -2  -6 -14    1.00    0.24 
  -2  -7 -14   -0.18    0.16 
  -2  -8 -14    0.01    0.19 
  -2  -9 -14   -0.17    0.18 
  -2 -10 -14    0.02    0.20 
  -2 -11 -14   -0.03    0.21 
  -2 -12 -14    0.05    0.23 
   2 -10  15    0.20    0.15 
   2  -9  15    0.19    0.14 
   2  -8  15   -0.04    0.12 
   2  -7  15    0.03    0.12 
   2  -6  15    0.24    0.13 
   2  -5  15    0.06    0.11 
   2  -4  15    0.20    0.11 
  -2   3 -15   -0.12    0.14 
   2  -3  15   -0.07    0.08 
  -2   2 -15    0.10    0.16 
   2  -2  15    0.07    0.10 
  -2   1 -15    0.10    0.16 
   2  -1  15    0.20    0.10 
  -2   0 -15   -0.14    0.14 
   2   0  15    0.06    0.10 
  -2  -1 -15    0.48    0.17 
   2   1  15    0.27    0.11 
  -2  -2 -15    0.08    0.14 
  -2  -3 -15   -0.07    0.15 
  -2  -4 -15    0.08    0.17 
  -2  -5 -15    0.06    0.16 
  -2  -6 -15   -0.04    0.18 
  -2  -7 -15    0.10    0.20 
  -2  -8 -15   -0.13    0.20 
  -2  -9 -15   -0.20    0.20 
  -2 -10 -15   -0.12    0.22 
  -2 -11 -15   -0.08    0.24 
   2  -9  16   -0.16    0.13 
   2  -8  16    0.16    0.15 
   2  -7  16   -0.06    0.12 
   2  -6  16    0.08    0.12 
   2  -5  16    0.06    0.12 
   2  -4  16    0.03    0.11 
   2  -3  16    0.28    0.13 
  -2   2 -16   -0.15    0.17 
   2  -2  16    0.08    0.11 
  -2   1 -16    0.47    0.22 
   2  -1  16    0.50    0.14 
  -2   0 -16    0.17    0.19 
   2   0  16   -0.09    0.12 
  -2  -1 -16    0.55    0.22 
  -2  -2 -16    0.04    0.16 
  -2  -3 -16    0.23    0.19 
  -2  -4 -16   -0.01    0.19 
  -2  -5 -16   -0.02    0.18 
  -2  -6 -16    0.17    0.19 
  -2  -7 -16   -0.28    0.20 
  -2  -8 -16   -0.18    0.21 
  -2  -9 -16   -0.11    0.24 
   2  -7  17    0.05    0.16 
   2  -6  17   -0.02    0.13 
   2  -5  17    0.13    0.14 
   2  -4  17   -0.09    0.12 
   2  -3  17    0.10    0.13 
  -2   2 -17    0.23    0.23 
   2  -2  17    0.42    0.15 
  -2   1 -17    0.15    0.21 
   2  -1  17    0.12    0.13 
  -2   0 -17   -0.12    0.18 
  -2  -1 -17    0.01    0.19 
  -2  -2 -17    0.54    0.24 
  -2  -3 -17    0.04    0.19 
  -2  -4 -17    0.08    0.22 
  -2  -5 -17    0.00    0.23 
  -2  -6 -17   -0.29    0.22 
  -2  -7 -17   -0.22    0.22 
  -2  -8 -17   -0.45    0.22 
   2  -5  18    0.04    0.15 
   2  -4  18    0.16    0.15 
   2  -3  18    0.06    0.15 
  -2   2 -18    0.04    0.25 
   2  -2  18    0.08    0.15 
  -2   1 -18   -0.02    0.23 
  -2   0 -18    0.19    0.25 
  -2  -1 -18   -0.06    0.22 
  -2  -2 -18    0.21    0.24 
  -2  -3 -18    0.16    0.23 
  -2  -4 -18   -0.04    0.23 
  -2  -5 -18   -0.02    0.24 
  -2   1 -19   -0.02    0.25 
  -2   0 -19   -0.10    0.23 
  -2  -1 -19    0.03    0.24 
  -3  -2  18    0.12    0.15 
  -3  -3  18    0.08    0.13 
  -3  -4  18    0.20    0.14 
  -3  -5  18    0.11    0.14 
  -3  -1  17    0.25    0.13 
  -3  -2  17    0.51    0.13 
  -3  -3  17    0.15    0.12 
  -3  -4  17    0.36    0.13 
  -3  -5  17    0.11    0.13 
  -3  -6  17    0.20    0.12 
  -3  -7  17    0.15    0.13 
   3  -9 -16   -0.29    0.24 
   3  -9 -16   -0.28    0.30 
   3  -8 -16   -0.04    0.27 
   3  -8 -16   -0.16    0.21 
   3  -7 -16    0.11    0.25 
   3  -7 -16   -0.15    0.20 
   3  -6 -16    0.55    0.25 
   3  -6 -16    0.28    0.18 
   3  -5 -16    0.25    0.19 
   3  -5 -16    0.24    0.22 
   3  -4 -16    0.48    0.24 
   3  -4 -16    0.31    0.19 
   3  -3 -16    0.05    0.17 
   3  -3 -16   -0.09    0.19 
   3  -2 -16    0.31    0.19 
   3  -2 -16    0.33    0.21 
   3  -1 -16    0.03    0.17 
   3  -1 -16    0.15    0.20 
  -3   0  16    0.56    0.14 
   3   0 -16    0.40    0.19 
   3   0 -16    0.26    0.20 
  -3  -1  16    0.17    0.09 
   3   1 -16    0.03    0.18 
   3   1 -16    0.28    0.20 
  -3  -2  16    0.46    0.12 
   3   2 -16    0.03    0.19 
  -3  -3  16    0.30    0.11 
  -3  -4  16    0.62    0.14 
  -3  -5  16    0.30    0.12 
  -3  -6  16    0.65    0.15 
  -3  -7  16    0.27    0.13 
  -3  -8  16    0.26    0.13 
  -3  -9  16    0.31    0.15 
   3 -10 -15   -0.24    0.22 
   3 -10 -15    0.25    0.28 
   3  -9 -15   -0.21    0.20 
   3  -9 -15    0.11    0.23 
   3  -8 -15    0.09    0.21 
   3  -8 -15   -0.21    0.19 
   3  -7 -15    0.84    0.23 
   3  -7 -15    0.08    0.18 
   3  -6 -15    0.16    0.17 
   3  -6 -15    0.15    0.18 
   3  -5 -15    0.21    0.19 
   3  -5 -15   -0.03    0.13 
   3  -4 -15    0.16    0.19 
   3  -4 -15    0.03    0.13 
   3  -3 -15    0.21    0.14 
   3  -3 -15    0.27    0.19 
   3  -2 -15    0.42    0.16 
   3  -2 -15    0.23    0.18 
   3  -1 -15    0.10    0.15 
   3  -1 -15   -0.06    0.16 
  -3   0  15    0.06    0.09 
   3   0 -15    0.16    0.14 
   3   0 -15    0.18    0.18 
  -3  -1  15    0.30    0.10 
   3   1 -15    0.11    0.15 
   3   1 -15    0.24    0.18 
  -3  -2  15    0.28    0.10 
   3   2 -15    0.35    0.20 
  -3  -3  15    0.03    0.08 
  -3  -4  15    0.17    0.09 
  -3  -5  15    0.11    0.11 
  -3  -6  15    0.16    0.11 
  -3  -7  15    0.82    0.17 
  -3  -8  15    0.38    0.14 
  -3  -9  15    0.31    0.13 
  -3 -10  15    0.17    0.13 
   3 -11 -14    0.95    0.27 
   3 -11 -14    0.55    0.26 
   3 -10 -14    0.14    0.22 
   3 -10 -14   -0.15    0.19 
   3  -9 -14    0.50    0.22 
   3  -9 -14    0.26    0.20 
   3  -8 -14   -0.04    0.17 
   3  -8 -14    0.24    0.18 
   3  -7 -14    0.16    0.17 
   3  -7 -14    0.03    0.15 
   3  -6 -14    0.27    0.17 
   3  -6 -14    0.05    0.15 
   3  -5 -14    0.13    0.16 
   3  -5 -14    0.00    0.13 
   3  -4 -14    0.25    0.13 
   3  -4 -14    0.36    0.16 
   3  -3 -14    0.19    0.16 
   3  -3 -14    0.14    0.13 
   3  -2 -14   -0.10    0.15 
   3  -2 -14   -0.07    0.11 
  -3   1  14    1.47    0.16 
   3  -1 -14    1.39    0.21 
   3  -1 -14    1.99    0.29 
  -3   0  14    0.37    0.10 
   3   0 -14    0.36    0.15 
   3   0 -14    0.39    0.18 
  -3  -1  14    1.57    0.19 
   3   1 -14    1.40    0.23 
   3   1 -14    1.83    0.30 
  -3  -2  14    0.12    0.08 
   3   2 -14    0.02    0.16 
   3   2 -14    0.04    0.13 
  -3  -3  14    0.19    0.11 
  -3  -4  14    0.16    0.15 
  -3  -5  14    0.07    0.14 
  -3  -6  14    0.12    0.12 
  -3  -7  14    0.21    0.11 
  -3  -8  14    0.18    0.11 
  -3  -9  14    0.52    0.14 
  -3 -10  14    0.18    0.14 
  -3 -11  14    0.58    0.20 
   3 -12 -13    0.10    0.21 
   3 -12 -13    0.32    0.24 
   3 -11 -13    0.04    0.20 
   3 -11 -13    0.18    0.22 
   3 -10 -13    0.03    0.18 
   3 -10 -13    0.19    0.19 
   3  -9 -13    0.09    0.16 
   3  -9 -13    0.25    0.18 
   3  -8 -13   -0.13    0.15 
   3  -8 -13    0.09    0.14 
   3  -7 -13    0.55    0.17 
   3  -7 -13    0.13    0.15 
   3  -6 -13   -0.12    0.13 
   3  -6 -13    0.02    0.13 
   3  -5 -13   -0.08    0.11 
   3  -5 -13    0.11    0.13 
   3  -4 -13   -0.24    0.09 
   3  -4 -13   -0.06    0.14 
   3  -3 -13    0.31    0.18 
   3  -3 -13    0.69    0.15 
  -3   2  13    0.74    0.11 
   3  -2 -13    0.95    0.22 
   3  -2 -13    0.95    0.18 
  -3   1  13   -0.01    0.07 
   3  -1 -13    0.20    0.12 
   3  -1 -13    0.09    0.14 
  -3   0  13    0.08    0.11 
   3   0 -13    0.15    0.14 
   3   0 -13    0.08    0.12 
  -3  -1  13    0.24    0.18 
   3   1 -13   -0.03    0.12 
   3   1 -13   -0.07    0.14 
   3   2 -13    0.70    0.22 
   3   2 -13    0.83    0.18 
   3   3 -13    0.59    0.23 
  -3  -4  13   -0.01    0.18 
  -3  -7  13    0.44    0.25 
  -3  -9  13    0.03    0.12 
  -3 -10  13    0.28    0.14 
  -3 -11  13    0.45    0.17 
  -3 -12  13    0.36    0.19 
   3 -13 -12    0.12    0.23 
   3 -13 -12   -0.06    0.19 
   3 -12 -12   -0.04    0.18 
   3 -12 -12   -0.02    0.20 
   3 -11 -12    0.12    0.17 
   3 -11 -12   -0.11    0.17 
   3 -10 -12    0.33    0.18 
   3 -10 -12    0.65    0.18 
   3  -9 -12    0.77    0.18 
   3  -9 -12    0.81    0.21 
   3  -8 -12   -0.02    0.14 
   3  -8 -12    0.11    0.13 
   3  -7 -12    0.45    0.15 
   3  -7 -12    0.59    0.16 
   3  -6 -12    0.33    0.15 
   3  -6 -12    0.63    0.15 
   3  -5 -12   -0.12    0.10 
   3  -5 -12   -0.13    0.12 
   3  -4 -12    0.89    0.19 
   3  -4 -12    0.77    0.15 
  -3   3  12    1.19    0.13 
   3  -3 -12    0.92    0.15 
   3  -3 -12    0.85    0.19 
  -3   2  12    0.16    0.07 
   3  -2 -12    0.02    0.13 
   3  -2 -12    0.02    0.11 
  -3   1  12    0.36    0.17 
   3  -1 -12   -0.04    0.13 
   3  -1 -12    0.01    0.10 
   3   0 -12    4.86    0.35 
   3   0 -12    5.00    0.41 
  -3  -1  12    0.89    0.18 
  -3  -1  12    0.08    0.08 
   3   1 -12    0.08    0.12 
   3   1 -12   -0.13    0.14 
  -3  -2  12   -0.07    0.07 
  -3  -2  12    0.11    0.13 
   3   2 -12   -0.08    0.12 
   3   2 -12    0.10    0.15 
  -3  -3  12    0.34    0.12 
   3   3 -12    0.99    0.24 
  -3  -4  12    0.19    0.12 
  -3  -5  12   -0.08    0.08 
  -3  -5  12    0.06    0.14 
  -3  -6  12    0.54    0.13 
  -3  -6  12    1.06    0.23 
  -3  -7  12    0.47    0.21 
  -3  -7  12    0.35    0.13 
  -3  -8  12   -0.07    0.19 
  -3 -11  12    0.42    0.14 
  -3 -12  12    0.06    0.14 
  -3 -13  12    0.34    0.19 
   3 -14 -11   -0.06    0.26 
   3 -13 -11    0.06    0.22 
   3 -12 -11    0.18    0.18 
   3 -11 -11    0.17    0.15 
   3 -11 -11    0.00    0.16 
   3 -10 -11   -0.02    0.14 
   3 -10 -11    0.09    0.14 
   3  -9 -11    0.03    0.14 
   3  -9 -11    0.19    0.13 
   3  -8 -11    0.59    0.16 
   3  -8 -11    0.27    0.15 
   3  -7 -11    0.52    0.14 
   3  -7 -11    0.41    0.15 
   3  -6 -11    0.10    0.11 
   3  -6 -11    0.45    0.15 
   3  -5 -11    0.28    0.12 
   3  -5 -11    0.16    0.13 
   3  -4 -11    0.01    0.11 
   3  -4 -11    0.00    0.10 
  -3   3  11    0.07    0.07 
   3  -3 -11   -0.12    0.09 
   3  -3 -11   -0.06    0.11 
   3  -2 -11    2.21    0.21 
   3  -2 -11    2.56    0.28 
  -3   1  11    0.87    0.12 
  -3   1  11    1.33    0.16 
   3  -1 -11    0.67    0.15 
   3  -1 -11    0.74    0.19 
  -3   0  11    0.15    0.07 
   3   0 -11   -0.13    0.12 
   3   0 -11   -0.12    0.09 
  -3  -1  11    0.71    0.11 
   3   1 -11    0.81    0.21 
   3   1 -11    0.81    0.16 
  -3  -2  11    2.50    0.19 
   3   2 -11    2.13    0.25 
   3   2 -11    2.26    0.31 
  -3  -3  11    0.02    0.06 
   3   3 -11   -0.01    0.12 
  -3  -4  11    0.03    0.07 
  -3  -5  11    0.24    0.09 
  -3  -6  11    0.28    0.09 
  -3  -7  11    0.25    0.09 
  -3  -8  11    0.43    0.19 
  -3  -8  11    0.47    0.13 
  -3  -9  11   -0.24    0.20 
  -3  -9  11    0.05    0.09 
  -3 -12  11    0.41    0.15 
  -3 -13  11    0.17    0.15 
  -3 -14  11    0.43    0.19 
   3 -15 -10    0.04    0.28 
   3 -14 -10    0.02    0.22 
   3 -13 -10    0.07    0.20 
   3 -12 -10    0.23    0.16 
   3 -11 -10    0.99    0.19 
   3 -10 -10    0.11    0.14 
   3  -9 -10    0.79    0.16 
   3  -8 -10    0.04    0.12 
   3  -8 -10    0.19    0.13 
   3  -7 -10    0.03    0.12 
   3  -7 -10    0.24    0.12 
   3  -6 -10    0.66    0.16 
   3  -6 -10    0.60    0.15 
   3  -5 -10    0.76    0.16 
   3  -5 -10    0.99    0.16 
  -3   4  10    2.57    0.17 
   3  -4 -10    2.81    0.22 
   3  -4 -10    2.77    0.24 
   3  -3 -10    1.19    0.18 
   3  -3 -10    1.55    0.17 
  -3   2  10    0.00    0.05 
   3  -2 -10   -0.10    0.08 
   3  -2 -10   -0.04    0.10 
  -3   1  10    6.75    0.35 
   3  -1 -10    6.72    0.39 
   3  -1 -10    6.89    0.45 
  -3   0  10    0.96    0.12 
   3   0 -10    0.59    0.18 
   3   0 -10    0.70    0.14 
  -3  -1  10    6.89    0.37 
   3   1 -10    6.58    0.47 
   3   1 -10    7.14    0.42 
  -3  -2  10    0.08    0.06 
   3   2 -10   -0.13    0.11 
   3   2 -10   -0.16    0.11 
  -3  -3  10    1.77    0.17 
   3   3 -10    1.49    0.25 
  -3  -4  10    3.03    0.22 
  -3  -5  10    0.60    0.11 
  -3  -6  10    0.62    0.12 
  -3  -7  10    0.12    0.08 
  -3  -8  10   -0.04    0.07 
  -3  -9  10    0.07    0.09 
  -3 -10  10    0.00    0.09 
  -3 -10  10    0.16    0.21 
  -3 -13  10    0.08    0.12 
  -3 -14  10    0.46    0.16 
   3 -15  -9   -0.03    0.25 
   3 -14  -9    0.12    0.20 
   3 -13  -9    0.12    0.17 
   3 -12  -9    0.07    0.14 
   3 -11  -9    0.37    0.15 
   3 -10  -9    0.23    0.13 
   3  -9  -9    0.14    0.12 
   3  -8  -9   -0.04    0.11 
   3  -7  -9    2.38    0.23 
   3  -7  -9    1.53    0.20 
   3  -6  -9   -0.08    0.10 
   3  -6  -9    0.04    0.10 
   3  -5  -9    0.56    0.13 
   3  -5  -9    0.81    0.14 
   3  -4  -9    0.01    0.09 
   3  -4  -9    0.01    0.09 
  -3   3   9    2.72    0.16 
   3  -3  -9    2.55    0.23 
   3  -3  -9    2.60    0.20 
  -3   2   9    0.70    0.09 
   3  -2  -9    0.65    0.11 
   3  -2  -9    0.44    0.13 
  -3   1   9    0.35    0.07 
   3  -1  -9    0.35    0.10 
   3  -1  -9    0.47    0.13 
  -3   0   9    0.02    0.04 
   3   0  -9    0.01    0.07 
   3   0  -9   -0.07    0.09 
  -3  -1   9    0.42    0.08 
   3   1  -9    0.38    0.14 
   3   1  -9    0.33    0.11 
  -3  -2   9    0.68    0.10 
   3   2  -9    0.67    0.13 
   3   2  -9    0.66    0.17 
  -3  -3   9    2.51    0.18 
   3   3  -9    2.95    0.31 
  -3  -4   9    0.13    0.06 
  -3  -5   9    0.49    0.10 
  -3  -6   9    0.02    0.05 
  -3  -7   9    1.62    0.19 
  -3  -8   9    0.00    0.07 
  -3  -9   9    0.01    0.08 
  -3 -10   9    0.21    0.10 
  -3 -11   9    0.74    0.25 
  -3 -11   9    0.32    0.12 
  -3 -14   9    0.30    0.14 
  -3 -15   9    0.30    0.17 
   3 -16  -8    0.20    0.28 
   3 -15  -8    0.13    0.23 
   3 -14  -8    0.13    0.18 
   3 -13  -8   -0.03    0.14 
   3 -12  -8   -0.09    0.12 
   3 -11  -8    0.06    0.12 
   3 -10  -8    0.39    0.13 
   3  -9  -8    1.16    0.18 
   3  -8  -8    0.03    0.11 
   3  -7  -8   -0.08    0.09 
   3  -6  -8    2.78    0.22 
  -3   5   8   -0.08    0.03 
   3  -5  -8    0.04    0.09 
   3  -5  -8    0.02    0.07 
  -3   4   8    0.11    0.04 
   3  -4  -8    0.13    0.08 
   3  -4  -8    0.17    0.09 
  -3   3   8    0.45    0.06 
   3  -3  -8    0.43    0.11 
   3  -3  -8    0.50    0.09 
  -3   2   8    0.97    0.09 
   3  -2  -8    1.04    0.15 
   3  -2  -8    1.11    0.12 
  -3   1   8    3.04    0.17 
   3  -1  -8    2.18    0.18 
   3  -1  -8    3.39    0.25 
  -3   0   8    6.50    0.33 
   3   0  -8    6.05    0.41 
  -3  -1   8    3.32    0.20 
   3   1  -8    3.27    0.29 
  -3  -2   8    0.98    0.11 
   3   2  -8    0.77    0.17 
  -3  -3   8    0.41    0.08 
   3   3  -8    0.55    0.15 
  -3  -4   8    0.14    0.06 
  -3  -5   8    0.00    0.05 
  -3  -6   8    2.49    0.19 
  -3  -7   8    0.01    0.06 
  -3  -8   8    0.01    0.07 
  -3  -9   8    1.33    0.18 
  -3 -10   8    0.50    0.12 
  -3 -11   8    0.07    0.10 
  -3 -12   8   -0.47    0.20 
  -3 -12   8    0.07    0.10 
  -3 -13   8   -0.61    0.22 
  -3 -14   8    0.24    0.12 
  -3 -15   8    0.37    0.15 
  -3 -16   8    0.05    0.23 
   3 -16  -7   -0.20    0.25 
   3 -15  -7    0.18    0.22 
   3 -14  -7   -0.07    0.16 
   3 -13  -7    0.15    0.15 
   3 -12  -7    0.01    0.12 
   3 -11  -7    0.00    0.12 
   3 -10  -7    0.04    0.10 
   3  -9  -7    0.32    0.13 
   3  -8  -7    0.82    0.15 
   3  -7  -7    0.43    0.12 
   3  -6  -7    2.18    0.19 
   3  -5  -7    0.37    0.10 
  -3   4   7    2.19    0.12 
   3  -4  -7    2.17    0.19 
   3  -4  -7    2.30    0.18 
  -3   3   7    0.02    0.03 
   3  -3  -7   -0.11    0.06 
   3  -3  -7   -0.08    0.06 
  -3   2   7    1.14    0.09 
   3  -2  -7    0.99    0.11 
   3  -2  -7    1.49    0.15 
  -3   1   7    3.55    0.20 
  -3   0   7    0.03    0.04 
   3   0  -7   -0.04    0.05 
   3   0  -7   -0.05    0.09 
  -3  -1   7    6.34    0.33 
   3   1  -7    6.21    0.41 
  -3  -2   7    1.38    0.12 
   3   2  -7    1.18    0.19 
  -3  -3   7   -0.01    0.04 
   3   3  -7    0.11    0.09 
  -3  -4   7    2.48    0.17 
  -3  -5   7    0.46    0.09 
  -3  -6   7    2.34    0.18 
  -3  -7   7    0.30    0.08 
  -3  -8   7    0.80    0.13 
  -3  -9   7    0.30    0.10 
  -3 -10   7    0.10    0.09 
  -3 -11   7    0.16    0.10 
  -3 -12   7    0.12    0.09 
  -3 -12   7   -0.22    0.17 
  -3 -13   7    0.06    0.23 
  -3 -15   7    0.06    0.20 
  -3 -15   7    0.35    0.14 
  -3 -16   7    0.23    0.18 
  -3 -16   7   -0.13    0.20 
   3 -16  -6    0.04    0.25 
   3 -15  -6    0.04    0.20 
   3 -14  -6    0.18    0.16 
   3 -13  -6    0.20    0.14 
   3 -12  -6   -0.11    0.11 
   3 -11  -6    0.85    0.16 
   3 -10  -6   -0.02    0.10 
   3  -9  -6    3.77    0.28 
   3  -8  -6    0.01    0.08 
   3  -7  -6    0.48    0.11 
   3  -6  -6    6.23    0.36 
   3  -5  -6    4.49    0.28 
  -3   4   6    7.23    0.34 
   3  -4  -6    7.80    0.41 
  -3   3   6    2.96    0.16 
   3  -3  -6    3.24    0.19 
   3  -3  -6    2.63    0.20 
  -3   2   6    1.41    0.10 
   3  -2  -6    1.58    0.15 
   3  -1  -6    2.32    0.15 
   3  -1  -6    2.35    0.19 
  -3   0   6    0.02    0.03 
   3   0  -6   -0.06    0.07 
   3   0  -6   -0.04    0.05 
  -3  -1   6    2.81    0.17 
   3   1  -6    2.59    0.23 
   3   1  -6    2.70    0.18 
  -3  -2   6    1.63    0.13 
   3   2  -6    1.72    0.20 
  -3  -3   6    3.19    0.20 
   3   3  -6    3.26    0.27 
  -3  -4   6    7.69    0.40 
  -3  -5   6    4.92    0.29 
  -3  -6   6    6.89    0.37 
  -3  -7   6    0.47    0.10 
  -3  -8   6    0.12    0.07 
  -3  -9   6    4.24    0.28 
  -3 -10   6    0.11    0.08 
  -3 -11   6    1.02    0.16 
  -3 -12   6   -0.04    0.09 
  -3 -13   6   -0.27    0.22 
  -3 -13   6    0.12    0.11 
  -3 -15   6    0.36    0.13 
  -3 -15   6    0.17    0.20 
  -3 -16   6    0.02    0.20 
   3 -17  -5    0.04    0.27 
   3 -16  -5   -0.09    0.22 
   3 -15  -5    0.13    0.18 
   3 -14  -5    0.06    0.15 
   3 -13  -5   -0.04    0.12 
   3 -12  -5    0.15    0.13 
   3 -11  -5    1.29    0.19 
   3 -10  -5    0.10    0.11 
   3  -9  -5   -0.08    0.08 
   3  -8  -5    0.66    0.13 
   3  -7  -5    7.60    0.42 
   3  -6  -5    4.00    0.26 
   3  -5  -5    1.19    0.13 
  -3   4   5    2.84    0.14 
   3  -4  -5    2.63    0.19 
  -3   3   5    0.71    0.06 
   3  -3  -5    0.66    0.10 
  -3   2   5    1.97    0.11 
   3  -2  -5    1.63    0.14 
   3  -1  -5   12.99    0.62 
   3  -1  -5   12.08    0.58 
  -3   0   5   -0.02    0.02 
   3   0  -5   -0.06    0.04 
   3   0  -5    0.00    0.06 
  -3  -1   5   12.58    0.59 
   3   1  -5   12.99    0.61 
   3   1  -5   12.78    0.67 
  -3  -2   5    1.83    0.13 
   3   2  -5    2.08    0.21 
  -3  -3   5    0.76    0.09 
  -3  -4   5    2.60    0.17 
  -3  -5   5    1.39    0.14 
  -3  -6   5    4.29    0.26 
  -3  -7   5    8.46    0.44 
  -3  -8   5    0.75    0.12 
  -3  -9   5    0.01    0.06 
  -3 -10   5    0.17    0.08 
  -3 -11   5    1.98    0.21 
  -3 -12   5    0.05    0.09 
  -3 -13   5   -0.52    0.19 
  -3 -13   5   -0.03    0.09 
  -3 -14   5   -0.15    0.15 
  -3 -15   5    0.12    0.12 
  -3 -15   5    0.17    0.19 
  -3 -16   5   -0.08    0.19 
  -3 -17   5    0.17    0.23 
   3 -17  -4   -0.06    0.25 
   3 -16  -4   -0.11    0.21 
   3 -15  -4    0.31    0.20 
   3 -14  -4   -0.15    0.13 
   3 -13  -4    1.08    0.19 
   3 -12  -4    0.00    0.11 
   3 -11  -4    1.89    0.22 
   3 -10  -4    0.21    0.11 
   3  -9  -4    3.45    0.25 
   3  -8  -4    0.29    0.10 
   3  -7  -4    0.17    0.08 
   3  -6  -4    0.37    0.09 
   3  -5  -4    0.48    0.09 
   3  -4  -4    0.22    0.05 
   3  -4  -4    0.33    0.08 
   3  -3  -4    0.04    0.04 
   3  -3  -4   -0.04    0.04 
  -3   2   4    0.04    0.02 
   3  -2  -4    0.00    0.05 
   3  -1  -4   16.95    0.77 
   3  -1  -4   17.39    0.81 
  -3   0   4   21.80    0.97 
   3   0  -4   22.99    0.99 
   3   0  -4   20.95    1.04 
  -3  -1   4   18.91    0.83 
   3   1  -4   18.46    0.85 
   3   1  -4   18.47    0.91 
  -3  -2   4    0.04    0.03 
   3   2  -4   -0.02    0.06 
  -3  -3   4    0.03    0.03 
  -3  -4   4    0.21    0.05 
  -3  -5   4    0.58    0.09 
  -3  -6   4    0.42    0.08 
  -3  -7   4    0.30    0.07 
  -3  -8   4    0.38    0.09 
  -3  -9   4    3.13    0.22 
  -3 -10   4    0.63    0.12 
  -3 -11   4    2.08    0.21 
  -3 -12   4   -0.05    0.08 
  -3 -13   4   -0.01    0.12 
  -3 -13   4    0.97    0.21 
  -3 -14   4   -0.05    0.15 
  -3 -15   4    0.36    0.19 
  -3 -16   4    0.18    0.20 
  -3 -17   4   -0.10    0.20 
   3 -17  -3   -0.19    0.25 
   3 -16  -3    0.08    0.23 
   3 -15  -3    0.04    0.18 
   3 -14  -3    0.00    0.14 
   3 -13  -3    0.51    0.16 
   3 -12  -3    0.28    0.13 
   3 -11  -3    0.20    0.12 
   3 -10  -3    2.52    0.24 
   3  -9  -3    0.28    0.11 
   3  -8  -3    1.15    0.15 
   3  -7  -3    1.13    0.14 
   3  -7  -3    1.35    0.10 
   3  -6  -3    2.50    0.18 
   3  -6  -3    2.59    0.15 
   3  -5  -3    2.11    0.16 
   3  -5  -3    2.01    0.13 
   3  -4  -3    1.40    0.12 
   3  -4  -3    1.44    0.10 
   3  -3  -3    2.62    0.15 
   3  -3  -3    2.69    0.17 
   3  -2  -3    0.94    0.09 
   3  -2  -3    0.99    0.09 
   3  -1  -3    9.27    0.43 
   3  -1  -3    9.08    0.44 
   3  -1  -3    8.62    0.41 
   3   0  -3    0.00    0.05 
   3   0  -3    0.02    0.05 
  -3  -1   3    9.69    0.45 
   3   1  -3    9.48    0.50 
  -3  -2   3    1.04    0.09 
   3   2  -3    0.87    0.12 
  -3  -3   3    2.80    0.17 
  -3  -4   3    1.65    0.12 
  -3  -5   3    1.80    0.13 
  -3  -6   3    2.82    0.19 
  -3  -7   3    1.65    0.15 
  -3  -8   3    1.10    0.13 
  -3  -9   3    0.33    0.08 
  -3 -10   3    2.44    0.19 
  -3 -11   3    0.06    0.07 
  -3 -12   3    0.23    0.10 
  -3 -12   3    0.13    0.14 
  -3 -13   3    0.59    0.13 
  -3 -13   3    0.54    0.17 
  -3 -14   3   -0.08    0.20 
  -3 -14   3    0.00    0.14 
  -3 -15   3    0.33    0.18 
  -3 -16   3    0.20    0.20 
  -3 -17   3    0.09    0.22 
   3 -17  -2   -0.18    0.21 
   3 -16  -2    0.35    0.22 
   3 -15  -2   -0.10    0.17 
   3 -14  -2    0.55    0.19 
   3 -13  -2    0.14    0.14 
   3 -12  -2    0.01    0.11 
   3 -11  -2    0.12    0.11 
   3 -10  -2    0.73    0.15 
   3  -9  -2    0.17    0.06 
   3  -9  -2    0.13    0.09 
   3  -8  -2    0.76    0.11 
   3  -8  -2    0.54    0.07 
   3  -7  -2    0.36    0.08 
   3  -7  -2    0.22    0.05 
   3  -6  -2   12.04    0.55 
   3  -6  -2   12.38    0.60 
   3  -5  -2    0.34    0.07 
   3  -5  -2    0.19    0.05 
   3  -4  -2    9.58    0.44 
   3  -4  -2    9.52    0.47 
   3  -3  -2    3.06    0.18 
   3  -3  -2    3.42    0.19 
   3  -2  -2    0.02    0.03 
   3  -2  -2    0.02    0.04 
   3  -1  -2    7.75    0.37 
   3  -1  -2    7.50    0.37 
   3   0  -2    0.68    0.09 
   3   0  -2    0.50    0.08 
   3   1  -2    8.13    0.42 
   3   1  -2    7.97    0.40 
   3   2  -2    0.06    0.04 
   3   2  -2    0.00    0.05 
  -3  -3   2    3.21    0.19 
  -3  -4   2   10.21    0.49 
  -3  -5   2    0.22    0.06 
  -3  -6   2   12.15    0.58 
  -3  -7   2    0.23    0.06 
  -3  -8   2    0.52    0.09 
  -3  -9   2    0.24    0.07 
  -3 -10   2    0.58    0.11 
  -3 -11   2    0.00    0.11 
  -3 -11   2    0.18    0.08 
  -3 -12   2    0.07    0.12 
  -3 -12   2   -0.01    0.07 
  -3 -13   2    0.01    0.13 
  -3 -13   2    0.01    0.09 
  -3 -14   2    0.33    0.17 
  -3 -15   2    0.19    0.17 
  -3 -16   2    0.14    0.22 
  -3 -17   2    0.04    0.27 
   3 -17  -1    0.55    0.26 
   3 -16  -1   -0.02    0.20 
   3 -15  -1    0.07    0.18 
   3 -14  -1   -0.02    0.15 
   3 -13  -1   -0.04    0.12 
   3 -12  -1    0.04    0.11 
   3 -11  -1    0.09    0.10 
   3 -10  -1    2.53    0.22 
   3 -10  -1    2.39    0.17 
   3  -9  -1    0.75    0.13 
   3  -9  -1    0.82    0.10 
   3  -8  -1    1.51    0.16 
   3  -8  -1    1.63    0.12 
   3  -7  -1    0.74    0.08 
   3  -7  -1    0.75    0.11 
   3  -6  -1    4.86    0.25 
   3  -6  -1    4.98    0.28 
   3  -5  -1    3.48    0.21 
   3  -5  -1    3.42    0.18 
   3  -4  -1    3.72    0.20 
   3  -4  -1    4.14    0.22 
   3  -3  -1    2.93    0.17 
   3  -3  -1    3.27    0.18 
   3  -2  -1    2.64    0.16 
   3  -2  -1    2.94    0.16 
   3  -1  -1   49.16    2.15 
   3  -1  -1   47.41    2.09 
   3   0  -1    0.02    0.04 
   3   0  -1   -0.02    0.03 
   3   1  -1   46.38    2.11 
   3   1  -1   47.25    2.04 
   3   2  -1    3.08    0.19 
   3   3  -1    3.33    0.21 
  -3  -4   1    3.76    0.21 
  -3  -5   1    3.40    0.20 
  -3  -6   1    5.01    0.27 
  -3  -7   1    0.58    0.08 
  -3  -8   1    1.58    0.13 
  -3  -9   1    0.75    0.10 
  -3 -10   1    2.60    0.18 
  -3 -10   1    2.63    0.26 
  -3 -11   1    0.07    0.07 
  -3 -11   1    0.01    0.11 
  -3 -12   1   -0.06    0.06 
  -3 -12   1   -0.16    0.11 
  -3 -13   1   -0.14    0.12 
  -3 -14   1    0.25    0.15 
  -3 -15   1    0.06    0.16 
  -3 -16   1    0.18    0.22 
  -3 -17   1    0.16    0.26 
   3 -17   0   -0.06    0.21 
   3 -16   0   -0.34    0.18 
   3 -15   0    0.99    0.24 
   3 -14   0    0.12    0.15 
   3 -13   0    1.23    0.21 
   3 -12   0    0.06    0.12 
   3 -11   0    4.47    0.32 
   3 -11   0    4.28    0.26 
   3 -10   0   -0.01    0.07 
   3 -10   0   -0.02    0.09 
   3  -9   0    0.92    0.14 
   3  -9   0    0.79    0.10 
   3  -8   0    0.03    0.06 
   3  -8   0   -0.01    0.05 
   3  -7   0    1.30    0.11 
   3  -7   0    1.61    0.14 
   3  -6   0    0.03    0.06 
   3  -6   0   -0.01    0.04 
   3  -5   0    0.99    0.10 
   3  -5   0    0.96    0.08 
   3  -4   0    0.03    0.03 
   3  -4   0    0.02    0.04 
   3  -3   0   45.74    2.00 
   3  -3   0   46.99    2.07 
   3  -2   0   -0.03    0.03 
   3  -2   0    0.00    0.03 
   3  -1   0  147.55    6.29 
  -3   0   0   -0.01    0.02 
   3   0   0    0.00    0.01 
   3   0   0    0.00    0.03 
   3   2   0   -0.04    0.03 
   3   3   0   47.13    2.06 
   3   4   0    0.02    0.04 
  -3  -5   0    0.99    0.09 
  -3  -6   0    0.01    0.04 
  -3  -7   0    1.40    0.11 
  -3  -8   0    0.00    0.04 
  -3  -9   0    1.15    0.12 
  -3  -9   0    0.80    0.14 
  -3 -10   0    0.00    0.09 
  -3 -10   0    0.04    0.06 
  -3 -11   0    4.94    0.34 
  -3 -11   0    4.38    0.27 
  -3 -12   0    0.02    0.11 
  -3 -12   0   -0.03    0.07 
  -3 -13   0    1.32    0.22 
  -3 -14   0   -0.11    0.14 
  -3 -15   0    0.91    0.24 
  -3 -16   0    0.02    0.20 
  -3 -17   0   -0.15    0.26 
   3 -17   1    0.03    0.22 
   3 -16   1    0.20    0.21 
   3 -15   1   -0.11    0.17 
   3 -14   1    0.11    0.15 
   3 -13   1   -0.08    0.12 
   3 -12   1    0.11    0.12 
   3 -12   1   -0.02    0.08 
   3 -11   1   -0.17    0.10 
   3 -11   1    0.04    0.08 
   3 -10   1    2.98    0.24 
   3 -10   1    2.79    0.19 
   3  -9   1    0.82    0.14 
   3  -9   1    0.69    0.10 
   3  -8   1    1.72    0.13 
   3  -8   1    1.89    0.16 
   3  -7   1    0.80    0.09 
   3  -7   1    0.84    0.11 
   3  -6   1    5.49    0.29 
   3  -6   1    5.03    0.27 
   3  -5   1    3.53    0.20 
   3  -5   1    3.73    0.21 
   3  -4   1    4.03    0.22 
   3  -4   1    4.29    0.22 
   3  -3   1    3.14    0.17 
   3  -3   1    3.39    0.18 
  -3   1  -1   44.50    2.00 
   3  -1   1   46.30    1.95 
   3  -1   1   44.65    2.00 
  -3   0  -1   -0.03    0.03 
   3   0   1   -0.04    0.02 
   3   0   1    0.00    0.02 
  -3  -1  -1   46.86    2.07 
   3   1   1   47.00    2.03 
   3   2   1    3.11    0.18 
   3   3   1    2.70    0.17 
   3   5   1    2.87    0.19 
  -3  -6  -1    5.11    0.27 
  -3  -7  -1    0.79    0.09 
  -3  -7  -1    0.70    0.12 
  -3  -8  -1    1.67    0.12 
  -3  -8  -1    1.51    0.17 
  -3  -9  -1    0.64    0.14 
  -3  -9  -1    0.74    0.09 
  -3 -10  -1    2.38    0.17 
  -3 -10  -1    2.43    0.24 
  -3 -11  -1    0.10    0.07 
  -3 -11  -1    0.13    0.12 
  -3 -12  -1   -0.05    0.10 
  -3 -13  -1    0.17    0.13 
  -3 -14  -1   -0.10    0.13 
  -3 -15  -1   -0.19    0.14 
  -3 -16  -1   -0.11    0.19 
  -3 -17  -1    0.26    0.27 
   3 -17   2    0.23    0.23 
   3 -16   2    0.34    0.21 
   3 -15   2    0.33    0.19 
   3 -14   2    0.53    0.17 
   3 -13   2    0.04    0.14 
   3 -12   2    0.01    0.11 
   3 -12   2    0.05    0.08 
   3 -11   2    0.14    0.09 
   3 -11   2    0.18    0.11 
   3 -10   2    0.73    0.11 
   3 -10   2    0.70    0.14 
   3  -9   2    0.16    0.07 
   3  -9   2    0.31    0.11 
   3  -8   2    0.59    0.09 
   3  -8   2    0.61    0.11 
   3  -7   2    0.38    0.09 
   3  -7   2    0.25    0.06 
   3  -6   2   13.34    0.65 
   3  -6   2   13.22    0.62 
   3  -5   2    0.30    0.06 
   3  -5   2    0.33    0.07 
   3  -4   2    9.72    0.47 
   3  -4   2   10.00    0.46 
   3  -3   2    3.47    0.19 
   3  -2   2    0.04    0.03 
   3  -2   2    0.05    0.02 
  -3   1  -2    7.87    0.40 
   3  -1   2    8.30    0.38 
  -3   0  -2    0.66    0.08 
   3   0   2    0.64    0.07 
  -3  -1  -2    8.22    0.38 
   3   1   2    7.74    0.38 
  -3  -2  -2   -0.04    0.03 
   3   2   2    0.01    0.03 
  -3  -3  -2    3.26    0.18 
  -3  -4  -2    9.74    0.48 
   3   4   2    9.78    0.48 
  -3  -5  -2    0.21    0.07 
   3   5   2    0.33    0.07 
  -3  -6  -2   12.13    0.60 
  -3  -7  -2    0.21    0.09 
  -3  -7  -2    0.30    0.06 
  -3  -8  -2    0.63    0.08 
  -3  -8  -2    0.54    0.11 
  -3  -9  -2    0.20    0.06 
  -3  -9  -2    0.13    0.09 
  -3 -10  -2    0.61    0.09 
  -3 -10  -2    0.48    0.13 
  -3 -11  -2   -0.07    0.10 
  -3 -12  -2   -0.16    0.10 
  -3 -13  -2    0.01    0.12 
  -3 -14  -2    0.36    0.16 
  -3 -15  -2   -0.14    0.15 
  -3 -16  -2    0.10    0.22 
  -3 -17  -2    0.06    0.27 
   3 -17   3   -0.22    0.21 
   3 -16   3    0.00    0.20 
   3 -15   3   -0.08    0.16 
   3 -14   3    0.02    0.16 
   3 -13   3    0.63    0.14 
   3 -13   3    0.88    0.18 
   3 -12   3    0.31    0.14 
   3 -12   3    0.29    0.10 
   3 -11   3   -0.04    0.07 
   3 -11   3   -0.06    0.11 
   3 -10   3    2.86    0.21 
   3 -10   3    2.94    0.25 
   3  -9   3    0.36    0.11 
   3  -9   3    0.26    0.08 
   3  -8   3    1.41    0.16 
   3  -8   3    1.45    0.14 
   3  -7   3    1.50    0.13 
   3  -7   3    1.93    0.17 
   3  -6   3    3.21    0.20 
   3  -6   3    3.02    0.19 
   3  -5   3    2.32    0.16 
   3  -5   3    2.40    0.15 
   3  -4   3    1.78    0.12 
   3  -4   3    1.61    0.12 
   3  -3   3    2.92    0.17 
   3  -3   3    2.83    0.16 
   3  -2   3    1.03    0.07 
   3  -2   3    1.05    0.09 
  -3   1  -3   10.80    0.53 
   3  -1   3   10.40    0.49 
  -3   0  -3   -0.02    0.05 
   3   0   3   -0.01    0.03 
  -3  -1  -3   10.17    0.49 
   3   1   3   10.10    0.47 
  -3  -2  -3    0.99    0.09 
  -3  -2  -3    0.92    0.07 
  -3  -3  -3    2.93    0.16 
   3   3   3    2.72    0.17 
  -3  -4  -3    1.52    0.11 
   3   4   3    1.51    0.11 
  -3  -5  -3    1.99    0.15 
   3   5   3    2.09    0.15 
  -3  -6  -3    2.79    0.19 
   3   6   3    2.79    0.19 
  -3  -7  -3    1.63    0.16 
  -3  -7  -3    1.58    0.12 
  -3  -8  -3    1.32    0.16 
  -3  -8  -3    1.20    0.10 
  -3  -9  -3    0.30    0.06 
  -3  -9  -3    0.17    0.10 
  -3 -10  -3    3.14    0.25 
  -3 -11  -3   -0.03    0.10 
  -3 -12  -3    0.14    0.13 
  -3 -13  -3    0.45    0.16 
  -3 -14  -3   -0.26    0.13 
  -3 -15  -3    0.20    0.17 
  -3 -16  -3   -0.04    0.21 
  -3 -17  -3    0.03    0.28 
   3 -17   4    0.01    0.21 
   3 -16   4    0.04    0.20 
   3 -15   4    0.54    0.20 
   3 -14   4    0.23    0.15 
   3 -14   4    0.01    0.11 
   3 -13   4    1.34    0.22 
   3 -13   4    1.12    0.17 
   3 -12   4    0.06    0.09 
   3 -12   4    0.02    0.11 
   3 -11   4    2.43    0.21 
   3 -11   4    2.55    0.26 
   3 -10   4    0.60    0.14 
   3 -10   4    0.30    0.10 
   3  -9   4    4.10    0.29 
   3  -9   4    4.13    0.26 
   3  -8   4    0.49    0.10 
   3  -8   4    0.67    0.12 
   3  -7   4    0.32    0.09 
   3  -7   4    0.29    0.07 
   3  -6   4    0.50    0.09 
   3  -6   4    0.69    0.10 
   3  -5   4    0.49    0.08 
   3  -4   4    0.26    0.06 
   3  -3   4    0.01    0.03 
  -3   2  -4    0.04    0.07 
   3  -2   4   -0.02    0.03 
  -3   1  -4   19.84    0.94 
   3  -1   4   19.86    0.89 
  -3   0  -4   23.53    1.10 
   3   0   4   24.23    1.06 
  -3  -1  -4   20.11    0.94 
   3   1   4   20.43    0.91 
  -3  -2  -4    0.05    0.03 
  -3  -2  -4    0.08    0.05 
   3   2   4   -0.02    0.02 
  -3  -3  -4    0.03    0.04 
  -3  -3  -4   -0.05    0.04 
   3   3   4    0.01    0.03 
  -3  -4  -4    0.23    0.06 
   3   4   4    0.20    0.05 
  -3  -5  -4    0.54    0.08 
   3   5   4    0.47    0.08 
  -3  -6  -4    0.31    0.08 
   3   6   4    0.44    0.08 
  -3  -7  -4    0.19    0.08 
  -3  -8  -4    0.39    0.06 
  -3  -8  -4    0.56    0.12 
  -3  -9  -4    3.65    0.20 
  -3  -9  -4    3.95    0.27 
  -3 -10  -4    0.49    0.13 
  -3 -11  -4    1.97    0.22 
  -3 -12  -4    0.28    0.14 
  -3 -13  -4    0.84    0.18 
  -3 -14  -4   -0.27    0.13 
  -3 -15  -4    0.21    0.19 
  -3 -16  -4    0.03    0.22 
  -3 -17  -4   -0.29    0.28 
   3 -17   5    0.29    0.23 
   3 -16   5   -0.08    0.19 
   3 -15   5   -0.08    0.16 
   3 -14   5    0.09    0.11 
   3 -14   5   -0.04    0.15 
   3 -13   5    0.23    0.14 
   3 -13   5    0.06    0.10 
   3 -12   5    0.11    0.10 
   3 -12   5    0.08    0.13 
   3 -11   5    2.13    0.22 
   3 -11   5    2.44    0.25 
   3 -10   5    0.31    0.10 
   3 -10   5    0.37    0.12 
   3  -9   5   -0.07    0.06 
   3  -9   5    0.02    0.09 
   3  -8   5    0.84    0.13 
   3  -8   5    0.99    0.14 
   3  -7   5    9.16    0.47 
   3  -7   5    9.08    0.49 
   3  -6   5    4.55    0.27 
   3  -5   5    1.50    0.14 
   3  -4   5    2.86    0.18 
   3  -3   5    0.73    0.09 
  -3   2  -5    2.25    0.20 
   3  -2   5    2.03    0.14 
  -3   1  -5   12.85    0.67 
   3  -1   5   14.23    0.63 
  -3   0  -5   -0.18    0.06 
   3   0   5    0.02    0.03 
  -3  -1  -5   13.23    0.66 
   3   1   5   14.09    0.63 
  -3  -2  -5    1.86    0.12 
  -3  -2  -5    1.89    0.14 
  -3  -3  -5    0.64    0.10 
  -3  -3  -5    0.57    0.07 
   3   3   5    0.55    0.08 
  -3  -4  -5    2.76    0.17 
  -3  -4  -5    2.85    0.20 
   3   4   5    2.48    0.17 
  -3  -5  -5    1.37    0.13 
   3   5   5    1.28    0.12 
  -3  -6  -5    3.93    0.25 
   3   6   5    4.19    0.24 
  -3  -7  -5    8.13    0.43 
   3   7   5    7.57    0.39 
  -3  -8  -5    0.73    0.08 
  -3  -8  -5    0.75    0.13 
  -3  -9  -5    0.01    0.09 
  -3 -10  -5    0.16    0.11 
  -3 -11  -5    1.91    0.22 
  -3 -12  -5    0.09    0.13 
  -3 -13  -5   -0.05    0.13 
  -3 -14  -5    0.05    0.14 
  -3 -15  -5    0.03    0.19 
  -3 -16  -5   -0.20    0.23 
   3 -16   6    0.17    0.21 
   3 -15   6   -0.05    0.18 
   3 -15   6    0.05    0.14 
   3 -14   6    0.18    0.13 
   3 -14   6    0.28    0.17 
   3 -13   6    0.38    0.16 
   3 -13   6    0.38    0.13 
   3 -12   6    0.03    0.10 
   3 -12   6    0.01    0.12 
   3 -11   6    0.93    0.18 
   3 -11   6    1.16    0.17 
   3 -10   6    0.02    0.09 
   3 -10   6    0.18    0.11 
   3  -9   6    4.53    0.32 
   3  -9   6    4.63    0.30 
   3  -8   6    0.08    0.07 
   3  -8   6    0.11    0.08 
   3  -7   6    0.24    0.08 
   3  -6   6    7.49    0.40 
   3  -5   6    5.08    0.29 
   3  -4   6    7.89    0.40 
   3  -3   6    3.06    0.19 
  -3   2  -6    1.48    0.18 
   3  -2   6    1.49    0.13 
  -3   1  -6    2.65    0.21 
   3  -1   6    2.73    0.17 
  -3   0  -6    0.01    0.08 
   3   0   6    0.04    0.04 
  -3  -1  -6    2.74    0.17 
  -3  -1  -6    2.95    0.21 
   3   1   6    3.02    0.18 
  -3  -2  -6    1.51    0.15 
  -3  -2  -6    1.53    0.11 
  -3  -3  -6    2.80    0.21 
  -3  -3  -6    3.16    0.18 
   3   3   6    3.20    0.19 
  -3  -4  -6    8.09    0.43 
  -3  -4  -6    7.61    0.39 
   3   4   6    7.44    0.38 
  -3  -5  -6    4.35    0.26 
  -3  -5  -6    5.16    0.30 
   3   5   6    4.17    0.25 
  -3  -6  -6    6.75    0.37 
   3   6   6    6.92    0.35 
  -3  -7  -6    0.36    0.10 
   3   7   6    0.49    0.08 
  -3  -8  -6    0.04    0.09 
  -3  -9  -6    4.27    0.29 
  -3 -10  -6   -0.02    0.10 
  -3 -11  -6    0.84    0.17 
  -3 -12  -6   -0.22    0.12 
  -3 -13  -6    0.13    0.14 
  -3 -14  -6    0.21    0.17 
  -3 -15  -6    0.30    0.21 
  -3 -16  -6   -0.28    0.23 
   3 -16   7    0.15    0.23 
   3 -15   7    0.03    0.14 
   3 -15   7    0.14    0.19 
   3 -14   7    0.21    0.13 
   3 -14   7    0.14    0.16 
   3 -13   7    0.20    0.12 
   3 -13   7    0.57    0.18 
   3 -12   7    0.07    0.13 
   3 -12   7    0.04    0.09 
   3 -11   7    0.15    0.09 
   3 -11   7    0.16    0.12 
   3 -10   7    0.09    0.09 
   3 -10   7    0.09    0.11 
   3  -9   7    0.17    0.12 
   3  -9   7    0.20    0.09 
   3  -8   7    0.95    0.14 
   3  -7   7    0.35    0.09 
   3  -6   7    2.60    0.20 
   3  -5   7    0.29    0.08 
   3  -4   7    2.20    0.17 
  -3   3  -7   -0.07    0.08 
   3  -3   7    0.06    0.05 
  -3   2  -7    1.49    0.19 
   3  -2   7    1.43    0.14 
  -3   1  -7    6.24    0.39 
   3  -1   7    6.51    0.34 
  -3   0  -7   -0.10    0.08 
  -3   0  -7   -0.10    0.06 
   3   0   7   -0.03    0.04 
  -3  -1  -7    6.52    0.34 
  -3  -1  -7    5.87    0.36 
   3   1   7    6.44    0.33 
  -3  -2  -7    1.35    0.12 
  -3  -2  -7    1.38    0.16 
  -3  -3  -7    0.08    0.06 
  -3  -3  -7    0.04    0.07 
   3   3   7    0.03    0.05 
  -3  -4  -7    2.33    0.17 
  -3  -4  -7    2.34    0.20 
   3   4   7    2.40    0.17 
  -3  -5  -7    0.60    0.13 
  -3  -5  -7    0.46    0.09 
   3   5   7    0.63    0.09 
  -3  -6  -7    2.38    0.19 
  -3  -6  -7    2.48    0.22 
   3   6   7    2.80    0.17 
  -3  -7  -7    0.37    0.11 
  -3  -8  -7    1.19    0.16 
  -3  -9  -7    0.11    0.11 
  -3 -10  -7    0.20    0.12 
  -3 -11  -7    0.12    0.13 
  -3 -12  -7    0.06    0.13 
  -3 -13  -7    0.63    0.18 
  -3 -14  -7   -0.05    0.16 
  -3 -15  -7   -0.33    0.20 
  -3 -16  -7   -0.39    0.26 
   3 -15   8   -0.01    0.15 
   3 -15   8    0.07    0.19 
   3 -14   8   -0.08    0.17 
   3 -14   8    0.02    0.13 
   3 -13   8    0.22    0.15 
   3 -13   8   -0.01    0.11 
   3 -12   8    0.07    0.09 
   3 -12   8    0.31    0.15 
   3 -11   8   -0.10    0.08 
   3 -11   8    0.23    0.13 
   3 -10   8    0.25    0.12 
   3 -10   8    0.34    0.11 
   3  -9   8    1.26    0.17 
   3  -8   8    0.05    0.07 
   3  -7   8    0.02    0.06 
   3  -6   8    2.91    0.22 
   3  -5   8    0.02    0.05 
   3  -4   8    0.15    0.06 
  -3   3  -8    0.89    0.16 
   3  -3   8    0.51    0.09 
  -3   2  -8    0.96    0.18 
   3  -2   8    1.28    0.13 
  -3   1  -8    3.54    0.28 
   3  -1   8    3.71    0.23 
  -3   0  -8    6.98    0.42 
  -3   0  -8    6.88    0.39 
   3   0   8    7.43    0.37 
  -3  -1  -8    3.63    0.25 
  -3  -1  -8    4.37    0.28 
   3   1   8    3.82    0.24 
  -3  -2  -8    1.07    0.15 
  -3  -2  -8    0.81    0.11 
  -3  -3  -8    0.37    0.11 
  -3  -3  -8    0.50    0.08 
   3   3   8    0.46    0.09 
  -3  -4  -8    0.05    0.09 
  -3  -4  -8    0.08    0.07 
   3   4   8    0.16    0.07 
  -3  -5  -8    0.03    0.09 
  -3  -5  -8    0.07    0.08 
   3   5   8    0.02    0.06 
  -3  -6  -8    3.02    0.25 
  -3  -6  -8    3.10    0.22 
   3   6   8    3.03    0.19 
  -3  -7  -8   -0.04    0.09 
  -3  -7  -8   -0.07    0.09 
  -3  -8  -8    0.09    0.10 
  -3  -8  -8    0.09    0.10 
  -3  -9  -8    1.29    0.18 
  -3 -10  -8    0.50    0.14 
  -3 -11  -8    0.12    0.12 
  -3 -12  -8    0.25    0.14 
  -3 -13  -8    0.20    0.15 
  -3 -14  -8    0.16    0.18 
  -3 -15  -8    0.20    0.24 
   3 -15   9   -0.04    0.21 
   3 -15   9   -0.01    0.18 
   3 -14   9   -0.11    0.17 
   3 -14   9    0.10    0.15 
   3 -13   9   -0.02    0.11 
   3 -13   9   -0.03    0.16 
   3 -12   9   -0.06    0.14 
   3 -12   9    0.03    0.10 
   3 -11   9    0.66    0.18 
   3 -11   9    0.53    0.14 
   3 -10   9    0.28    0.10 
   3  -9   9    0.12    0.09 
   3  -8   9    0.08    0.09 
   3  -7   9    1.71    0.19 
   3  -6   9    0.15    0.08 
   3  -5   9    0.60    0.11 
   3  -4   9    0.08    0.06 
  -3   3  -9    2.48    0.26 
   3  -3   9    2.14    0.17 
  -3   2  -9    0.48    0.14 
   3  -2   9    0.64    0.11 
  -3   1  -9    0.35    0.13 
   3  -1   9    0.56    0.10 
  -3   0  -9   -0.06    0.08 
  -3   0  -9    0.01    0.08 
   3   0   9   -0.05    0.05 
  -3  -1  -9    0.39    0.12 
  -3  -1  -9    0.22    0.11 
   3   1   9    0.48    0.09 
  -3  -2  -9    0.62    0.11 
  -3  -2  -9    0.82    0.14 
  -3  -3  -9    2.71    0.22 
  -3  -3  -9    2.58    0.19 
   3   3   9    2.77    0.19 
  -3  -4  -9    0.16    0.10 
  -3  -4  -9    0.13    0.09 
   3   4   9    0.18    0.07 
  -3  -5  -9    0.49    0.12 
  -3  -5  -9    0.52    0.12 
   3   5   9    0.56    0.10 
  -3  -6  -9    0.07    0.10 
  -3  -6  -9    0.08    0.10 
  -3  -7  -9    2.17    0.24 
  -3  -7  -9    2.00    0.20 
  -3  -8  -9   -0.07    0.10 
  -3  -8  -9   -0.02    0.10 
  -3  -9  -9    0.02    0.11 
  -3  -9  -9    0.01    0.12 
  -3 -10  -9    0.29    0.14 
  -3 -10  -9    0.04    0.12 
  -3 -11  -9    0.33    0.15 
  -3 -12  -9   -0.03    0.13 
  -3 -13  -9    0.13    0.16 
  -3 -14  -9   -0.18    0.18 
  -3 -15  -9   -0.19    0.23 
   3 -15  10    0.06    0.23 
   3 -14  10    0.05    0.17 
   3 -14  10    0.26    0.20 
   3 -13  10    0.09    0.17 
   3 -13  10    0.07    0.13 
   3 -12  10    0.11    0.17 
   3 -12  10    0.05    0.12 
   3 -11  10    0.95    0.20 
   3 -11  10    0.70    0.16 
   3 -10  10    0.10    0.10 
   3  -9  10    0.76    0.15 
   3  -8  10    0.16    0.10 
   3  -7  10    0.13    0.09 
   3  -6  10    0.55    0.12 
   3  -5  10    1.03    0.14 
   3  -4  10    2.63    0.21 
  -3   3 -10    1.66    0.24 
   3  -3  10    1.39    0.16 
  -3   2 -10    0.11    0.10 
   3  -2  10   -0.03    0.05 
  -3   1 -10    6.67    0.44 
   3  -1  10    6.75    0.37 
  -3   0 -10    0.64    0.15 
  -3   0 -10    0.68    0.16 
   3   0  10    0.99    0.13 
  -3  -1 -10    6.98    0.45 
  -3  -1 -10    7.49    0.44 
   3   1  10    7.50    0.40 
  -3  -2 -10    0.20    0.10 
  -3  -2 -10    0.18    0.09 
   3   2  10    0.01    0.06 
  -3  -3 -10    1.43    0.20 
  -3  -3 -10    1.62    0.17 
   3   3  10    2.09    0.18 
  -3  -4 -10    2.93    0.23 
  -3  -4 -10    3.15    0.26 
   3   4  10    3.14    0.22 
  -3  -5 -10    0.85    0.14 
  -3  -5 -10    0.57    0.15 
  -3  -6 -10    0.87    0.17 
  -3  -6 -10    0.48    0.13 
  -3  -7 -10    0.24    0.13 
  -3  -7 -10    0.13    0.11 
  -3  -8 -10   -0.18    0.11 
  -3  -8 -10    0.11    0.11 
  -3  -9 -10    0.96    0.17 
  -3  -9 -10    0.77    0.18 
  -3 -10 -10   -0.07    0.12 
  -3 -10 -10   -0.12    0.14 
  -3 -11 -10    0.87    0.18 
  -3 -11 -10    1.12    0.23 
  -3 -12 -10    0.01    0.16 
  -3 -12 -10   -0.09    0.13 
  -3 -13 -10    0.08    0.17 
  -3 -13 -10   -0.07    0.16 
  -3 -14 -10   -0.12    0.21 
  -3 -15 -10   -0.23    0.26 
   3 -14  11   -0.04    0.20 
   3 -13  11   -0.13    0.19 
   3 -13  11    0.01    0.16 
   3 -12  11    0.19    0.15 
   3 -12  11    0.13    0.18 
   3 -11  11    0.01    0.11 
   3 -10  11   -0.07    0.09 
   3  -9  11   -0.03    0.09 
   3  -8  11    0.38    0.12 
   3  -7  11    0.19    0.10 
   3  -6  11    0.19    0.09 
   3  -5  11    0.33    0.10 
   3  -4  11    0.02    0.06 
  -3   3 -11    0.00    0.10 
   3  -3  11    0.04    0.06 
  -3   2 -11    2.09    0.27 
   3  -2  11    2.62    0.20 
  -3   1 -11    0.66    0.17 
   3  -1  11    0.66    0.12 
  -3   0 -11   -0.04    0.11 
  -3   0 -11   -0.01    0.10 
   3   0  11   -0.05    0.06 
  -3  -1 -11    0.71    0.17 
  -3  -1 -11    1.00    0.18 
   3   1  11    1.09    0.15 
  -3  -2 -11    2.91    0.26 
  -3  -2 -11    2.35    0.25 
  -3  -3 -11    0.04    0.11 
  -3  -3 -11    0.14    0.11 
   3   3  11    0.09    0.09 
  -3  -4 -11    0.17    0.11 
  -3  -4 -11    0.02    0.11 
   3   4  11    0.01    0.09 
  -3  -5 -11    0.35    0.13 
  -3  -5 -11    0.38    0.14 
  -3  -6 -11    0.46    0.15 
  -3  -6 -11    0.25    0.12 
  -3  -7 -11    0.24    0.14 
  -3  -7 -11    0.23    0.13 
  -3  -8 -11    0.59    0.16 
  -3  -8 -11    0.37    0.16 
  -3  -9 -11    0.26    0.14 
  -3  -9 -11    0.04    0.14 
  -3 -10 -11    0.10    0.14 
  -3 -10 -11   -0.13    0.13 
  -3 -11 -11    0.14    0.15 
  -3 -11 -11   -0.03    0.16 
  -3 -12 -11   -0.03    0.17 
  -3 -12 -11    0.15    0.17 
  -3 -13 -11   -0.19    0.17 
  -3 -13 -11   -0.05    0.19 
  -3 -14 -11   -0.02    0.18 
   3 -13  12   -0.06    0.19 
   3 -12  12    0.05    0.16 
   3 -11  12    0.19    0.15 
   3 -10  12    0.41    0.15 
   3  -9  12    0.71    0.16 
   3  -8  12    0.03    0.09 
   3  -7  12    0.41    0.12 
   3  -6  12    0.65    0.14 
   3  -5  12    0.01    0.07 
   3  -4  12    0.71    0.13 
  -3   3 -12    0.86    0.20 
   3  -3  12    0.94    0.14 
  -3   2 -12    0.05    0.12 
   3  -2  12    0.07    0.08 
  -3   1 -12    0.04    0.13 
   3  -1  12    0.10    0.08 
  -3   0 -12    5.66    0.39 
   3   0  12    4.70    0.31 
  -3  -1 -12    0.23    0.13 
   3   1  12    0.03    0.08 
  -3  -2 -12    0.06    0.11 
   3   2  12    0.08    0.07 
  -3  -3 -12    0.71    0.16 
   3   3  12    1.16    0.16 
  -3  -4 -12    0.80    0.17 
  -3  -5 -12   -0.17    0.12 
  -3  -6 -12    0.57    0.16 
  -3  -6 -12    0.62    0.18 
  -3  -7 -12    0.24    0.16 
  -3  -8 -12    0.01    0.14 
  -3  -9 -12    1.05    0.24 
  -3 -10 -12    0.55    0.21 
  -3 -11 -12    0.07    0.19 
  -3 -12 -12    0.06    0.20 
  -3 -13 -12   -0.05    0.20 
   3 -12  13    0.29    0.22 
   3 -11  13    0.07    0.16 
   3 -10  13    0.11    0.14 
   3  -9  13   -0.10    0.11 
   3  -8  13    0.13    0.11 
   3  -7  13    0.49    0.13 
   3  -6  13    0.07    0.09 
   3  -5  13    0.01    0.08 
   3  -4  13   -0.02    0.08 
  -3   3 -13    0.61    0.19 
   3  -3  13    0.47    0.12 
  -3   2 -13    0.54    0.18 
   3  -2  13    0.85    0.14 
  -3   1 -13    0.13    0.13 
   3  -1  13    0.15    0.08 
  -3   0 -13   -0.04    0.11 
   3   0  13    0.06    0.09 
  -3  -1 -13    0.05    0.11 
   3   1  13    0.10    0.09 
  -3  -2 -13    0.87    0.19 
   3   2  13    0.08    0.07 
  -3  -3 -13    0.42    0.16 
   3   3  13    0.93    0.15 
  -3  -4 -13    0.19    0.14 
  -3  -5 -13    0.20    0.15 
  -3  -6 -13   -0.11    0.14 
  -3  -7 -13    0.21    0.17 
  -3  -8 -13    0.18    0.18 
  -3  -9 -13   -0.13    0.18 
  -3 -10 -13   -0.04    0.19 
  -3 -11 -13    0.09    0.21 
  -3 -12 -13    0.07    0.21 
   3 -11  14    0.26    0.21 
   3 -10  14    0.01    0.16 
   3  -9  14    0.46    0.16 
   3  -8  14    0.10    0.12 
   3  -7  14    0.08    0.12 
   3  -6  14    0.39    0.13 
   3  -5  14    0.08    0.10 
   3  -4  14    0.09    0.09 
  -3   3 -14    0.12    0.16 
   3  -3  14    0.05    0.09 
  -3   2 -14   -0.08    0.14 
   3  -2  14   -0.04    0.08 
  -3   1 -14    1.45    0.26 
   3  -1  14    1.44    0.19 
  -3   0 -14    0.34    0.16 
   3   0  14    0.27    0.11 
  -3  -1 -14    1.44    0.24 
   3   1  14    1.75    0.20 
  -3  -2 -14   -0.03    0.13 
   3   2  14    0.15    0.08 
  -3  -3 -14    0.12    0.15 
  -3  -4 -14    0.18    0.14 
  -3  -5 -14   -0.08    0.15 
  -3  -6 -14    0.02    0.17 
  -3  -7 -14   -0.17    0.16 
  -3  -8 -14    0.01    0.20 
  -3  -9 -14    0.39    0.23 
  -3 -10 -14   -0.07    0.21 
  -3 -11 -14    0.68    0.26 
   3 -10  15   -0.03    0.15 
   3  -9  15    0.05    0.13 
   3  -8  15    0.06    0.14 
   3  -7  15    0.57    0.17 
   3  -6  15    0.07    0.12 
   3  -5  15   -0.02    0.10 
   3  -4  15    0.01    0.09 
  -3   3 -15   -0.10    0.16 
   3  -3  15   -0.09    0.09 
  -3   2 -15    0.17    0.16 
   3  -2  15    0.13    0.10 
  -3   1 -15    0.00    0.15 
   3  -1  15    0.20    0.11 
  -3   0 -15   -0.01    0.14 
   3   0  15   -0.02    0.10 
  -3  -1 -15    0.13    0.14 
   3   1  15    0.10    0.11 
  -3  -2 -15   -0.03    0.14 
  -3  -3 -15   -0.06    0.17 
  -3  -4 -15    0.08    0.17 
  -3  -5 -15   -0.01    0.17 
  -3  -6 -15   -0.14    0.18 
  -3  -7 -15    0.20    0.21 
  -3  -8 -15   -0.18    0.20 
  -3  -9 -15   -0.22    0.20 
  -3 -10 -15   -0.01    0.23 
   3  -9  16   -0.04    0.15 
   3  -8  16    0.01    0.13 
   3  -7  16    0.11    0.14 
   3  -6  16    0.28    0.14 
   3  -5  16    0.05    0.12 
   3  -4  16    0.44    0.15 
   3  -3  16    0.14    0.12 
  -3   2 -16    0.18    0.19 
   3  -2  16    0.22    0.12 
  -3   1 -16    0.11    0.18 
   3  -1  16    0.12    0.12 
  -3   0 -16    0.57    0.23 
   3   0  16    0.70    0.16 
  -3  -1 -16    0.07    0.19 
  -3  -2 -16    0.10    0.20 
  -3  -3 -16    0.11    0.18 
  -3  -4 -16    0.37    0.21 
  -3  -5 -16    0.03    0.20 
  -3  -6 -16    0.29    0.21 
  -3  -7 -16   -0.52    0.19 
  -3  -8 -16   -0.13    0.22 
  -3  -9 -16   -0.12    0.22 
   3  -7  17   -0.01    0.15 
   3  -6  17    0.01    0.14 
   3  -5  17    0.21    0.15 
   3  -4  17    0.06    0.14 
   3  -3  17    0.07    0.14 
  -3   2 -17    0.41    0.23 
   3  -2  17    0.21    0.14 
  -3   1 -17    0.24    0.23 
   3  -1  17    0.35    0.15 
  -3   0 -17   -0.10    0.20 
  -3  -1 -17    0.30    0.23 
  -3  -2 -17    0.41    0.22 
  -3  -3 -17    0.06    0.21 
  -3  -4 -17   -0.26    0.22 
  -3  -5 -17    0.13    0.25 
  -3  -6 -17   -0.11    0.22 
  -3  -7 -17    0.06    0.24 
   3  -5  18   -0.04    0.15 
   3  -4  18   -0.06    0.15 
   3  -3  18    0.01    0.15 
  -3   2 -18   -0.02    0.24 
   3  -2  18    0.01    0.15 
  -3   1 -18    0.21    0.26 
   3  -1  18    0.41    0.20 
  -3   0 -18   -0.32    0.21 
  -3  -1 -18    0.08    0.24 
  -3  -2 -18    0.13    0.23 
  -3  -3 -18    0.20    0.23 
  -3  -4 -18    0.11    0.26 
  -3  -5 -18    0.24    0.26 
  -3   0 -19    0.32    0.28 
  -4  -2  18    0.12    0.15 
  -4  -3  18    0.10    0.12 
  -4  -4  18    0.23    0.13 
  -4  -5  18    0.39    0.14 
   4  -7 -17    0.32    0.37 
   4  -6 -17    0.15    0.31 
   4  -5 -17    0.16    0.29 
   4  -4 -17    0.28    0.28 
   4  -3 -17    0.37    0.26 
   4  -2 -17    0.04    0.23 
   4  -1 -17    0.11    0.22 
   4   0 -17    0.14    0.23 
  -4  -1  17    0.15    0.13 
   4   1 -17    0.20    0.25 
  -4  -2  17    0.26    0.12 
   4   2 -17    0.15    0.26 
  -4  -3  17    0.41    0.13 
  -4  -4  17    0.40    0.13 
  -4  -5  17    0.15    0.11 
  -4  -6  17    0.24    0.12 
  -4  -7  17    0.36    0.14 
   4  -9 -16    0.08    0.34 
   4  -8 -16    0.34    0.30 
   4  -7 -16    0.11    0.26 
   4  -6 -16    0.17    0.23 
   4  -5 -16    0.75    0.27 
   4  -4 -16    0.11    0.21 
   4  -3 -16    0.07    0.20 
   4  -2 -16    0.12    0.19 
   4  -1 -16    0.44    0.22 
  -4   0  16    0.50    0.14 
   4   0 -16    0.45    0.21 
  -4  -1  16    1.01    0.15 
   4   1 -16    0.62    0.23 
  -4  -2  16    0.38    0.11 
   4   2 -16    0.02    0.19 
  -4  -3  16    0.24    0.10 
  -4  -4  16    0.12    0.11 
  -4  -5  16    0.31    0.13 
  -4  -6  16    0.18    0.11 
  -4  -7  16    0.33    0.13 
  -4  -8  16    0.51    0.14 
   4 -10 -15    0.28    0.28 
   4 -10 -15   -0.01    0.24 
   4  -9 -15   -0.38    0.21 
   4  -9 -15    0.05    0.23 
   4  -8 -15    0.18    0.23 
   4  -8 -15   -0.22    0.20 
   4  -7 -15    0.26    0.19 
   4  -7 -15    0.70    0.22 
   4  -6 -15    0.27    0.21 
   4  -6 -15   -0.15    0.16 
   4  -5 -15    0.27    0.19 
   4  -5 -15   -0.15    0.15 
   4  -4 -15   -0.01    0.16 
   4  -4 -15    0.55    0.21 
   4  -3 -15    0.51    0.22 
   4  -3 -15    0.29    0.16 
   4  -2 -15    0.16    0.18 
   4  -2 -15   -0.11    0.13 
   4  -1 -15    0.55    0.17 
   4  -1 -15    0.75    0.23 
  -4   0  15    0.13    0.09 
   4   0 -15   -0.01    0.15 
   4   0 -15    0.04    0.17 
  -4  -1  15    0.50    0.12 
   4   1 -15    0.37    0.21 
  -4  -2  15    0.15    0.14 
   4   2 -15    0.13    0.19 
  -4  -7  15    0.14    0.15 
  -4  -8  15    0.23    0.12 
  -4  -9  15    0.41    0.14 
  -4 -10  15    0.52    0.16 
   4 -11 -14    0.10    0.23 
   4 -11 -14    0.26    0.27 
   4 -10 -14   -0.15    0.20 
   4 -10 -14    0.10    0.22 
   4  -9 -14    0.08    0.19 
   4  -9 -14    0.05    0.18 
   4  -8 -14   -0.10    0.16 
   4  -8 -14   -0.06    0.16 
   4  -7 -14   -0.25    0.13 
   4  -7 -14   -0.03    0.16 
   4  -6 -14    0.12    0.14 
   4  -6 -14    0.34    0.16 
   4  -5 -14    0.20    0.17 
   4  -5 -14   -0.06    0.13 
   4  -4 -14    0.05    0.16 
   4  -4 -14    0.01    0.12 
   4  -3 -14    0.01    0.14 
   4  -3 -14    0.05    0.13 
   4  -2 -14    0.09    0.17 
   4  -2 -14   -0.14    0.11 
  -4   1  14    0.76    0.13 
   4  -1 -14    0.77    0.22 
   4  -1 -14    0.97    0.19 
   4   0 -14   -0.01    0.13 
   4   0 -14    0.39    0.19 
   4   1 -14    0.90    0.20 
   4   1 -14    0.94    0.24 
  -4  -2  14   -0.09    0.17 
   4   2 -14    0.05    0.16 
  -4  -3  14    0.42    0.16 
   4   3 -14    0.13    0.17 
  -4  -4  14    0.14    0.13 
  -4  -5  14   -0.02    0.15 
  -4  -6  14    0.48    0.24 
  -4  -8  14   -0.64    0.24 
  -4 -10  14    0.26    0.13 
  -4 -11  14    0.39    0.19 
   4 -12 -13    0.05    0.21 
   4 -12 -13    0.04    0.26 
   4 -11 -13    0.06    0.20 
   4 -11 -13    0.18    0.23 
   4 -10 -13    0.21    0.19 
   4 -10 -13   -0.05    0.18 
   4  -9 -13   -0.17    0.16 
   4  -9 -13    0.19    0.17 
   4  -8 -13   -0.13    0.14 
   4  -8 -13    0.01    0.16 
   4  -7 -13    0.12    0.14 
   4  -7 -13    0.05    0.13 
   4  -6 -13   -0.17    0.11 
   4  -6 -13   -0.13    0.13 
   4  -5 -13    0.39    0.15 
   4  -5 -13    0.13    0.13 
   4  -4 -13    0.38    0.17 
   4  -4 -13    0.55    0.15 
   4  -3 -13    0.49    0.14 
   4  -3 -13    0.42    0.18 
   4  -2 -13    0.24    0.15 
   4  -2 -13    0.18    0.12 
  -4   1  13    0.64    0.18 
   4  -1 -13    0.42    0.17 
   4  -1 -13    0.26    0.13 
  -4   0  13    0.09    0.08 
  -4   0  13   -0.22    0.16 
   4   0 -13    0.06    0.13 
   4   0 -13    0.06    0.12 
  -4  -1  13    0.06    0.11 
   4   1 -13    0.39    0.14 
   4   1 -13    0.22    0.16 
  -4  -2  13    0.04    0.07 
   4   2 -13    0.15    0.14 
  -4  -3  13    0.53    0.13 
   4   3 -13    0.65    0.21 
  -4  -4  13    0.38    0.12 
  -4  -5  13    0.00    0.08 
  -4  -6  13   -0.14    0.12 
  -4  -7  13    0.10    0.11 
  -4  -7  13   -0.16    0.21 
  -4  -8  13   -0.06    0.11 
  -4  -8  13   -0.03    0.24 
  -4 -10  13   -0.30    0.28 
  -4 -11  13   -0.06    0.20 
  -4 -12  13    0.33    0.18 
   4 -13 -12    0.16    0.22 
   4 -13 -12    0.18    0.28 
   4 -12 -12   -0.12    0.17 
   4 -12 -12    0.00    0.22 
   4 -11 -12    0.10    0.18 
   4 -11 -12    0.26    0.20 
   4 -10 -12    0.26    0.18 
   4 -10 -12    0.10    0.16 
   4  -9 -12    0.85    0.20 
   4  -9 -12    1.10    0.20 
   4  -8 -12    0.51    0.16 
   4  -8 -12    0.37    0.16 
   4  -7 -12    0.07    0.14 
   4  -7 -12    0.10    0.13 
   4  -6 -12    0.41    0.14 
   4  -6 -12    0.38    0.16 
   4  -5 -12    1.52    0.19 
   4  -5 -12    1.56    0.24 
   4  -4 -12    0.06    0.11 
   4  -4 -12    0.11    0.12 
   4  -3 -12    0.20    0.11 
   4  -3 -12    0.11    0.14 
  -4   2  12    1.77    0.20 
   4  -2 -12    0.56    0.19 
   4  -2 -12    0.54    0.14 
  -4   1  12    1.79    0.17 
   4  -1 -12    1.52    0.20 
   4  -1 -12    1.88    0.27 
  -4   0  12    2.45    0.19 
   4   0 -12    2.15    0.31 
  -4  -1  12    1.97    0.19 
   4   1 -12    1.95    0.30 
  -4  -2  12    0.58    0.11 
   4   2 -12    0.63    0.20 
  -4  -3  12    0.04    0.07 
   4   3 -12    0.22    0.15 
  -4  -4  12    0.03    0.07 
  -4  -5  12    1.64    0.19 
  -4  -6  12    0.22    0.10 
  -4  -7  12    0.14    0.09 
  -4  -8  12    0.01    0.09 
  -4  -9  12    0.85    0.25 
  -4  -9  12    0.48    0.17 
  -4 -10  12    0.00    0.15 
  -4 -13  12    0.30    0.19 
   4 -14 -11    0.02    0.26 
   4 -13 -11    0.34    0.22 
   4 -12 -11    0.06    0.18 
   4 -11 -11    0.19    0.18 
   4 -11 -11    0.39    0.19 
   4 -10 -11    0.05    0.15 
   4 -10 -11    0.08    0.15 
   4  -9 -11    0.33    0.15 
   4  -9 -11    0.29    0.16 
   4  -8 -11    0.25    0.14 
   4  -8 -11    0.37    0.14 
   4  -7 -11    0.90    0.18 
   4  -7 -11    1.04    0.18 
   4  -6 -11    0.30    0.13 
   4  -6 -11    0.32    0.12 
   4  -5 -11    0.03    0.12 
   4  -5 -11   -0.07    0.09 
   4  -4 -11    0.04    0.10 
   4  -4 -11   -0.08    0.11 
   4  -3 -11    0.87    0.14 
   4  -3 -11    0.74    0.18 
  -4   2  11    1.02    0.12 
   4  -2 -11    0.78    0.14 
   4  -2 -11    0.64    0.17 
  -4   1  11    3.57    0.22 
   4  -1 -11    3.53    0.34 
  -4   0  11    0.04    0.06 
   4   0 -11    0.11    0.09 
   4   0 -11    0.09    0.13 
  -4  -1  11    3.48    0.23 
   4   1 -11    3.28    0.35 
  -4  -2  11    0.95    0.13 
   4   2 -11    0.81    0.21 
  -4  -3  11    0.68    0.12 
   4   3 -11    0.79    0.20 
  -4  -4  11    0.13    0.08 
  -4  -5  11   -0.01    0.06 
  -4  -6  11    0.22    0.09 
  -4  -7  11    1.22    0.17 
  -4  -8  11    0.26    0.11 
  -4  -9  11    0.29    0.12 
  -4 -10  11   -0.10    0.12 
  -4 -11  11    0.16    0.13 
  -4 -11  11    0.21    0.26 
  -4 -14  11    0.47    0.20 
   4 -14 -10    0.09    0.24 
   4 -13 -10   -0.04    0.18 
   4 -12 -10    0.04    0.16 
   4 -11 -10    0.20    0.15 
   4 -10 -10   -0.01    0.13 
   4  -9 -10    0.47    0.16 
   4  -8 -10    0.08    0.11 
   4  -8 -10   -0.07    0.11 
   4  -7 -10   -0.10    0.10 
   4  -7 -10   -0.04    0.10 
   4  -6 -10    0.07    0.11 
   4  -6 -10    0.04    0.11 
   4  -5 -10    1.53    0.18 
   4  -5 -10    1.25    0.19 
  -4   4  10    1.48    0.12 
   4  -4 -10    1.57    0.17 
   4  -4 -10    1.25    0.19 
  -4   3  10    0.04    0.05 
   4  -3 -10   -0.04    0.08 
   4  -3 -10   -0.08    0.09 
  -4   2  10    0.12    0.06 
   4  -2 -10    0.05    0.10 
   4  -2 -10   -0.02    0.06 
  -4   1  10    1.48    0.13 
   4  -1 -10    1.55    0.22 
  -4   0  10    0.41    0.08 
   4   0 -10    0.29    0.11 
   4   0 -10    0.35    0.15 
  -4  -1  10    1.61    0.15 
   4   1 -10    1.68    0.19 
   4   1 -10    1.16    0.22 
  -4  -2  10    0.04    0.05 
   4   2 -10    0.03    0.12 
  -4  -3  10    0.07    0.06 
   4   3 -10    0.05    0.12 
  -4  -4  10    1.54    0.17 
  -4  -5  10    1.53    0.17 
  -4  -6  10    0.05    0.07 
  -4  -7  10    0.06    0.07 
  -4  -8  10   -0.02    0.07 
  -4  -9  10    0.06    0.09 
  -4 -10  10    0.02    0.09 
  -4 -11  10    0.02    0.11 
  -4 -12  10   -0.44    0.24 
  -4 -12  10   -0.01    0.12 
  -4 -14  10    0.35    0.19 
   4 -15  -9    0.06    0.25 
   4 -14  -9    0.13    0.21 
   4 -13  -9   -0.06    0.16 
   4 -12  -9   -0.02    0.14 
   4 -11  -9   -0.01    0.12 
   4 -10  -9   -0.01    0.12 
   4  -9  -9   -0.05    0.11 
   4  -8  -9    0.08    0.11 
   4  -7  -9   -0.08    0.11 
   4  -6  -9   -0.04    0.10 
   4  -6  -9   -0.07    0.11 
   4  -5  -9    0.22    0.11 
   4  -5  -9    0.41    0.12 
  -4   4   9    0.44    0.07 
   4  -4  -9    0.39    0.11 
   4  -4  -9    0.29    0.11 
  -4   3   9    0.35    0.07 
   4  -3  -9    0.26    0.08 
   4  -3  -9    0.14    0.11 
  -4   2   9    0.84    0.10 
   4  -2  -9    1.01    0.16 
  -4   1   9    0.09    0.05 
   4  -1  -9    0.33    0.10 
   4  -1  -9    0.15    0.10 
  -4   0   9   -0.04    0.04 
   4   0  -9    0.06    0.10 
   4   0  -9    0.01    0.07 
  -4  -1   9    0.11    0.06 
   4   1  -9    0.19    0.11 
   4   1  -9    0.15    0.09 
  -4  -2   9    1.06    0.12 
   4   2  -9    0.88    0.18 
  -4  -3   9    0.21    0.07 
   4   3  -9    0.29    0.13 
  -4  -4   9    0.46    0.09 
  -4  -5   9    0.22    0.07 
  -4  -6   9    0.02    0.05 
  -4  -7   9   -0.02    0.06 
  -4  -8   9   -0.04    0.06 
  -4  -9   9    0.06    0.08 
  -4 -10   9    0.02    0.09 
  -4 -11   9    0.03    0.09 
  -4 -12   9   -0.18    0.14 
  -4 -13   9   -0.22    0.17 
  -4 -15   9    0.40    0.18 
   4 -15  -8   -0.10    0.23 
   4 -14  -8    0.15    0.18 
   4 -13  -8   -0.03    0.14 
   4 -12  -8    0.00    0.13 
   4 -11  -8    0.25    0.13 
   4 -10  -8    0.15    0.12 
   4  -9  -8    2.34    0.24 
   4  -8  -8    0.36    0.13 
   4  -7  -8   -0.08    0.08 
   4  -6  -8    1.94    0.21 
  -4   5   8    6.76    0.32 
   4  -5  -8    7.27    0.40 
   4  -5  -8    6.61    0.40 
  -4   4   8    0.15    0.04 
   4  -4  -8   -0.03    0.07 
   4  -4  -8    0.05    0.08 
  -4   3   8    1.15    0.09 
   4  -3  -8    1.24    0.16 
  -4   2   8    1.80    0.12 
   4  -2  -8    1.53    0.19 
   4  -2  -8    1.61    0.14 
  -4   1   8    0.77    0.09 
   4  -1  -8    0.85    0.16 
   4  -1  -8    0.93    0.11 
  -4   0   8   11.75    0.56 
   4   0  -8   12.39    0.59 
   4   0  -8   10.63    0.64 
  -4  -1   8    0.88    0.10 
   4   1  -8    0.50    0.13 
   4   1  -8    0.66    0.17 
  -4  -2   8    1.91    0.15 
   4   2  -8    1.58    0.24 
  -4  -3   8    1.11    0.13 
   4   3  -8    1.22    0.21 
  -4  -4   8    0.01    0.04 
  -4  -5   8    6.71    0.37 
  -4  -6   8    1.81    0.18 
  -4  -7   8    0.16    0.08 
  -4  -8   8    0.48    0.11 
  -4  -9   8    2.97    0.24 
  -4 -10   8    0.11    0.09 
  -4 -11   8    0.21    0.11 
  -4 -12   8   -0.09    0.09 
  -4 -13   8    0.27    0.13 
  -4 -13   8   -0.28    0.24 
  -4 -15   8    0.37    0.20 
   4 -16  -7    0.02    0.26 
   4 -15  -7   -0.33    0.19 
   4 -14  -7    0.06    0.18 
   4 -13  -7    0.54    0.17 
   4 -12  -7    0.29    0.14 
   4 -11  -7    0.96    0.18 
   4 -10  -7    0.06    0.11 
   4  -9  -7    0.30    0.12 
   4  -8  -7    0.32    0.13 
   4  -7  -7    2.54    0.22 
   4  -6  -7    0.52    0.12 
  -4   5   7    0.25    0.04 
   4  -5  -7    0.25    0.10 
  -4   4   7    0.15    0.04 
   4  -4  -7    0.20    0.07 
   4  -4  -7   -0.01    0.09 
  -4   3   7    0.55    0.06 
   4  -3  -7    0.12    0.05 
   4  -3  -7    0.30    0.10 
  -4   2   7    4.06    0.22 
   4  -2  -7    4.20    0.23 
   4  -2  -7    3.76    0.27 
  -4   1   7    5.09    0.28 
   4  -1  -7    5.89    0.35 
   4  -1  -7    5.28    0.29 
  -4   0   7    0.00    0.04 
   4   0  -7   -0.04    0.06 
   4   0  -7   -0.10    0.08 
  -4  -1   7    5.73    0.31 
   4   1  -7    5.84    0.32 
   4   1  -7    5.68    0.39 
  -4  -2   7    3.99    0.24 
   4   2  -7    4.01    0.32 
  -4  -3   7    0.50    0.09 
   4   3  -7    0.37    0.13 
  -4  -4   7    0.14    0.06 
  -4  -5   7    0.24    0.07 
  -4  -6   7    0.55    0.11 
  -4  -7   7    2.77    0.21 
  -4  -8   7    0.34    0.10 
  -4  -9   7    0.29    0.10 
  -4 -10   7    0.09    0.08 
  -4 -11   7    0.99    0.17 
  -4 -12   7    0.46    0.14 
  -4 -13   7   -0.07    0.09 
  -4 -14   7   -0.10    0.14 
  -4 -16   7   -0.08    0.22 
  -4 -16   7    0.29    0.19 
   4 -16  -6   -0.16    0.24 
   4 -15  -6   -0.10    0.19 
   4 -14  -6    0.19    0.17 
   4 -13  -6   -0.05    0.13 
   4 -12  -6   -0.12    0.11 
   4 -11  -6   -0.10    0.10 
   4 -10  -6   -0.03    0.10 
   4  -9  -6    2.06    0.21 
   4  -8  -6   -0.02    0.08 
   4  -7  -6    0.10    0.09 
   4  -6  -6   -0.07    0.08 
  -4   5   6   13.27    0.59 
   4  -5  -6   13.28    0.67 
  -4   4   6    5.43    0.27 
   4  -4  -6    6.08    0.34 
  -4   3   6    0.14    0.04 
   4  -3  -6    0.12    0.05 
   4  -3  -6    0.06    0.07 
  -4   2   6    0.03    0.03 
   4  -2  -6   -0.03    0.06 
   4  -2  -6    0.02    0.05 
  -4   1   6    5.32    0.27 
   4  -1  -6    5.02    0.32 
   4  -1  -6    5.55    0.28 
  -4   0   6    0.21    0.05 
   4   0  -6    0.14    0.09 
   4   0  -6    0.09    0.05 
  -4  -1   6    5.67    0.30 
   4   1  -6    5.73    0.30 
   4   1  -6    5.32    0.37 
  -4  -2   6    0.08    0.04 
   4   2  -6    0.00    0.08 
  -4  -3   6    0.12    0.05 
   4   3  -6    0.07    0.08 
  -4  -4   6    5.88    0.33 
  -4  -5   6   14.13    0.68 
  -4  -6   6    0.01    0.05 
  -4  -7   6    0.21    0.08 
  -4  -8   6    0.09    0.07 
  -4  -9   6    2.81    0.22 
  -4 -10   6   -0.05    0.07 
  -4 -11   6    0.05    0.08 
  -4 -12   6   -0.02    0.08 
  -4 -13   6    0.14    0.10 
  -4 -14   6    0.40    0.13 
  -4 -14   6   -0.08    0.26 
  -4 -15   6   -0.05    0.18 
  -4 -16   6   -0.02    0.21 
   4 -16  -5   -0.17    0.24 
   4 -15  -5   -0.06    0.19 
   4 -14  -5    0.18    0.17 
   4 -13  -5   -0.12    0.12 
   4 -12  -5    0.00    0.12 
   4 -11  -5    0.25    0.12 
   4 -10  -5    0.79    0.15 
   4  -9  -5    0.54    0.13 
   4  -8  -5    0.54    0.12 
   4  -7  -5    0.29    0.10 
   4  -6  -5    1.78    0.17 
   4  -5  -5    4.93    0.30 
   4  -4  -5    0.70    0.11 
  -4   3   5    0.05    0.03 
   4  -3  -5    0.11    0.07 
  -4   2   5   14.17    0.64 
   4  -2  -5   14.36    0.69 
   4  -2  -5   13.96    0.65 
  -4   1   5    1.02    0.09 
   4  -1  -5    1.34    0.14 
   4  -1  -5    1.08    0.09 
  -4   0   5    0.06    0.03 
   4   0  -5    0.00    0.03 
   4   0  -5   -0.02    0.06 
  -4  -1   5    1.20    0.11 
   4   1  -5    1.15    0.10 
   4   1  -5    1.30    0.17 
  -4  -2   5   16.03    0.75 
   4   2  -5   16.51    0.84 
  -4  -3   5    0.05    0.04 
   4   3  -5    0.00    0.08 
  -4  -4   5    0.59    0.09 
  -4  -5   5    5.80    0.32 
  -4  -6   5    1.76    0.15 
  -4  -7   5    0.58    0.11 
  -4  -8   5    0.69    0.12 
  -4  -9   5    0.74    0.13 
  -4 -10   5    0.92    0.14 
  -4 -11   5    0.43    0.11 
  -4 -12   5    0.22    0.11 
  -4 -13   5    0.16    0.11 
  -4 -14   5   -0.22    0.13 
  -4 -15   5   -0.09    0.18 
  -4 -16   5    0.26    0.21 
   4 -17  -4   -0.15    0.25 
   4 -16  -4    0.24    0.24 
   4 -15  -4    0.02    0.18 
   4 -14  -4    0.08    0.15 
   4 -13  -4    0.10    0.13 
   4 -12  -4    0.04    0.11 
   4 -11  -4    0.11    0.10 
   4 -10  -4    0.82    0.16 
   4  -9  -4    1.71    0.19 
   4  -8  -4    1.53    0.17 
   4  -7  -4    0.04    0.07 
   4  -6  -4   10.12    0.50 
   4  -6  -4    9.22    0.45 
   4  -5  -4    8.39    0.44 
   4  -5  -4    8.57    0.41 
   4  -4  -4    3.51    0.22 
   4  -4  -4    3.31    0.20 
   4  -3  -4    1.12    0.12 
   4  -3  -4    1.04    0.11 
   4  -2  -4    1.64    0.14 
   4  -2  -4    1.61    0.13 
   4  -1  -4    0.08    0.05 
   4  -1  -4    0.07    0.05 
  -4   0   4   54.22    2.39 
   4   0  -4   56.70    2.52 
  -4  -1   4    0.05    0.04 
   4   1  -4   -0.10    0.08 
  -4  -2   4    1.70    0.12 
   4   2  -4    1.76    0.19 
  -4  -3   4    1.17    0.11 
  -4  -4   4    4.11    0.24 
  -4  -5   4    9.45    0.47 
  -4  -6   4   10.64    0.53 
  -4  -7   4    0.14    0.06 
  -4  -8   4    1.78    0.17 
  -4  -9   4    2.10    0.18 
  -4 -10   4    1.06    0.15 
  -4 -11   4    0.07    0.08 
  -4 -12   4    0.12    0.09 
  -4 -13   4    0.05    0.10 
  -4 -14   4   -0.01    0.16 
  -4 -14   4   -0.14    0.10 
  -4 -15   4    0.03    0.18 
  -4 -16   4    0.14    0.20 
  -4 -17   4   -0.12    0.21 
   4 -17  -3   -0.15    0.21 
   4 -16  -3    0.15    0.20 
   4 -15  -3    0.25    0.20 
   4 -14  -3    0.06    0.16 
   4 -13  -3    1.10    0.21 
   4 -12  -3    0.13    0.13 
   4 -11  -3    2.22    0.24 
   4 -10  -3    1.25    0.18 
   4  -9  -3    0.56    0.13 
   4  -8  -3    0.50    0.08 
   4  -8  -3    0.53    0.11 
   4  -7  -3    0.00    0.06 
   4  -6  -3    5.42    0.29 
   4  -6  -3    5.65    0.32 
   4  -5  -3    2.50    0.16 
   4  -5  -3    2.49    0.18 
   4  -4  -3    0.47    0.08 
   4  -4  -3    0.45    0.07 
   4  -3  -3    0.36    0.07 
   4  -3  -3    0.38    0.08 
   4  -2  -3    0.02    0.04 
   4  -2  -3    0.01    0.05 
   4  -1  -3   16.64    0.78 
   4  -1  -3   17.08    0.79 
   4   0  -3   -0.02    0.04 
   4   0  -3    0.00    0.05 
   4   1  -3   17.65    0.83 
   4   1  -3   17.30    0.86 
  -4  -2   3    0.06    0.03 
   4   2  -3    0.11    0.07 
  -4  -3   3    0.35    0.07 
  -4  -4   3    0.48    0.08 
  -4  -5   3    2.56    0.17 
  -4  -6   3    5.56    0.31 
  -4  -7   3   -0.01    0.04 
  -4  -8   3    0.64    0.11 
  -4  -9   3    0.65    0.11 
  -4 -10   3    1.22    0.15 
  -4 -11   3    2.10    0.20 
  -4 -12   3   -0.07    0.07 
  -4 -13   3    0.94    0.21 
  -4 -13   3    1.11    0.17 
  -4 -14   3    0.11    0.15 
  -4 -14   3    0.02    0.10 
  -4 -15   3   -0.11    0.17 
  -4 -16   3   -0.16    0.22 
  -4 -17   3   -0.07    0.26 
   4 -17  -2   -0.08    0.22 
   4 -16  -2    0.08    0.21 
   4 -15  -2    0.56    0.22 
   4 -14  -2    0.01    0.16 
   4 -13  -2    0.08    0.14 
   4 -12  -2    0.06    0.13 
   4 -11  -2    0.44    0.14 
   4 -10  -2    0.32    0.12 
   4  -9  -2    3.70    0.27 
   4  -9  -2    3.89    0.23 
   4  -8  -2    0.95    0.10 
   4  -8  -2    1.07    0.14 
   4  -7  -2    0.17    0.08 
   4  -7  -2    0.13    0.05 
   4  -6  -2    0.26    0.08 
   4  -6  -2    0.21    0.06 
   4  -5  -2   42.87    1.91 
   4  -5  -2   41.63    1.84 
   4  -4  -2    5.26    0.28 
   4  -4  -2    5.30    0.29 
   4  -3  -2   26.06    1.15 
   4  -3  -2   25.40    1.17 
   4  -2  -2    2.07    0.14 
   4  -2  -2    1.94    0.14 
   4  -1  -2    1.80    0.12 
   4  -1  -2    1.64    0.13 
   4   0  -2    2.23    0.16 
   4   0  -2    2.05    0.16 
   4   1  -2    1.92    0.16 
   4   1  -2    1.86    0.15 
   4   2  -2    2.19    0.18 
   4   2  -2    2.36    0.17 
   4   3  -2   27.23    1.25 
  -4  -4   2    5.29    0.28 
  -4  -5   2   44.12    1.94 
  -4  -6   2    0.31    0.07 
  -4  -7   2    0.13    0.05 
  -4  -8   2    1.22    0.13 
  -4  -9   2    3.94    0.25 
  -4 -10   2    0.55    0.10 
  -4 -11   2    0.48    0.11 
  -4 -12   2    0.09    0.08 
  -4 -12   2    0.06    0.12 
  -4 -13   2    0.21    0.14 
  -4 -13   2    0.20    0.10 
  -4 -14   2   -0.16    0.14 
  -4 -15   2    0.43    0.21 
  -4 -16   2    0.01    0.22 
  -4 -17   2   -0.07    0.26 
   4 -17  -1    0.10    0.23 
   4 -16  -1    0.02    0.20 
   4 -15  -1    0.16    0.19 
   4 -14  -1    0.09    0.16 
   4 -13  -1    0.54    0.17 
   4 -12  -1   -0.04    0.12 
   4 -11  -1    1.76    0.21 
   4 -10  -1    4.21    0.25 
   4 -10  -1    3.84    0.29 
   4  -9  -1    1.27    0.13 
   4  -9  -1    1.61    0.17 
   4  -8  -1    0.81    0.10 
   4  -8  -1    1.06    0.13 
   4  -7  -1    2.27    0.15 
   4  -7  -1    2.46    0.18 
   4  -6  -1    0.40    0.09 
   4  -6  -1    0.40    0.07 
   4  -5  -1   17.25    0.81 
   4  -5  -1   17.28    0.78 
   4  -4  -1    0.60    0.08 
   4  -4  -1    0.68    0.08 
   4  -3  -1    0.14    0.05 
   4  -3  -1    0.17    0.05 
   4  -2  -1   11.80    0.55 
   4  -2  -1   11.54    0.55 
   4  -1  -1    8.14    0.40 
   4  -1  -1    7.81    0.38 
   4   0  -1    0.03    0.04 
   4   1  -1    7.51    0.41 
   4   1  -1    8.35    0.42 
   4   2  -1   12.23    0.60 
   4   3  -1    0.14    0.06 
   4   4  -1    0.80    0.12 
  -4  -5   1   18.58    0.85 
  -4  -6   1    0.35    0.07 
  -4  -7   1    2.41    0.17 
  -4  -8   1    0.71    0.10 
  -4  -9   1    1.39    0.14 
  -4 -10   1    3.98    0.25 
  -4 -11   1    1.54    0.22 
  -4 -11   1    1.35    0.15 
  -4 -12   1    0.00    0.07 
  -4 -12   1    0.07    0.12 
  -4 -13   1    0.72    0.18 
  -4 -13   1    0.72    0.13 
  -4 -14   1   -0.16    0.13 
  -4 -15   1    0.07    0.17 
  -4 -16   1   -0.03    0.22 
  -4 -17   1    0.02    0.27 
   4 -17   0   -0.17    0.21 
   4 -16   0    0.28    0.22 
   4 -15   0   -0.09    0.18 
   4 -14   0   -0.18    0.15 
   4 -13   0   -0.02    0.13 
   4 -12   0    0.14    0.12 
   4 -11   0   -0.04    0.08 
   4 -11   0    0.15    0.11 
   4 -10   0    0.20    0.08 
   4 -10   0    0.23    0.11 
   4  -9   0    0.09    0.08 
   4  -9   0   -0.01    0.06 
   4  -8   0    0.08    0.07 
   4  -8   0    0.08    0.05 
   4  -7   0    0.01    0.05 
   4  -7   0    0.05    0.06 
   4  -6   0   30.94    1.35 
   4  -6   0   30.49    1.41 
   4  -5   0    0.05    0.06 
   4  -5   0    0.02    0.04 
   4  -4   0   20.78    0.94 
   4  -4   0   21.24    0.97 
   4  -3   0   -0.03    0.02 
   4  -3   0    0.00    0.04 
   4  -2   0    7.52    0.36 
   4  -2   0    7.77    0.37 
   4  -1   0    0.02    0.02 
   4  -1   0   -0.01    0.03 
  -4   0   0   45.80    2.02 
   4   0   0   45.79    2.00 
  -4  -1   0   -0.01    0.02 
   4   1   0   -0.03    0.03 
   4   1   0   -0.01    0.04 
   4   2   0    8.00    0.41 
   4   3   0   -0.02    0.04 
   4   4   0   21.55    1.00 
   4   5   0   -0.03    0.06 
  -4  -6   0   32.43    1.44 
  -4  -7   0   -0.02    0.04 
  -4  -8   0    0.09    0.05 
  -4  -9   0    0.01    0.04 
  -4 -10   0    0.29    0.08 
  -4 -10   0    0.23    0.12 
  -4 -11   0   -0.04    0.11 
  -4 -11   0   -0.05    0.06 
  -4 -12   0   -0.04    0.12 
  -4 -12   0    0.00    0.07 
  -4 -13   0   -0.05    0.12 
  -4 -14   0    0.09    0.14 
  -4 -15   0    0.14    0.17 
  -4 -16   0    0.10    0.23 
  -4 -17   0    0.01    0.26 
   4 -17   1   -0.24    0.21 
   4 -16   1    0.10    0.21 
   4 -15   1   -0.05    0.17 
   4 -14   1    0.19    0.15 
   4 -13   1    0.68    0.17 
   4 -12   1    0.13    0.12 
   4 -12   1    0.10    0.10 
   4 -11   1    1.71    0.21 
   4 -11   1    1.78    0.18 
   4 -10   1    4.23    0.30 
   4 -10   1    4.17    0.26 
   4  -9   1    1.39    0.17 
   4  -9   1    1.56    0.15 
   4  -8   1    0.80    0.10 
   4  -8   1    0.79    0.12 
   4  -7   1    2.42    0.18 
   4  -7   1    2.65    0.17 
   4  -6   1    0.26    0.08 
   4  -6   1    0.34    0.07 
   4  -5   1   18.08    0.80 
   4  -5   1   17.24    0.82 
   4  -4   1    0.67    0.08 
   4  -4   1    0.79    0.08 
   4  -3   1    0.20    0.04 
   4  -3   1    0.10    0.04 
   4  -2   1    7.16    0.34 
  -4   1  -1    7.52    0.39 
   4  -1   1    8.10    0.37 
   4  -1   1    8.05    0.39 
  -4   0  -1    0.04    0.04 
   4   0   1    0.01    0.03 
   4   0   1   -0.01    0.03 
  -4  -1  -1    8.14    0.39 
   4   1   1    8.33    0.41 
   4   2   1   11.54    0.56 
   4   3   1    0.21    0.06 
   4   4   1    0.58    0.10 
   4   5   1   11.25    0.57 
   4   6   1   -0.02    0.05 
  -4  -7  -1    2.77    0.18 
  -4  -8  -1    0.70    0.10 
  -4  -8  -1    0.63    0.13 
  -4  -9  -1    1.26    0.13 
  -4  -9  -1    1.52    0.18 
  -4 -10  -1    3.65    0.29 
  -4 -10  -1    4.14    0.24 
  -4 -11  -1    1.59    0.15 
  -4 -11  -1    1.25    0.20 
  -4 -12  -1    0.12    0.13 
  -4 -13  -1    0.68    0.18 
  -4 -14  -1   -0.09    0.13 
  -4 -15  -1   -0.23    0.16 
  -4 -16  -1   -0.04    0.20 
  -4 -17  -1    0.24    0.28 
   4 -17   2    0.01    0.24 
   4 -16   2    0.01    0.20 
   4 -15   2    0.96    0.23 
   4 -14   2    0.12    0.16 
   4 -13   2   -0.02    0.12 
   4 -12   2    0.14    0.12 
   4 -12   2    0.02    0.10 
   4 -11   2    0.39    0.11 
   4 -11   2    0.28    0.13 
   4 -10   2    0.32    0.12 
   4 -10   2    0.42    0.10 
   4  -9   2    4.07    0.28 
   4  -9   2    4.26    0.26 
   4  -8   2    1.18    0.13 
   4  -8   2    1.31    0.15 
   4  -7   2    0.15    0.07 
   4  -7   2    0.06    0.05 
   4  -6   2    0.20    0.06 
   4  -6   2    0.34    0.07 
   4  -5   2   44.52    1.90 
   4  -5   2   42.52    1.96 
   4  -4   2    5.37    0.28 
   4  -4   2    5.19    0.27 
   4  -3   2   15.46    0.71 
   4  -2   2    2.27    0.14 
   4  -2   2    2.16    0.12 
  -4   1  -2    1.74    0.13 
   4  -1   2    1.58    0.12 
  -4   0  -2    2.19    0.14 
   4   0   2    1.99    0.14 
  -4  -1  -2    1.99    0.13 
   4   1   2    1.69    0.13 
  -4  -2  -2    2.35    0.14 
   4   2   2    2.01    0.15 
   4   3   2   24.18    1.10 
   4   4   2    0.41    0.07 
   4   5   2   37.20    1.66 
  -4  -6  -2    0.19    0.08 
   4   6   2    0.12    0.07 
  -4  -7  -2    0.10    0.05 
  -4  -7  -2    0.08    0.08 
  -4  -8  -2    0.96    0.14 
  -4  -8  -2    1.06    0.11 
  -4  -9  -2    4.18    0.24 
  -4  -9  -2    3.67    0.28 
  -4 -10  -2    0.34    0.12 
  -4 -10  -2    0.27    0.07 
  -4 -11  -2    0.19    0.12 
  -4 -12  -2    0.03    0.12 
  -4 -13  -2    0.01    0.13 
  -4 -14  -2   -0.01    0.13 
  -4 -15  -2    0.36    0.20 
  -4 -16  -2    0.09    0.22 
  -4 -17  -2   -0.26    0.27 
   4 -17   3   -0.08    0.21 
   4 -16   3    0.19    0.21 
   4 -15   3    0.07    0.18 
   4 -14   3    0.06    0.14 
   4 -13   3    1.34    0.19 
   4 -13   3    1.11    0.21 
   4 -12   3    0.11    0.10 
   4 -12   3   -0.03    0.12 
   4 -11   3    2.31    0.24 
   4 -11   3    2.50    0.20 
   4 -10   3    1.37    0.18 
   4 -10   3    1.27    0.15 
   4  -9   3    1.07    0.16 
   4  -9   3    0.83    0.12 
   4  -8   3    0.48    0.11 
   4  -8   3    0.56    0.10 
   4  -7   3    0.01    0.05 
   4  -7   3   -0.05    0.05 
   4  -6   3    5.96    0.32 
   4  -6   3    5.63    0.31 
   4  -5   3    2.44    0.17 
   4  -5   3    2.57    0.17 
   4  -4   3    0.41    0.07 
   4  -3   3    0.83    0.06 
   4  -3   3    0.48    0.08 
  -4   2  -3    0.01    0.06 
   4  -2   3    0.05    0.04 
   4  -2   3    0.04    0.02 
  -4   1  -3   18.06    0.87 
   4  -1   3   18.58    0.83 
  -4   0  -3   -0.01    0.05 
   4   0   3   -0.02    0.03 
  -4  -1  -3   18.46    0.87 
   4   1   3   19.14    0.85 
  -4  -2  -3   -0.02    0.04 
  -4  -2  -3    0.02    0.03 
   4   2   3   -0.01    0.03 
  -4  -3  -3    0.43    0.07 
  -4  -3  -3    0.39    0.05 
   4   3   3    0.20    0.06 
  -4  -4  -3    0.48    0.07 
   4   4   3    0.55    0.09 
  -4  -5  -3    2.53    0.17 
   4   5   3    2.53    0.19 
  -4  -6  -3    5.45    0.31 
   4   6   3    5.76    0.33 
  -4  -7  -3   -0.09    0.06 
   4   7   3   -0.03    0.06 
  -4  -8  -3    0.63    0.09 
  -4  -8  -3    0.74    0.13 
  -4  -9  -3    0.71    0.14 
  -4  -9  -3    0.71    0.09 
  -4 -10  -3    1.21    0.12 
  -4 -10  -3    1.37    0.18 
  -4 -11  -3    2.12    0.24 
  -4 -12  -3   -0.03    0.12 
  -4 -13  -3    0.92    0.19 
  -4 -14  -3   -0.08    0.14 
  -4 -15  -3    0.14    0.18 
  -4 -16  -3    0.06    0.22 
  -4 -17  -3   -0.02    0.29 
   4 -17   4   -0.11    0.22 
   4 -16   4   -0.13    0.19 
   4 -15   4    0.13    0.19 
   4 -14   4   -0.09    0.15 
   4 -14   4    0.01    0.12 
   4 -13   4    0.09    0.11 
   4 -13   4    0.21    0.15 
   4 -12   4   -0.10    0.12 
   4 -12   4    0.07    0.10 
   4 -11   4    0.13    0.12 
   4 -11   4    0.15    0.09 
   4 -10   4    1.05    0.15 
   4 -10   4    1.38    0.18 
   4  -9   4    2.09    0.20 
   4  -9   4    2.42    0.22 
   4  -8   4    1.69    0.17 
   4  -8   4    1.88    0.18 
   4  -7   4    0.11    0.06 
   4  -7   4    0.18    0.08 
   4  -6   4   11.33    0.56 
   4  -6   4   11.07    0.55 
   4  -5   4    6.87    0.40 
   4  -5   4    9.75    0.42 
   4  -4   4    4.16    0.23 
   4  -4   4    4.21    0.24 
   4  -3   4    1.12    0.08 
   4  -3   4    1.27    0.12 
  -4   2  -4    1.54    0.17 
   4  -2   4    1.82    0.13 
  -4   1  -4   -0.01    0.07 
   4  -1   4    0.08    0.05 
  -4   0  -4   63.38    2.83 
   4   0   4   63.76    2.75 
  -4  -1  -4    0.13    0.06 
   4   1   4    0.05    0.04 
  -4  -2  -4    1.80    0.13 
  -4  -2  -4    1.29    0.09 
   4   2   4    1.53    0.12 
  -4  -3  -4    0.94    0.08 
  -4  -3  -4    0.99    0.11 
  -4  -4  -4    3.98    0.22 
   4   4   4    3.83    0.23 
  -4  -5  -4    9.09    0.45 
   4   5   4    8.84    0.46 
  -4  -6  -4   10.79    0.54 
   4   6   4   10.59    0.54 
  -4  -7  -4    0.12    0.07 
   4   7   4    0.29    0.08 
  -4  -8  -4    1.47    0.12 
  -4  -8  -4    1.56    0.17 
  -4  -9  -4    2.11    0.20 
  -4  -9  -4    2.06    0.16 
  -4 -10  -4    1.45    0.19 
  -4 -11  -4    0.11    0.12 
  -4 -12  -4   -0.06    0.12 
  -4 -13  -4   -0.07    0.13 
  -4 -14  -4    0.23    0.16 
  -4 -15  -4    0.04    0.18 
  -4 -16  -4   -0.12    0.23 
  -4 -17  -4   -0.09    0.29 
   4 -16   5    0.06    0.20 
   4 -15   5    0.07    0.19 
   4 -14   5    0.10    0.16 
   4 -14   5    0.05    0.12 
   4 -13   5    0.30    0.15 
   4 -13   5    0.25    0.12 
   4 -12   5    0.43    0.15 
   4 -12   5    0.47    0.13 
   4 -11   5    0.60    0.15 
   4 -11   5    0.42    0.12 
   4 -10   5    1.01    0.16 
   4 -10   5    0.98    0.17 
   4  -9   5    0.61    0.12 
   4  -9   5    0.97    0.15 
   4  -8   5    0.82    0.13 
   4  -8   5    0.94    0.13 
   4  -7   5    0.64    0.11 
   4  -7   5    0.39    0.09 
   4  -6   5    1.86    0.15 
   4  -6   5    1.65    0.16 
   4  -5   5    2.66    0.18 
   4  -4   5    0.70    0.10 
   4  -3   5    0.00    0.04 
  -4   2  -5   15.10    0.80 
   4  -2   5   16.97    0.75 
  -4   1  -5    1.27    0.15 
   4  -1   5    1.38    0.13 
  -4   0  -5   -0.07    0.05 
   4   0   5   -0.03    0.04 
  -4  -1  -5    1.27    0.13 
   4   1   5    1.27    0.12 
  -4  -2  -5   17.22    0.81 
   4   2   5   16.65    0.78 
  -4  -3  -5    0.03    0.07 
  -4  -3  -5    0.05    0.04 
   4   3   5   -0.03    0.04 
  -4  -4  -5    0.48    0.08 
  -4  -4  -5    0.77    0.11 
   4   4   5    0.70    0.10 
  -4  -5  -5    5.34    0.29 
   4   5   5    5.40    0.30 
  -4  -6  -5    1.64    0.15 
   4   6   5    1.65    0.16 
  -4  -7  -5    0.59    0.11 
   4   7   5    0.65    0.11 
  -4  -8  -5    0.64    0.13 
   4   8   5    1.01    0.13 
  -4  -9  -5    0.87    0.14 
  -4 -10  -5    1.00    0.16 
  -4 -11  -5    0.58    0.15 
  -4 -12  -5    0.24    0.14 
  -4 -13  -5    0.20    0.15 
  -4 -14  -5   -0.01    0.14 
  -4 -15  -5    0.16    0.20 
  -4 -16  -5    0.13    0.25 
   4 -16   6   -0.07    0.21 
   4 -15   6    0.36    0.21 
   4 -15   6    0.02    0.16 
   4 -14   6    0.40    0.19 
   4 -14   6    0.33    0.14 
   4 -13   6    0.00    0.10 
   4 -13   6    0.19    0.15 
   4 -12   6    0.06    0.12 
   4 -12   6    0.05    0.10 
   4 -11   6    0.04    0.09 
   4 -11   6    0.04    0.11 
   4 -10   6    0.03    0.08 
   4 -10   6    0.15    0.11 
   4  -9   6    2.85    0.24 
   4  -9   6    2.64    0.22 
   4  -8   6    0.13    0.08 
   4  -8   6    0.13    0.07 
   4  -7   6    0.28    0.09 
   4  -7   6    0.11    0.07 
   4  -6   6    0.04    0.06 
   4  -5   6   14.83    0.71 
   4  -4   6    5.47    0.31 
  -4   3  -6    0.13    0.09 
   4  -3   6    0.09    0.05 
  -4   2  -6   -0.08    0.07 
   4  -2   6    0.00    0.05 
  -4   1  -6    5.47    0.35 
   4  -1   6    5.86    0.31 
  -4   0  -6    0.11    0.09 
   4   0   6    0.17    0.06 
  -4  -1  -6    5.85    0.35 
   4   1   6    6.46    0.33 
  -4  -2  -6   -0.07    0.06 
   4   2   6   -0.02    0.05 
  -4  -3  -6    0.04    0.07 
  -4  -3  -6    0.10    0.05 
   4   3   6    0.11    0.06 
  -4  -4  -6    6.31    0.36 
  -4  -4  -6    5.90    0.31 
   4   4   6    6.00    0.33 
  -4  -5  -6   13.99    0.67 
  -4  -5  -6   14.45    0.71 
   4   5   6   13.58    0.66 
  -4  -6  -6   -0.07    0.06 
  -4  -6  -6    0.07    0.08 
   4   6   6   -0.08    0.05 
  -4  -7  -6    0.13    0.09 
   4   7   6    0.35    0.09 
  -4  -8  -6    0.05    0.09 
  -4  -9  -6    2.84    0.23 
  -4 -10  -6    0.04    0.11 
  -4 -11  -6    0.13    0.12 
  -4 -12  -6    0.01    0.13 
  -4 -13  -6   -0.09    0.14 
  -4 -14  -6    0.05    0.17 
  -4 -15  -6    0.02    0.20 
  -4 -16  -6    0.02    0.25 
   4 -16   7   -0.02    0.23 
   4 -15   7    0.27    0.22 
   4 -15   7    0.03    0.15 
   4 -14   7    0.23    0.13 
   4 -14   7    0.24    0.19 
   4 -13   7    0.76    0.19 
   4 -13   7    0.70    0.16 
   4 -12   7    0.36    0.12 
   4 -12   7    0.62    0.17 
   4 -11   7    1.32    0.19 
   4 -11   7    1.65    0.21 
   4 -10   7    0.10    0.12 
   4 -10   7    0.06    0.08 
   4  -9   7    0.40    0.13 
   4  -9   7    0.23    0.10 
   4  -8   7    0.30    0.10 
   4  -8   7    0.49    0.11 
   4  -7   7    2.88    0.22 
   4  -6   7    0.43    0.10 
   4  -5   7    0.24    0.08 
   4  -4   7    0.23    0.07 
  -4   3  -7    0.31    0.12 
   4  -3   7    0.52    0.09 
  -4   2  -7    4.11    0.31 
   4  -2   7    4.41    0.26 
  -4   1  -7    5.86    0.37 
   4  -1   7    5.57    0.31 
  -4   0  -7   -0.10    0.08 
   4   0   7    0.02    0.05 
  -4  -1  -7    5.30    0.34 
   4   1   7    6.24    0.32 
  -4  -2  -7    3.80    0.27 
  -4  -2  -7    4.33    0.23 
   4   2   7    4.33    0.25 
  -4  -3  -7    0.33    0.07 
  -4  -3  -7    0.31    0.10 
   4   3   7    0.63    0.10 
  -4  -4  -7    0.21    0.07 
  -4  -4  -7    0.05    0.08 
   4   4   7    0.05    0.07 
  -4  -5  -7    0.27    0.09 
  -4  -5  -7    0.25    0.10 
   4   5   7    0.41    0.09 
  -4  -6  -7    0.68    0.12 
  -4  -6  -7    0.40    0.10 
   4   6   7    0.69    0.11 
  -4  -7  -7    2.80    0.21 
  -4  -7  -7    2.72    0.23 
  -4  -8  -7    0.54    0.13 
  -4  -9  -7    0.11    0.11 
  -4 -10  -7    0.19    0.12 
  -4 -11  -7    1.14    0.19 
  -4 -12  -7    0.26    0.15 
  -4 -13  -7    0.48    0.18 
  -4 -14  -7   -0.01    0.17 
  -4 -15  -7    0.02    0.22 
  -4 -16  -7   -0.22    0.27 
   4 -15   8    0.24    0.21 
   4 -15   8    0.26    0.18 
   4 -14   8   -0.06    0.13 
   4 -14   8    0.19    0.18 
   4 -13   8    0.18    0.16 
   4 -13   8    0.22    0.12 
   4 -12   8   -0.04    0.12 
   4 -12   8    0.07    0.10 
   4 -11   8    0.16    0.11 
   4 -11   8    0.08    0.12 
   4 -10   8    0.12    0.09 
   4 -10   8    0.07    0.11 
   4  -9   8    3.08    0.25 
   4  -9   8    3.02    0.26 
   4  -8   8    0.65    0.13 
   4  -7   8    0.10    0.07 
   4  -6   8    1.99    0.19 
   4  -5   8    7.23    0.40 
   4  -4   8    0.05    0.06 
  -4   3  -8    0.96    0.18 
   4  -3   8    1.04    0.13 
  -4   2  -8    1.95    0.23 
   4  -2   8    1.81    0.17 
  -4   1  -8    0.80    0.17 
   4  -1   8    0.87    0.12 
  -4   0  -8   11.96    0.66 
   4   0   8   13.04    0.62 
  -4  -1  -8    0.84    0.15 
   4   1   8    0.99    0.13 
  -4  -2  -8    1.76    0.14 
  -4  -2  -8    1.94    0.20 
   4   2   8    2.03    0.18 
  -4  -3  -8    1.11    0.11 
  -4  -3  -8    1.32    0.16 
   4   3   8    1.08    0.13 
  -4  -4  -8    0.13    0.07 
  -4  -4  -8   -0.02    0.08 
   4   4   8    0.14    0.07 
  -4  -5  -8    6.65    0.42 
  -4  -5  -8    7.70    0.39 
   4   5   8    6.98    0.38 
  -4  -6  -8    2.22    0.23 
  -4  -6  -8    2.34    0.19 
   4   6   8    2.07    0.17 
  -4  -7  -8   -0.05    0.09 
  -4  -7  -8    0.09    0.10 
  -4  -8  -8    1.04    0.18 
  -4  -8  -8    0.70    0.14 
  -4  -9  -8    2.85    0.23 
  -4  -9  -8    2.28    0.27 
  -4 -10  -8    0.08    0.12 
  -4 -11  -8    0.12    0.13 
  -4 -12  -8    0.02    0.15 
  -4 -13  -8   -0.20    0.14 
  -4 -14  -8   -0.22    0.17 
  -4 -15  -8    0.04    0.23 
   4 -15   9   -0.01    0.19 
   4 -15   9   -0.13    0.22 
   4 -14   9    0.00    0.19 
   4 -14   9    0.07    0.15 
   4 -13   9    0.03    0.13 
   4 -13   9    0.01    0.16 
   4 -12   9    0.06    0.14 
   4 -12   9    0.05    0.11 
   4 -11   9    0.06    0.11 
   4 -11   9   -0.12    0.13 
   4 -10   9   -0.09    0.09 
   4 -10   9    0.08    0.12 
   4  -9   9    0.08    0.08 
   4  -9   9    0.03    0.11 
   4  -8   9    0.03    0.07 
   4  -7   9   -0.02    0.06 
   4  -6   9    0.00    0.06 
   4  -5   9    0.34    0.10 
   4  -4   9    0.41    0.10 
  -4   3  -9    0.11    0.11 
   4  -3   9    0.17    0.07 
  -4   2  -9    0.89    0.18 
   4  -2   9    0.95    0.13 
  -4   1  -9    0.19    0.11 
   4  -1   9    0.15    0.08 
  -4   0  -9   -0.06    0.09 
   4   0   9   -0.05    0.05 
  -4  -1  -9    0.21    0.09 
  -4  -1  -9    0.08    0.10 
   4   1   9    0.14    0.07 
  -4  -2  -9    0.75    0.14 
  -4  -2  -9    0.91    0.13 
   4   2   9    1.10    0.14 
  -4  -3  -9    0.25    0.08 
  -4  -3  -9    0.14    0.11 
   4   3   9    0.29    0.09 
  -4  -4  -9    0.38    0.13 
  -4  -4  -9    0.47    0.10 
   4   4   9    0.61    0.11 
  -4  -5  -9    0.20    0.11 
  -4  -5  -9    0.13    0.09 
   4   5   9    0.20    0.09 
  -4  -6  -9   -0.03    0.09 
  -4  -6  -9    0.11    0.11 
  -4  -7  -9    0.08    0.10 
  -4  -7  -9    0.00    0.10 
  -4  -8  -9    0.18    0.11 
  -4  -8  -9    0.04    0.11 
  -4  -9  -9    0.04    0.12 
  -4  -9  -9   -0.16    0.10 
  -4 -10  -9   -0.15    0.10 
  -4 -10  -9    0.11    0.12 
  -4 -11  -9   -0.04    0.14 
  -4 -11  -9   -0.01    0.12 
  -4 -12  -9   -0.25    0.13 
  -4 -13  -9   -0.09    0.15 
  -4 -14  -9   -0.05    0.19 
  -4 -15  -9   -0.25    0.24 
   4 -14  10    0.10    0.18 
   4 -14  10    0.27    0.22 
   4 -13  10    0.16    0.18 
   4 -13  10    0.05    0.14 
   4 -12  10   -0.07    0.15 
   4 -12  10   -0.05    0.12 
   4 -11  10    0.04    0.14 
   4 -11  10    0.08    0.11 
   4 -10  10   -0.12    0.12 
   4 -10  10    0.03    0.09 
   4  -9  10    0.24    0.11 
   4  -8  10   -0.05    0.07 
   4  -7  10   -0.06    0.07 
   4  -6  10    0.13    0.08 
   4  -5  10    1.59    0.18 
   4  -4  10    1.18    0.16 
  -4   3 -10   -0.01    0.10 
   4  -3  10    0.16    0.07 
  -4   2 -10    0.11    0.10 
   4  -2  10    0.06    0.07 
  -4   1 -10    1.35    0.21 
   4  -1  10    1.34    0.16 
  -4   0 -10    0.22    0.11 
  -4   0 -10    0.21    0.12 
   4   0  10    0.46    0.11 
  -4  -1 -10    1.69    0.21 
  -4  -1 -10    1.72    0.19 
   4   1  10    1.79    0.18 
  -4  -2 -10    0.21    0.11 
  -4  -2 -10   -0.17    0.08 
   4   2  10    0.14    0.08 
  -4  -3 -10    0.12    0.10 
  -4  -3 -10   -0.07    0.09 
   4   3  10    0.00    0.08 
  -4  -4 -10    1.30    0.19 
  -4  -4 -10    1.41    0.16 
   4   4  10    1.71    0.18 
  -4  -5 -10    1.51    0.17 
  -4  -5 -10    1.79    0.22 
   4   5  10    1.89    0.18 
  -4  -6 -10    0.28    0.11 
  -4  -6 -10   -0.04    0.10 
  -4  -7 -10   -0.03    0.11 
  -4  -7 -10   -0.02    0.10 
  -4  -8 -10    0.04    0.12 
  -4  -8 -10    0.12    0.11 
  -4  -9 -10    0.29    0.15 
  -4  -9 -10    0.17    0.13 
  -4 -10 -10    0.07    0.13 
  -4 -10 -10   -0.06    0.13 
  -4 -11 -10    0.03    0.15 
  -4 -11 -10    0.07    0.14 
  -4 -12 -10   -0.25    0.14 
  -4 -12 -10   -0.13    0.16 
  -4 -13 -10    0.10    0.17 
  -4 -13 -10   -0.03    0.17 
  -4 -14 -10   -0.18    0.19 
  -4 -14 -10   -0.19    0.21 
   4 -14  11    0.09    0.22 
   4 -13  11    0.29    0.18 
   4 -12  11    0.23    0.17 
   4 -11  11    0.21    0.14 
   4 -10  11    0.01    0.10 
   4  -9  11    0.35    0.12 
   4  -8  11    0.21    0.10 
   4  -7  11    1.25    0.19 
   4  -6  11    0.35    0.11 
   4  -5  11    0.00    0.07 
   4  -4  11    0.02    0.07 
  -4   3 -11    0.69    0.18 
   4  -3  11    0.77    0.13 
  -4   2 -11    0.58    0.17 
   4  -2  11    0.87    0.14 
  -4   1 -11    3.62    0.33 
   4  -1  11    3.11    0.23 
  -4   0 -11   -0.08    0.10 
   4   0  11    0.06    0.08 
  -4  -1 -11    3.54    0.30 
   4   1  11    3.77    0.26 
  -4  -2 -11    1.23    0.20 
   4   2  11    0.97    0.15 
  -4  -3 -11    0.78    0.17 
   4   3  11    1.20    0.16 
  -4  -4 -11    0.00    0.11 
   4   4  11    0.18    0.11 
  -4  -5 -11   -0.02    0.11 
  -4  -5 -11    0.12    0.12 
  -4  -6 -11    0.32    0.12 
  -4  -6 -11    0.13    0.13 
  -4  -7 -11    1.30    0.22 
  -4  -7 -11    1.11    0.17 
  -4  -8 -11    0.34    0.16 
  -4  -8 -11    0.26    0.14 
  -4  -9 -11    0.25    0.16 
  -4 -10 -11    0.20    0.18 
  -4 -11 -11    0.20    0.19 
  -4 -12 -11   -0.03    0.16 
  -4 -13 -11    0.23    0.20 
  -4 -14 -11   -0.32    0.18 
   4 -13  12   -0.05    0.20 
   4 -12  12    0.11    0.17 
   4 -11  12    0.35    0.17 
   4 -10  12   -0.06    0.11 
   4  -9  12    0.74    0.17 
   4  -8  12    0.36    0.13 
   4  -7  12    0.24    0.10 
   4  -6  12    0.17    0.10 
   4  -5  12    1.58    0.20 
   4  -4  12    0.25    0.09 
  -4   3 -12   -0.09    0.13 
   4  -3  12    0.16    0.09 
  -4   2 -12    0.73    0.19 
   4  -2  12    0.69    0.13 
  -4   1 -12    1.29    0.24 
   4  -1  12    1.74    0.19 
  -4   0 -12    2.99    0.31 
   4   0  12    2.65    0.22 
  -4  -1 -12    2.00    0.26 
   4   1  12    1.98    0.21 
  -4  -2 -12    0.48    0.16 
   4   2  12    0.60    0.14 
  -4  -3 -12   -0.02    0.11 
   4   3  12    0.17    0.11 
  -4  -4 -12    0.06    0.13 
  -4  -5 -12    1.39    0.23 
  -4  -6 -12    0.13    0.15 
  -4  -7 -12    0.13    0.15 
  -4  -8 -12    0.41    0.17 
  -4  -9 -12    0.76    0.22 
  -4 -10 -12    0.06    0.17 
  -4 -11 -12    0.21    0.20 
  -4 -12 -12    0.15    0.21 
  -4 -13 -12   -0.27    0.19 
   4 -12  13    0.06    0.20 
   4 -11  13    0.20    0.17 
   4 -10  13    0.05    0.15 
   4  -9  13    0.17    0.14 
   4  -8  13    0.03    0.11 
   4  -7  13    0.06    0.10 
   4  -6  13   -0.02    0.09 
   4  -5  13    0.17    0.09 
   4  -4  13    0.29    0.10 
  -4   3 -13    0.41    0.17 
   4  -3  13    0.48    0.13 
  -4   2 -13   -0.05    0.11 
   4  -2  13    0.13    0.09 
  -4   1 -13    0.28    0.16 
   4  -1  13    0.48    0.12 
  -4   0 -13    0.07    0.13 
   4   0  13    0.21    0.09 
  -4  -1 -13    0.26    0.15 
   4   1  13    0.33    0.11 
  -4  -2 -13    0.14    0.15 
   4   2  13    0.10    0.10 
  -4  -3 -13    0.40    0.16 
   4   3  13    0.66    0.15 
  -4  -4 -13    0.27    0.15 
  -4  -5 -13    0.10    0.14 
  -4  -6 -13   -0.23    0.13 
  -4  -7 -13   -0.06    0.16 
  -4  -8 -13   -0.07    0.17 
  -4  -9 -13    0.11    0.18 
  -4 -10 -13   -0.12    0.19 
  -4 -11 -13   -0.09    0.19 
  -4 -12 -13   -0.22    0.19 
   4 -11  14   -0.09    0.19 
   4 -10  14   -0.04    0.17 
   4  -9  14   -0.07    0.12 
   4  -8  14    0.11    0.12 
   4  -7  14    0.14    0.13 
   4  -6  14    0.10    0.11 
   4  -5  14   -0.01    0.09 
   4  -4  14    0.12    0.10 
  -4   3 -14   -0.04    0.15 
   4  -3  14    0.29    0.11 
  -4   2 -14   -0.11    0.15 
   4  -2  14    0.04    0.09 
  -4   1 -14    1.12    0.24 
   4  -1  14    0.76    0.15 
  -4   0 -14    0.43    0.17 
   4   0  14    0.54    0.13 
  -4  -1 -14    0.63    0.19 
   4   1  14    1.12    0.17 
  -4  -2 -14   -0.16    0.13 
   4   2  14    0.07    0.10 
  -4  -3 -14   -0.01    0.14 
  -4  -4 -14    0.02    0.15 
  -4  -5 -14   -0.13    0.14 
  -4  -6 -14    0.21    0.20 
  -4  -7 -14   -0.22    0.17 
  -4  -8 -14   -0.18    0.18 
  -4  -9 -14   -0.18    0.18 
  -4 -10 -14    0.05    0.22 
  -4 -11 -14    0.09    0.22 
   4 -10  15    0.10    0.19 
   4  -9  15    0.26    0.16 
   4  -8  15    0.15    0.14 
   4  -7  15    0.18    0.14 
   4  -6  15    0.16    0.13 
   4  -5  15    0.03    0.10 
   4  -4  15    0.37    0.13 
  -4   3 -15    0.25    0.19 
   4  -3  15    0.39    0.13 
  -4   2 -15   -0.09    0.15 
   4  -2  15    0.19    0.11 
  -4   1 -15    0.48    0.20 
   4  -1  15    0.61    0.15 
  -4   0 -15   -0.09    0.14 
   4   0  15   -0.04    0.11 
  -4  -1 -15    0.56    0.20 
   4   1  15    0.62    0.16 
  -4  -2 -15    0.19    0.17 
  -4  -3 -15    0.50    0.21 
  -4  -4 -15    0.21    0.18 
  -4  -5 -15   -0.12    0.17 
  -4  -6 -15    0.01    0.20 
  -4  -7 -15    0.05    0.21 
  -4  -8 -15    0.12    0.22 
  -4  -9 -15   -0.07    0.23 
  -4 -10 -15   -0.18    0.23 
   4  -9  16    0.16    0.18 
   4  -8  16    0.16    0.16 
   4  -7  16    0.13    0.15 
   4  -6  16   -0.01    0.13 
   4  -5  16    0.60    0.17 
   4  -4  16   -0.03    0.12 
   4  -3  16    0.03    0.12 
  -4   2 -16    0.05    0.20 
   4  -2  16    0.11    0.12 
  -4   1 -16    0.58    0.24 
   4  -1  16    0.60    0.16 
  -4   0 -16    0.40    0.22 
   4   0  16    0.54    0.15 
  -4  -1 -16    0.43    0.21 
  -4  -2 -16    0.31    0.21 
  -4  -3 -16    0.01    0.19 
  -4  -4 -16    0.26    0.21 
  -4  -5 -16    0.17    0.22 
  -4  -6 -16    0.08    0.21 
  -4  -7 -16    0.00    0.23 
  -4  -8 -16   -0.11    0.22 
  -4  -9 -16    0.39    0.26 
   4  -7  17    0.02    0.15 
   4  -6  17    0.04    0.15 
   4  -5  17   -0.03    0.13 
   4  -4  17    0.22    0.16 
   4  -3  17    0.56    0.17 
  -4   2 -17    0.12    0.20 
   4  -2  17   -0.18    0.12 
  -4   1 -17    0.10    0.22 
   4  -1  17    0.14    0.14 
  -4   0 -17   -0.10    0.20 
   4   0  17    0.13    0.16 
  -4  -1 -17   -0.15    0.19 
  -4  -2 -17    0.16    0.21 
  -4  -3 -17    0.60    0.24 
  -4  -4 -17    0.10    0.23 
  -4  -5 -17   -0.16    0.22 
  -4  -6 -17   -0.08    0.23 
  -4  -7 -17    0.00    0.24 
   4  -5  18    0.09    0.18 
   4  -4  18   -0.04    0.16 
   4  -3  18    0.11    0.16 
  -4   2 -18    0.12    0.24 
   4  -2  18    0.20    0.17 
  -4   1 -18    0.06    0.24 
   4  -1  18    0.46    0.20 
  -4   0 -18   -0.12    0.20 
  -4  -1 -18   -0.02    0.22 
  -4  -2 -18   -0.06    0.24 
  -4  -3 -18   -0.05    0.24 
  -4  -4 -18   -0.12    0.23 
  -4  -5 -18    0.03    0.25 
   5  -4 -18    0.20    0.40 
   5  -3 -18    0.30    0.37 
   5  -2 -18   -0.25    0.30 
   5  -1 -18   -0.14    0.31 
   5   0 -18    0.09    0.33 
   5   1 -18    0.21    0.35 
  -5  -2  18   -0.05    0.14 
   5   2 -18    0.32    0.37 
  -5  -3  18    0.60    0.15 
  -5  -4  18    0.59    0.15 
   5  -7 -17    0.04    0.37 
   5  -6 -17    0.04    0.34 
   5  -5 -17    0.24    0.30 
   5  -4 -17    0.02    0.26 
   5  -3 -17   -0.12    0.25 
   5  -2 -17    0.47    0.27 
   5  -1 -17    0.30    0.25 
   5   0 -17    0.12    0.23 
  -5  -1  17    0.46    0.16 
   5   1 -17    0.50    0.26 
  -5  -2  17    0.20    0.11 
   5   2 -17    0.01    0.24 
  -5  -3  17    0.16    0.12 
  -5  -4  17    0.37    0.12 
  -5  -5  17    0.37    0.13 
  -5  -6  17    0.38    0.14 
  -5  -7  17    0.45    0.14 
   5  -9 -16    0.14    0.36 
   5  -8 -16    0.16    0.30 
   5  -7 -16    0.09    0.28 
   5  -6 -16    0.22    0.25 
   5  -5 -16    0.21    0.23 
   5  -4 -16    0.62    0.24 
   5  -3 -16    0.34    0.22 
   5  -2 -16    0.04    0.19 
   5  -1 -16   -0.12    0.18 
   5   0 -16    0.24    0.22 
  -5  -1  16    0.39    0.11 
   5   1 -16    0.29    0.22 
  -5  -2  16   -0.07    0.17 
   5   2 -16    0.22    0.21 
  -5  -7  16   -0.12    0.18 
  -5  -8  16    0.38    0.14 
   5 -10 -15    0.14    0.32 
   5  -9 -15    0.21    0.28 
   5  -8 -15   -0.12    0.22 
   5  -7 -15    0.57    0.24 
   5  -6 -15    0.21    0.22 
   5  -5 -15    0.33    0.20 
   5  -4 -15   -0.03    0.19 
   5  -3 -15    0.15    0.19 
   5  -2 -15    0.17    0.18 
   5  -1 -15    0.40    0.19 
  -5   0  15   -0.31    0.22 
   5   0 -15   -0.01    0.16 
   5   1 -15    0.86    0.24 
  -5  -2  15   -0.06    0.16 
   5   2 -15    0.16    0.19 
  -5  -3  15   -0.02    0.11 
  -5  -3  15   -0.38    0.22 
   5   3 -15    0.04    0.19 
  -5  -4  15    0.10    0.11 
  -5  -4  15   -0.40    0.22 
  -5  -5  15   -0.01    0.13 
  -5  -6  15   -0.19    0.20 
  -5 -10  15    0.32    0.16 
   5 -11 -14    0.50    0.31 
   5 -10 -14    0.11    0.25 
   5  -9 -14    0.51    0.24 
   5  -8 -14    0.04    0.19 
   5  -7 -14   -0.05    0.18 
   5  -6 -14    0.41    0.19 
   5  -5 -14    1.21    0.25 
   5  -4 -14   -0.09    0.15 
   5  -3 -14   -0.10    0.14 
   5  -2 -14   -0.09    0.14 
   5  -1 -14    0.31    0.19 
  -5   0  14   -0.29    0.16 
  -5   0  14    0.20    0.08 
   5   0 -14    0.01    0.15 
  -5  -1  14    0.14    0.09 
   5   1 -14    0.12    0.17 
  -5  -2  14    0.02    0.08 
   5   2 -14    0.06    0.15 
  -5  -3  14    0.07    0.09 
   5   3 -14   -0.01    0.16 
  -5  -4  14    0.31    0.11 
  -5  -5  14    1.09    0.18 
  -5  -6  14    0.01    0.10 
  -5  -7  14   -0.03    0.11 
  -5  -7  14   -0.42    0.20 
  -5  -8  14    0.12    0.13 
  -5  -8  14   -0.18    0.27 
  -5  -9  14    0.84    0.28 
   5 -12 -13    0.01    0.22 
   5 -12 -13    0.08    0.28 
   5 -11 -13    0.25    0.24 
   5 -11 -13    0.32    0.22 
   5 -10 -13    0.08    0.19 
   5 -10 -13    0.03    0.20 
   5  -9 -13    0.20    0.18 
   5  -9 -13    0.23    0.19 
   5  -8 -13    0.18    0.17 
   5  -8 -13   -0.21    0.14 
   5  -7 -13    1.04    0.20 
   5  -7 -13    0.88    0.21 
   5  -6 -13    0.04    0.15 
   5  -6 -13   -0.08    0.12 
   5  -5 -13    0.21    0.15 
   5  -5 -13   -0.03    0.12 
   5  -4 -13    0.24    0.13 
   5  -4 -13   -0.07    0.13 
   5  -3 -13    0.05    0.10 
   5  -3 -13    0.64    0.20 
   5  -2 -13    0.14    0.15 
   5  -2 -13   -0.01    0.11 
  -5   1  13    0.12    0.07 
   5  -1 -13    0.13    0.13 
   5  -1 -13    0.04    0.14 
  -5   0  13    0.03    0.07 
   5   0 -13   -0.15    0.12 
   5   0 -13    0.14    0.15 
  -5  -1  13    0.05    0.07 
   5   1 -13   -0.15    0.13 
   5   1 -13    0.01    0.14 
  -5  -2  13    0.19    0.08 
   5   2 -13    0.17    0.15 
  -5  -3  13    0.83    0.14 
   5   3 -13    0.55    0.20 
  -5  -4  13   -0.01    0.07 
  -5  -5  13    0.00    0.08 
  -5  -6  13    0.03    0.09 
  -5  -7  13    0.66    0.16 
  -5  -8  13    0.10    0.12 
  -5  -9  13   -0.22    0.15 
  -5 -10  13   -0.83    0.25 
  -5 -10  13    0.10    0.15 
   5 -13 -12    0.20    0.22 
   5 -13 -12    0.15    0.28 
   5 -12 -12    0.26    0.21 
   5 -12 -12    0.52    0.25 
   5 -11 -12   -0.22    0.17 
   5 -11 -12    0.05    0.20 
   5 -10 -12    0.09    0.16 
   5 -10 -12   -0.17    0.15 
   5  -9 -12   -0.07    0.15 
   5  -9 -12    0.30    0.18 
   5  -8 -12    0.25    0.15 
   5  -8 -12    0.15    0.15 
   5  -7 -12   -0.18    0.12 
   5  -7 -12   -0.26    0.11 
   5  -6 -12    0.19    0.12 
   5  -6 -12    0.41    0.17 
   5  -5 -12    0.00    0.11 
   5  -5 -12    0.10    0.13 
   5  -4 -12    0.00    0.13 
   5  -4 -12    0.00    0.10 
   5  -3 -12    0.64    0.18 
   5  -3 -12    0.11    0.08 
  -5   2  12    0.57    0.11 
   5  -2 -12    0.50    0.17 
   5  -2 -12    0.43    0.14 
  -5   1  12    0.16    0.08 
   5  -1 -12    0.29    0.16 
   5  -1 -12    0.18    0.12 
  -5   0  12    0.76    0.12 
   5   0 -12    1.02    0.18 
   5   0 -12    0.64    0.20 
  -5  -1  12    0.21    0.08 
   5   1 -12    0.30    0.13 
   5   1 -12    0.24    0.15 
  -5  -2  12    0.32    0.09 
   5   2 -12    0.32    0.17 
  -5  -3  12    0.85    0.14 
   5   3 -12    1.00    0.24 
  -5  -4  12    0.03    0.07 
  -5  -5  12   -0.03    0.07 
  -5  -6  12    0.31    0.11 
  -5  -7  12   -0.04    0.08 
  -5  -8  12    0.05    0.09 
  -5  -9  12    0.05    0.11 
  -5 -10  12   -0.03    0.12 
  -5 -11  12   -0.07    0.14 
  -5 -11  12   -0.54    0.25 
  -5 -12  12   -0.10    0.29 
   5 -14 -11    0.14    0.27 
   5 -13 -11    0.15    0.25 
   5 -12 -11    0.10    0.20 
   5 -11 -11    0.03    0.17 
   5 -11 -11   -0.05    0.16 
   5 -10 -11    0.06    0.14 
   5 -10 -11    0.27    0.16 
   5  -9 -11   -0.10    0.13 
   5  -9 -11   -0.03    0.14 
   5  -8 -11    0.13    0.13 
   5  -8 -11    0.25    0.14 
   5  -7 -11    0.34    0.13 
   5  -7 -11    0.21    0.13 
   5  -6 -11    0.20    0.12 
   5  -6 -11    0.36    0.14 
   5  -5 -11    0.46    0.13 
   5  -5 -11    0.60    0.16 
   5  -4 -11    0.12    0.12 
   5  -4 -11    0.05    0.08 
  -5   3  11    0.50    0.09 
   5  -3 -11    0.48    0.11 
   5  -3 -11    0.44    0.16 
  -5   2  11    2.46    0.17 
   5  -2 -11    1.79    0.20 
   5  -2 -11    2.27    0.28 
  -5   1  11    1.77    0.15 
   5  -1 -11    1.99    0.28 
   5  -1 -11    1.79    0.20 
  -5   0  11    0.09    0.06 
   5   0 -11   -0.05    0.13 
   5   0 -11   -0.01    0.11 
  -5  -1  11    1.86    0.16 
   5   1 -11    2.01    0.22 
   5   1 -11    1.88    0.28 
  -5  -2  11    1.85    0.18 
   5   2 -11    2.31    0.31 
  -5  -3  11    0.26    0.09 
   5   3 -11    0.31    0.16 
  -5  -4  11    0.11    0.07 
  -5  -5  11    0.31    0.09 
  -5  -6  11    0.06    0.08 
  -5  -7  11    0.03    0.07 
  -5  -8  11    0.15    0.09 
  -5  -9  11    0.03    0.08 
  -5 -10  11   -0.01    0.10 
  -5 -11  11   -0.06    0.11 
  -5 -12  11   -0.22    0.27 
  -5 -12  11    0.10    0.15 
  -5 -13  11   -0.47    0.29 
   5 -14 -10    0.11    0.25 
   5 -13 -10   -0.12    0.18 
   5 -12 -10    0.09    0.17 
   5 -11 -10    0.05    0.14 
   5 -10 -10    0.19    0.13 
   5  -9 -10    1.85    0.24 
   5  -8 -10    0.14    0.12 
   5  -8 -10    0.05    0.13 
   5  -7 -10    0.09    0.11 
   5  -7 -10    0.19    0.13 
   5  -6 -10    0.64    0.16 
   5  -6 -10    0.67    0.15 
   5  -5 -10    2.65    0.27 
   5  -5 -10    3.00    0.23 
  -5   4  10    1.66    0.13 
   5  -4 -10    1.93    0.23 
  -5   3  10    0.94    0.11 
   5  -3 -10    0.83    0.18 
   5  -3 -10    0.96    0.14 
  -5   2  10    0.12    0.06 
   5  -2 -10    0.02    0.11 
   5  -2 -10   -0.08    0.08 
  -5   1  10    1.72    0.14 
   5  -1 -10    1.64    0.17 
   5  -1 -10    1.45    0.23 
  -5   0  10    0.25    0.07 
   5   0 -10    0.11    0.10 
   5   0 -10    0.05    0.12 
  -5  -1  10    1.48    0.15 
   5   1 -10    1.33    0.24 
   5   1 -10    1.95    0.20 
  -5  -2  10    0.03    0.05 
   5   2 -10    0.13    0.14 
  -5  -3  10    0.74    0.12 
   5   3 -10    0.67    0.18 
  -5  -4  10    1.68    0.18 
  -5  -5  10    2.30    0.19 
  -5  -6  10    0.53    0.11 
  -5  -7  10    0.11    0.09 
  -5  -8  10    0.17    0.09 
  -5  -9  10    1.35    0.19 
  -5 -10  10   -0.07    0.08 
  -5 -11  10    0.07    0.11 
  -5 -12  10    0.11    0.13 
  -5 -13  10   -0.91    0.26 
  -5 -13  10    0.12    0.14 
   5 -15  -9   -0.22    0.25 
   5 -14  -9    0.02    0.21 
   5 -13  -9    0.35    0.20 
   5 -12  -9    0.03    0.14 
   5 -11  -9    0.63    0.17 
   5 -10  -9    0.02    0.12 
   5  -9  -9    0.02    0.11 
   5  -8  -9   -0.09    0.11 
   5  -7  -9    1.23    0.19 
   5  -6  -9    0.04    0.10 
   5  -6  -9    0.16    0.10 
   5  -5  -9    1.85    0.18 
   5  -5  -9    1.56    0.20 
  -5   4   9    0.00    0.05 
   5  -4  -9    0.03    0.09 
   5  -4  -9    0.05    0.07 
  -5   3   9    5.11    0.27 
   5  -3  -9    4.71    0.34 
   5  -3  -9    5.16    0.30 
  -5   2   9    0.09    0.05 
   5  -2  -9    0.12    0.07 
   5  -2  -9   -0.02    0.09 
  -5   1   9    1.07    0.12 
   5  -1  -9    1.05    0.13 
   5  -1  -9    0.85    0.18 
  -5   0   9   -0.05    0.04 
   5   0  -9    0.00    0.10 
   5   0  -9    0.00    0.08 
  -5  -1   9    1.29    0.13 
   5   1  -9    1.17    0.15 
   5   1  -9    0.90    0.19 
  -5  -2   9    0.15    0.06 
   5   2  -9    0.21    0.13 
  -5  -3   9    4.88    0.29 
   5   3  -9    4.90    0.40 
  -5  -4   9    0.00    0.05 
  -5  -5   9    1.44    0.17 
  -5  -6   9    0.18    0.08 
  -5  -7   9    1.01    0.15 
  -5  -8   9    0.04    0.07 
  -5  -9   9    0.11    0.08 
  -5 -10   9   -0.05    0.09 
  -5 -11   9    0.28    0.11 
  -5 -12   9   -0.06    0.10 
  -5 -13   9    0.30    0.15 
  -5 -14   9   -0.04    0.16 
  -5 -14   9   -0.66    0.30 
  -5 -15   9   -0.95    0.33 
   5 -15  -8    0.41    0.25 
   5 -14  -8    0.11    0.20 
   5 -13  -8    0.01    0.15 
   5 -12  -8    0.17    0.14 
   5 -11  -8   -0.07    0.11 
   5 -10  -8    0.19    0.13 
   5  -9  -8    0.03    0.11 
   5  -8  -8   -0.04    0.10 
   5  -7  -8    1.06    0.18 
   5  -6  -8   -0.03    0.10 
  -5   5   8    2.02    0.12 
   5  -5  -8    1.99    0.18 
   5  -5  -8    1.79    0.20 
  -5   4   8    0.00    0.04 
   5  -4  -8    0.03    0.07 
   5  -4  -8   -0.11    0.08 
  -5   3   8    0.05    0.04 
   5  -3  -8   -0.06    0.08 
   5  -3  -8    0.10    0.07 
  -5   2   8    1.30    0.11 
   5  -2  -8    1.43    0.19 
   5  -2  -8    1.39    0.13 
  -5   1   8    1.83    0.13 
   5  -1  -8    1.47    0.20 
   5  -1  -8    1.71    0.15 
  -5   0   8    4.74    0.27 
   5   0  -8    4.87    0.36 
   5   0  -8    5.27    0.29 
  -5  -1   8    1.74    0.14 
   5   1  -8    2.07    0.17 
   5   1  -8    1.61    0.23 
  -5  -2   8    1.35    0.14 
   5   2  -8    1.30    0.22 
  -5  -3   8    0.12    0.06 
   5   3  -8    0.03    0.11 
  -5  -4   8   -0.02    0.04 
  -5  -5   8    1.84    0.18 
  -5  -6   8    0.02    0.05 
  -5  -7   8    0.85    0.14 
  -5  -8   8    0.03    0.06 
  -5  -9   8   -0.04    0.06 
  -5 -10   8    0.15    0.09 
  -5 -11   8   -0.06    0.08 
  -5 -12   8    0.22    0.12 
  -5 -13   8   -0.11    0.10 
  -5 -14   8   -0.37    0.22 
  -5 -14   8    0.17    0.14 
   5 -16  -7   -0.01    0.25 
   5 -15  -7    0.08    0.21 
   5 -14  -7    0.09    0.18 
   5 -13  -7   -0.04    0.14 
   5 -12  -7    0.15    0.13 
   5 -11  -7    0.05    0.12 
   5 -10  -7    0.14    0.12 
   5  -9  -7    0.52    0.14 
   5  -8  -7    0.03    0.10 
   5  -7  -7   -0.01    0.09 
   5  -6  -7    0.09    0.09 
  -5   5   7    0.54    0.06 
   5  -5  -7    0.43    0.11 
  -5   4   7    0.03    0.03 
   5  -4  -7    0.03    0.07 
   5  -4  -7   -0.07    0.07 
  -5   3   7    0.04    0.04 
   5  -3  -7    0.00    0.07 
   5  -3  -7    0.03    0.06 
  -5   2   7    5.81    0.31 
   5  -2  -7    6.46    0.32 
   5  -2  -7    6.27    0.38 
  -5   1   7    0.37    0.06 
   5  -1  -7    0.18    0.07 
   5  -1  -7    0.13    0.10 
  -5   0   7    0.07    0.04 
   5   0  -7   -0.01    0.05 
   5   0  -7   -0.08    0.08 
  -5  -1   7    0.31    0.07 
   5   1  -7    0.30    0.12 
   5   1  -7    0.49    0.09 
  -5  -2   7    5.96    0.33 
   5   2  -7    6.44    0.43 
  -5  -3   7    0.04    0.05 
   5   3  -7    0.01    0.10 
  -5  -4   7    0.10    0.05 
  -5  -5   7    0.56    0.10 
  -5  -6   7    0.16    0.08 
  -5  -7   7   -0.02    0.06 
  -5  -8   7   -0.02    0.06 
  -5  -9   7    0.74    0.14 
  -5 -10   7    0.65    0.13 
  -5 -11   7   -0.15    0.07 
  -5 -12   7    0.30    0.12 
  -5 -13   7    0.02    0.11 
  -5 -14   7    0.02    0.13 
  -5 -15   7    0.05    0.15 
  -5 -15   7   -0.88    0.29 
  -5 -16   7   -0.07    0.24 
   5 -16  -6   -0.04    0.25 
   5 -15  -6    0.05    0.21 
   5 -14  -6   -0.04    0.16 
   5 -13  -6    0.29    0.16 
   5 -12  -6   -0.12    0.11 
   5 -11  -6    0.04    0.11 
   5 -10  -6    0.38    0.13 
   5  -9  -6    5.50    0.35 
   5  -8  -6    0.02    0.09 
   5  -7  -6    0.89    0.15 
  -5   6   6    0.25    0.04 
   5  -6  -6    0.17    0.09 
  -5   5   6    1.29    0.10 
   5  -5  -6    1.71    0.18 
  -5   4   6    2.09    0.13 
   5  -4  -6    2.01    0.18 
  -5   3   6    0.22    0.05 
   5  -3  -6    0.11    0.08 
   5  -3  -6    0.20    0.06 
  -5   2   6    1.43    0.11 
   5  -2  -6    1.93    0.18 
   5  -2  -6    1.82    0.12 
  -5   1   6    0.33    0.06 
   5  -1  -6    0.32    0.06 
   5  -1  -6    0.42    0.11 
  -5   0   6    3.68    0.21 
   5   0  -6    3.75    0.28 
  -5  -1   6    0.42    0.07 
   5   1  -6    0.18    0.10 
  -5  -2   6    1.95    0.14 
   5   2  -6    1.85    0.23 
  -5  -3   6    0.09    0.05 
   5   3  -6    0.26    0.11 
  -5  -4   6    2.41    0.17 
  -5  -5   6    1.70    0.16 
  -5  -6   6    0.19    0.07 
  -5  -7   6    0.97    0.14 
  -5  -8   6   -0.03    0.06 
  -5  -9   6    6.67    0.40 
  -5 -10   6    0.34    0.10 
  -5 -11   6    0.18    0.10 
  -5 -12   6    0.16    0.11 
  -5 -13   6    0.22    0.12 
  -5 -14   6    0.12    0.12 
  -5 -15   6    0.39    0.15 
  -5 -15   6   -0.60    0.27 
  -5 -16   6    0.07    0.22 
   5 -16  -5   -0.08    0.24 
   5 -15  -5    0.42    0.22 
   5 -14  -5   -0.19    0.14 
   5 -13  -5    0.40    0.15 
   5 -12  -5   -0.05    0.11 
   5 -11  -5    2.59    0.26 
   5 -10  -5    0.28    0.12 
   5  -9  -5    2.06    0.21 
   5  -8  -5   -0.10    0.08 
   5  -7  -5    1.45    0.16 
   5  -6  -5    1.25    0.12 
   5  -6  -5    1.40    0.16 
   5  -5  -5    0.76    0.13 
   5  -5  -5    0.78    0.10 
   5  -4  -5    1.98    0.16 
   5  -4  -5    2.33    0.19 
   5  -3  -5    2.24    0.17 
   5  -3  -5    2.63    0.19 
   5  -2  -5    0.49    0.06 
   5  -2  -5    0.52    0.10 
   5  -2  -5    0.61    0.11 
   5  -1  -5    0.28    0.09 
  -5   0   5    0.00    0.03 
   5   0  -5    0.08    0.08 
  -5  -1   5    0.27    0.06 
   5   1  -5    0.30    0.11 
  -5  -2   5    0.80    0.10 
   5   2  -5    0.62    0.15 
  -5  -3   5    2.92    0.19 
   5   3  -5    3.04    0.26 
  -5  -4   5    1.90    0.15 
  -5  -5   5    0.67    0.10 
  -5  -6   5    1.24    0.14 
  -5  -7   5    1.84    0.18 
  -5  -8   5    0.00    0.06 
  -5  -9   5    2.00    0.20 
  -5 -10   5    0.26    0.09 
  -5 -11   5    2.94    0.24 
  -5 -12   5    0.03    0.08 
  -5 -13   5    0.75    0.16 
  -5 -14   5    0.08    0.10 
  -5 -15   5    0.01    0.15 
  -5 -15   5    0.42    0.23 
  -5 -16   5    0.00    0.21 
   5 -16  -4    0.02    0.21 
   5 -15  -4    0.68    0.22 
   5 -14  -4   -0.09    0.15 
   5 -13  -4    1.81    0.25 
   5 -12  -4    0.07    0.13 
   5 -11  -4    0.88    0.17 
   5 -10  -4   -0.02    0.10 
   5  -9  -4    2.64    0.23 
   5  -8  -4    1.00    0.15 
   5  -8  -4    1.00    0.11 
   5  -7  -4    0.28    0.07 
   5  -7  -4    0.34    0.10 
   5  -6  -4    0.87    0.10 
   5  -6  -4    1.01    0.13 
   5  -5  -4    5.05    0.28 
   5  -5  -4    5.02    0.30 
   5  -4  -4    0.14    0.07 
   5  -4  -4    0.01    0.05 
   5  -3  -4    0.67    0.10 
   5  -3  -4    0.66    0.10 
   5  -2  -4    3.36    0.22 
   5  -2  -4    3.53    0.22 
   5  -1  -4   12.02    0.58 
   5  -1  -4   11.22    0.58 
   5   0  -4    7.26    0.40 
   5   0  -4    7.42    0.42 
   5   1  -4   12.91    0.67 
   5   1  -4   12.12    0.63 
  -5  -2   4    3.68    0.22 
   5   2  -4    3.90    0.29 
  -5  -3   4    0.98    0.11 
   5   3  -4    0.82    0.16 
  -5  -4   4    0.06    0.04 
  -5  -5   4    5.80    0.32 
  -5  -6   4    1.08    0.13 
  -5  -7   4    0.32    0.08 
  -5  -8   4    1.21    0.15 
  -5  -9   4    2.87    0.22 
  -5 -10   4   -0.02    0.07 
  -5 -11   4    0.79    0.13 
  -5 -12   4    0.01    0.08 
  -5 -13   4    1.69    0.21 
  -5 -14   4    0.01    0.16 
  -5 -14   4    0.06    0.11 
  -5 -15   4    0.48    0.24 
  -5 -16   4    0.15    0.26 
   5 -17  -3   -0.44    0.21 
   5 -16  -3    0.08    0.20 
   5 -15  -3    0.56    0.22 
   5 -14  -3   -0.01    0.16 
   5 -13  -3    0.54    0.17 
   5 -12  -3    1.09    0.20 
   5 -11  -3    1.41    0.20 
   5 -10  -3    1.00    0.16 
   5  -9  -3    0.46    0.12 
   5  -8  -3    0.31    0.08 
   5  -8  -3    0.13    0.09 
   5  -7  -3    0.00    0.05 
   5  -7  -3    0.12    0.07 
   5  -6  -3    1.00    0.12 
   5  -6  -3    0.89    0.11 
   5  -5  -3   -0.03    0.06 
   5  -5  -3    0.10    0.06 
   5  -4  -3    0.78    0.11 
   5  -4  -3    1.02    0.12 
   5  -3  -3    1.63    0.14 
   5  -3  -3    1.71    0.14 
   5  -2  -3    1.65    0.15 
   5  -2  -3    1.63    0.13 
   5  -1  -3    0.66    0.10 
   5  -1  -3    0.46    0.09 
   5   0  -3    0.02    0.05 
   5   0  -3    0.04    0.06 
   5   1  -3    0.44    0.10 
   5   1  -3    0.60    0.12 
   5   2  -3    2.03    0.20 
   5   2  -3    2.00    0.20 
  -5  -4   3    1.03    0.12 
  -5  -5   3    0.06    0.05 
  -5  -6   3    0.98    0.12 
  -5  -7   3    0.07    0.05 
  -5  -8   3    0.19    0.07 
  -5  -9   3    0.52    0.11 
  -5 -10   3    1.16    0.15 
  -5 -11   3    1.32    0.17 
  -5 -12   3    1.02    0.15 
  -5 -13   3    0.41    0.12 
  -5 -14   3    0.00    0.11 
  -5 -14   3   -0.15    0.15 
  -5 -15   3    0.77    0.24 
  -5 -16   3    0.01    0.25 
  -5 -17   3    0.14    0.28 
   5 -17  -2   -0.16    0.22 
   5 -16  -2    0.02    0.20 
   5 -15  -2    0.10    0.19 
   5 -14  -2    0.42    0.19 
   5 -13  -2    0.20    0.15 
   5 -12  -2    0.30    0.13 
   5 -11  -2    0.40    0.14 
   5 -10  -2    0.83    0.15 
   5  -9  -2    0.55    0.13 
   5  -9  -2    0.54    0.10 
   5  -8  -2    0.10    0.06 
   5  -8  -2   -0.04    0.07 
   5  -7  -2    1.09    0.12 
   5  -7  -2    1.04    0.13 
   5  -6  -2    7.22    0.36 
   5  -6  -2    6.90    0.38 
   5  -5  -2    1.82    0.15 
   5  -5  -2    1.70    0.14 
   5  -4  -2    0.07    0.05 
   5  -4  -2    0.11    0.06 
   5  -3  -2    0.39    0.08 
   5  -3  -2    0.43    0.08 
   5  -2  -2    2.14    0.16 
   5  -2  -2    2.04    0.14 
   5  -1  -2    1.25    0.12 
   5  -1  -2    1.28    0.14 
   5   0  -2   33.18    1.48 
   5   0  -2   32.54    1.51 
   5   1  -2    1.42    0.16 
   5   1  -2    1.35    0.15 
   5   2  -2    2.11    0.17 
   5   2  -2    2.16    0.19 
   5   3  -2    0.24    0.08 
   5   4  -2    0.01    0.06 
  -5  -5   2    1.92    0.15 
  -5  -6   2    7.88    0.41 
  -5  -7   2    1.22    0.14 
  -5  -8   2    0.02    0.05 
  -5  -9   2    0.64    0.11 
  -5 -10   2    0.68    0.12 
  -5 -11   2    0.08    0.08 
  -5 -12   2    0.19    0.09 
  -5 -13   2    0.25    0.10 
  -5 -13   2    0.12    0.13 
  -5 -14   2    0.53    0.17 
  -5 -15   2    0.19    0.20 
  -5 -16   2   -0.17    0.22 
  -5 -17   2   -0.23    0.25 
   5 -17  -1   -0.09    0.22 
   5 -16  -1   -0.15    0.20 
   5 -15  -1    0.44    0.21 
   5 -14  -1    0.00    0.16 
   5 -13  -1    1.11    0.21 
   5 -12  -1    0.69    0.17 
   5 -11  -1    0.05    0.11 
   5 -10  -1    0.00    0.10 
   5 -10  -1    0.06    0.08 
   5  -9  -1    0.40    0.11 
   5  -9  -1    0.35    0.09 
   5  -8  -1    0.03    0.07 
   5  -8  -1    0.05    0.05 
   5  -7  -1    1.41    0.13 
   5  -7  -1    1.63    0.15 
   5  -6  -1    0.03    0.05 
   5  -6  -1   -0.02    0.06 
   5  -5  -1   12.77    0.61 
   5  -5  -1   13.17    0.63 
   5  -4  -1    4.75    0.27 
   5  -4  -1    4.94    0.27 
   5  -3  -1    4.61    0.24 
   5  -3  -1    4.22    0.25 
   5  -2  -1    1.86    0.14 
   5  -2  -1    1.92    0.13 
   5  -1  -1    0.06    0.05 
   5   0  -1    0.00    0.05 
   5   0  -1   -0.02    0.04 
   5   1  -1    0.07    0.06 
   5   2  -1    2.13    0.18 
   5   2  -1    2.08    0.17 
   5   3  -1    5.00    0.31 
   5   4  -1    5.21    0.32 
   5   5  -1   14.42    0.73 
  -5  -6   1    0.03    0.04 
  -5  -7   1    1.38    0.14 
  -5  -8   1    0.06    0.05 
  -5  -9   1    0.36    0.08 
  -5 -10   1   -0.01    0.06 
  -5 -11   1    0.05    0.07 
  -5 -12   1    0.70    0.12 
  -5 -12   1    0.68    0.17 
  -5 -13   1    1.14    0.20 
  -5 -13   1    0.99    0.15 
  -5 -14   1    0.05    0.15 
  -5 -15   1    0.16    0.18 
  -5 -16   1   -0.13    0.22 
  -5 -17   1   -0.02    0.28 
   5 -17   0    0.05    0.23 
   5 -16   0    0.10    0.20 
   5 -15   0    2.11    0.30 
   5 -14   0    0.23    0.17 
   5 -13   0    0.42    0.16 
   5 -12   0    0.03    0.12 
   5 -11   0    0.15    0.10 
   5 -11   0    0.12    0.12 
   5 -10   0    0.02    0.08 
   5 -10   0    0.03    0.10 
   5  -9   0    1.81    0.17 
   5  -9   0    1.86    0.19 
   5  -8   0    0.07    0.07 
   5  -8   0    0.05    0.06 
   5  -7   0    3.93    0.24 
   5  -7   0    4.25    0.25 
   5  -6   0   -0.01    0.04 
   5  -6   0    0.13    0.06 
   5  -5   0   27.57    1.28 
   5  -5   0   28.13    1.24 
   5  -4   0    0.05    0.05 
   5  -4   0   -0.02    0.04 
   5  -3   0    0.12    0.05 
   5  -3   0    0.18    0.06 
   5  -2   0   -0.01    0.04 
   5  -2   0    0.03    0.04 
   5  -1   0   57.30    2.50 
  -5   0   0   -0.01    0.03 
   5   0   0    0.01    0.03 
   5   0   0   -0.01    0.04 
  -5  -1   0   57.90    2.58 
   5   1   0   59.78    2.58 
   5   2   0    0.03    0.04 
   5   3   0    0.17    0.07 
   5   4   0    0.06    0.06 
   5   5   0   29.41    1.36 
   5   6   0    0.15    0.08 
  -5  -7   0    4.56    0.27 
  -5  -8   0    0.01    0.05 
  -5  -9   0    1.85    0.15 
  -5 -10   0    0.00    0.05 
  -5 -11   0    0.04    0.07 
  -5 -11   0    0.19    0.12 
  -5 -12   0    0.01    0.07 
  -5 -12   0   -0.03    0.12 
  -5 -13   0    0.25    0.15 
  -5 -14   0    0.06    0.15 
  -5 -15   0    1.92    0.30 
  -5 -16   0    0.13    0.21 
  -5 -17   0   -0.15    0.26 
   5 -17   1   -0.02    0.22 
   5 -16   1    0.08    0.21 
   5 -15   1    0.23    0.19 
   5 -14   1    0.01    0.16 
   5 -13   1    1.18    0.21 
   5 -12   1    1.01    0.16 
   5 -12   1    0.99    0.19 
   5 -11   1    0.09    0.09 
   5 -11   1    0.06    0.11 
   5 -10   1    0.08    0.10 
   5 -10   1    0.06    0.08 
   5  -9   1    0.37    0.09 
   5  -9   1    0.39    0.11 
   5  -8   1    0.12    0.08 
   5  -8   1    0.00    0.06 
   5  -7   1    1.41    0.14 
   5  -7   1    1.42    0.14 
   5  -6   1   -0.03    0.04 
   5  -6   1    0.03    0.06 
   5  -5   1   14.67    0.66 
   5  -5   1   13.27    0.66 
   5  -4   1    4.96    0.27 
   5  -4   1    4.75    0.26 
   5  -3   1    2.29    0.14 
   5  -2   1    1.70    0.13 
   5  -2   1    1.72    0.11 
  -5   1  -1    0.11    0.05 
   5  -1   1    0.07    0.04 
   5  -1   1    0.06    0.03 
  -5   0  -1    0.00    0.04 
   5   0   1   -0.01    0.04 
   5   0   1   -0.03    0.03 
  -5  -1  -1    0.07    0.04 
   5   1   1    0.04    0.04 
   5   1   1    0.11    0.04 
  -5  -2  -1    1.89    0.12 
   5   2   1    1.93    0.15 
   5   3   1    4.54    0.27 
   5   4   1    4.89    0.30 
   5   5   1   15.33    0.76 
   5   6   1    0.13    0.08 
  -5  -8  -1    0.00    0.05 
  -5  -9  -1    0.20    0.11 
  -5  -9  -1    0.44    0.09 
  -5 -10  -1    0.06    0.06 
  -5 -10  -1    0.02    0.10 
  -5 -11  -1    0.18    0.07 
  -5 -11  -1   -0.05    0.10 
  -5 -12  -1    0.55    0.17 
  -5 -13  -1    0.95    0.20 
  -5 -14  -1   -0.18    0.13 
  -5 -15  -1   -0.06    0.18 
  -5 -16  -1   -0.01    0.22 
  -5 -17  -1   -0.18    0.27 
   5 -17   2    0.04    0.23 
   5 -16   2   -0.25    0.19 
   5 -15   2    0.12    0.19 
   5 -14   2    0.56    0.19 
   5 -13   2    0.29    0.16 
   5 -12   2    0.17    0.11 
   5 -12   2    0.06    0.12 
   5 -11   2    0.41    0.13 
   5 -11   2    0.40    0.12 
   5 -10   2    1.08    0.17 
   5 -10   2    0.94    0.14 
   5  -9   2    0.57    0.12 
   5  -9   2    0.65    0.12 
   5  -8   2    0.03    0.07 
   5  -8   2    0.02    0.06 
   5  -7   2    1.22    0.13 
   5  -7   2    1.18    0.13 
   5  -6   2    7.69    0.40 
   5  -6   2    7.50    0.39 
   5  -5   2    1.85    0.15 
   5  -5   2    2.03    0.14 
   5  -4   2    0.03    0.05 
   5  -4   2    0.06    0.03 
   5  -3   2    0.36    0.07 
   5  -3   2    0.44    0.06 
   5  -2   2    1.88    0.11 
   5  -2   2    1.90    0.14 
  -5   1  -2    1.30    0.12 
   5  -1   2    1.07    0.11 
   5  -1   2    0.95    0.07 
  -5   0  -2   33.78    1.50 
   5   0   2   32.52    1.47 
  -5  -1  -2    1.41    0.11 
   5   1   2    1.14    0.12 
  -5  -2  -2    2.00    0.14 
   5   2   2    2.10    0.16 
   5   3   2    0.41    0.09 
   5   4   2    0.01    0.05 
   5   5   2    1.65    0.17 
  -5  -7  -2    0.99    0.14 
   5   7   2    1.40    0.17 
  -5  -8  -2    0.07    0.09 
  -5  -8  -2    0.05    0.04 
  -5  -9  -2    0.92    0.15 
  -5  -9  -2    0.75    0.11 
  -5 -10  -2    0.99    0.17 
  -5 -10  -2    0.72    0.11 
  -5 -11  -2    0.31    0.13 
  -5 -11  -2    0.11    0.07 
  -5 -12  -2   -0.04    0.12 
  -5 -13  -2    0.29    0.15 
  -5 -14  -2    0.29    0.17 
  -5 -15  -2    0.15    0.20 
  -5 -16  -2   -0.04    0.22 
  -5 -17  -2   -0.06    0.27 
   5 -17   3   -0.36    0.21 
   5 -16   3   -0.08    0.20 
   5 -15   3    0.37    0.21 
   5 -14   3   -0.05    0.15 
   5 -13   3    0.49    0.14 
   5 -13   3    0.45    0.17 
   5 -12   3    1.20    0.21 
   5 -12   3    1.46    0.19 
   5 -11   3    1.56    0.19 
   5 -11   3    1.73    0.21 
   5 -10   3    1.01    0.15 
   5 -10   3    1.19    0.17 
   5  -9   3    0.52    0.11 
   5  -9   3    0.63    0.13 
   5  -8   3    0.26    0.08 
   5  -8   3    0.33    0.10 
   5  -7   3    0.06    0.06 
   5  -7   3   -0.01    0.06 
   5  -6   3    1.10    0.12 
   5  -6   3    1.16    0.13 
   5  -5   3    0.10    0.06 
   5  -5   3    0.07    0.04 
   5  -4   3    0.99    0.12 
   5  -4   3    1.00    0.09 
   5  -3   3    1.81    0.14 
   5  -3   3    1.93    0.12 
  -5   2  -3    1.79    0.17 
   5  -2   3    1.57    0.10 
   5  -2   3    1.83    0.13 
  -5   1  -3    0.59    0.11 
   5  -1   3    0.78    0.10 
   5   0   3    0.07    0.04 
  -5  -1  -3    0.71    0.09 
   5   1   3    0.63    0.10 
  -5  -2  -3    1.76    0.13 
   5   2   3    1.64    0.13 
  -5  -3  -3    1.50    0.13 
   5   3   3    1.63    0.15 
  -5  -4  -3    0.97    0.10 
   5   4   3    0.81    0.12 
  -5  -5  -3    0.14    0.07 
   5   5   3    0.12    0.06 
  -5  -6  -3    1.24    0.13 
   5   6   3    1.33    0.16 
  -5  -7  -3    0.11    0.08 
   5   7   3    0.15    0.07 
  -5  -8  -3    0.26    0.10 
  -5  -9  -3    0.53    0.12 
  -5  -9  -3    0.66    0.10 
  -5 -10  -3    0.97    0.17 
  -5 -10  -3    0.94    0.12 
  -5 -11  -3    1.60    0.21 
  -5 -12  -3    1.18    0.21 
  -5 -13  -3    0.36    0.16 
  -5 -14  -3   -0.15    0.13 
  -5 -15  -3    0.61    0.22 
  -5 -16  -3   -0.20    0.23 
  -5 -17  -3    0.14    0.29 
   5 -16   4    0.03    0.20 
   5 -15   4    0.35    0.21 
   5 -14   4    0.16    0.17 
   5 -13   4    1.94    0.24 
   5 -13   4    2.46    0.27 
   5 -12   4    0.11    0.11 
   5 -12   4    0.05    0.12 
   5 -11   4    0.94    0.16 
   5 -11   4    0.90    0.17 
   5 -10   4    0.01    0.08 
   5 -10   4    0.01    0.10 
   5  -9   4    2.92    0.23 
   5  -9   4    2.71    0.21 
   5  -8   4    1.12    0.15 
   5  -8   4    1.46    0.15 
   5  -7   4    0.38    0.09 
   5  -7   4    0.52    0.10 
   5  -6   4    1.34    0.13 
   5  -6   4    1.12    0.13 
   5  -5   4    4.39    0.26 
   5  -5   4    5.62    0.29 
   5  -4   4    0.06    0.04 
   5  -4   4    0.01    0.05 
   5  -3   4    0.80    0.07 
   5  -3   4    0.79    0.11 
  -5   2  -4    3.62    0.26 
   5  -2   4    4.00    0.23 
  -5   1  -4   13.17    0.66 
   5  -1   4   12.80    0.62 
  -5   0  -4    7.83    0.42 
   5   0   4    7.97    0.40 
  -5  -1  -4   12.58    0.62 
   5   1   4   12.84    0.61 
  -5  -2  -4    3.88    0.23 
   5   2   4    3.71    0.23 
  -5  -3  -4    0.62    0.10 
  -5  -3  -4    0.77    0.08 
   5   3   4    0.90    0.11 
  -5  -4  -4   -0.01    0.06 
  -5  -4  -4   -0.04    0.05 
   5   4   4   -0.01    0.04 
  -5  -5  -4    5.76    0.30 
   5   5   4    5.09    0.31 
  -5  -6  -4    0.93    0.12 
   5   6   4    0.92    0.13 
  -5  -7  -4    0.20    0.09 
   5   7   4    0.43    0.11 
  -5  -8  -4    1.49    0.17 
   5   8   4    1.44    0.18 
  -5  -9  -4    3.02    0.20 
  -5  -9  -4    2.87    0.24 
  -5 -10  -4    0.05    0.10 
  -5 -11  -4    0.91    0.17 
  -5 -12  -4   -0.08    0.12 
  -5 -13  -4    2.27    0.27 
  -5 -14  -4   -0.13    0.13 
  -5 -15  -4    0.79    0.23 
  -5 -16  -4    0.28    0.25 
   5 -16   5   -0.09    0.21 
   5 -15   5    0.70    0.23 
   5 -14   5   -0.17    0.15 
   5 -14   5    0.05    0.13 
   5 -13   5    0.76    0.18 
   5 -13   5    0.79    0.17 
   5 -12   5    0.14    0.13 
   5 -12   5    0.00    0.10 
   5 -11   5    3.61    0.29 
   5 -11   5    3.29    0.26 
   5 -10   5    0.27    0.11 
   5 -10   5    0.35    0.13 
   5  -9   5    2.76    0.23 
   5  -9   5    2.17    0.22 
   5  -8   5   -0.01    0.06 
   5  -8   5    0.04    0.07 
   5  -7   5    2.09    0.17 
   5  -7   5    1.86    0.18 
   5  -6   5    1.39    0.15 
   5  -5   5    1.05    0.13 
   5  -5   5    1.11    0.11 
   5  -4   5    2.32    0.14 
   5  -4   5    2.13    0.17 
   5  -3   5    2.88    0.20 
   5  -3   5    3.06    0.16 
  -5   2  -5    0.70    0.14 
   5  -2   5    0.91    0.12 
  -5   1  -5    0.29    0.10 
   5  -1   5    0.23    0.07 
  -5   0  -5   -0.12    0.06 
   5   0   5   -0.04    0.05 
  -5  -1  -5    0.34    0.09 
   5   1   5    0.40    0.08 
  -5  -2  -5    0.52    0.10 
   5   2   5    0.79    0.11 
  -5  -3  -5    2.64    0.16 
  -5  -3  -5    2.90    0.20 
   5   3   5    2.46    0.18 
  -5  -4  -5    2.07    0.14 
  -5  -4  -5    2.03    0.18 
   5   4   5    2.20    0.17 
  -5  -5  -5    0.91    0.13 
  -5  -5  -5    0.89    0.10 
   5   5   5    1.09    0.13 
  -5  -6  -5    1.59    0.14 
   5   6   5    1.58    0.16 
  -5  -7  -5    1.86    0.17 
   5   7   5    2.23    0.19 
  -5  -8  -5   -0.09    0.08 
   5   8   5   -0.04    0.08 
  -5  -9  -5    2.30    0.22 
  -5 -10  -5    0.04    0.11 
  -5 -11  -5    3.24    0.27 
  -5 -12  -5    0.03    0.12 
  -5 -13  -5    1.03    0.19 
  -5 -14  -5   -0.14    0.14 
  -5 -15  -5    0.46    0.22 
  -5 -16  -5    0.03    0.25 
   5 -16   6   -0.05    0.22 
   5 -15   6    0.30    0.20 
   5 -14   6   -0.12    0.17 
   5 -14   6    0.17    0.14 
   5 -13   6    0.40    0.15 
   5 -13   6    0.41    0.16 
   5 -12   6    0.09    0.11 
   5 -12   6    0.06    0.13 
   5 -11   6    0.31    0.14 
   5 -11   6    0.00    0.10 
   5 -10   6    0.64    0.15 
   5 -10   6    0.62    0.14 
   5  -9   6    7.11    0.43 
   5  -9   6    7.80    0.44 
   5  -8   6    0.16    0.08 
   5  -8   6    0.12    0.08 
   5  -7   6    1.12    0.13 
   5  -7   6    1.15    0.15 
   5  -6   6    0.29    0.08 
   5  -6   6    0.14    0.07 
   5  -5   6    1.58    0.17 
   5  -5   6    1.97    0.14 
   5  -4   6    2.29    0.18 
   5  -4   6    2.70    0.16 
  -5   3  -6    0.01    0.09 
   5  -3   6    0.23    0.07 
   5  -3   6    0.24    0.05 
  -5   2  -6    2.19    0.23 
   5  -2   6    1.83    0.15 
  -5   1  -6    0.39    0.12 
   5  -1   6    0.46    0.09 
  -5   0  -6    3.94    0.27 
   5   0   6    3.98    0.25 
  -5  -1  -6    0.42    0.11 
   5   1   6    0.34    0.08 
  -5  -2  -6    1.98    0.17 
   5   2   6    1.87    0.16 
  -5  -3  -6    0.21    0.05 
  -5  -3  -6    0.18    0.09 
   5   3   6    0.22    0.07 
  -5  -4  -6    2.47    0.16 
  -5  -4  -6    2.37    0.20 
   5   4   6    2.46    0.18 
  -5  -5  -6    1.82    0.18 
  -5  -5  -6    1.60    0.14 
   5   5   6    1.88    0.17 
  -5  -6  -6    0.39    0.09 
  -5  -6  -6    0.09    0.08 
   5   6   6    0.28    0.09 
  -5  -7  -6    1.18    0.15 
   5   7   6    1.32    0.16 
  -5  -8  -6   -0.01    0.09 
  -5  -9  -6    6.76    0.40 
  -5 -10  -6    0.55    0.14 
  -5 -11  -6    0.08    0.12 
  -5 -12  -6    0.29    0.15 
  -5 -13  -6    0.20    0.16 
  -5 -14  -6    0.26    0.18 
  -5 -15  -6    0.15    0.23 
  -5 -16  -6   -0.21    0.26 
   5 -16   7    0.02    0.22 
   5 -15   7   -0.01    0.20 
   5 -15   7    0.04    0.16 
   5 -14   7    0.00    0.13 
   5 -14   7    0.14    0.17 
   5 -13   7   -0.05    0.11 
   5 -13   7   -0.06    0.15 
   5 -12   7    0.47    0.17 
   5 -12   7    0.31    0.12 
   5 -11   7    0.11    0.12 
   5 -11   7   -0.04    0.09 
   5 -10   7    0.54    0.14 
   5 -10   7    0.46    0.12 
   5  -9   7    0.58    0.13 
   5  -9   7    0.75    0.15 
   5  -8   7    0.03    0.07 
   5  -8   7    0.25    0.09 
   5  -7   7    0.18    0.07 
   5  -7   7    0.08    0.07 
   5  -6   7    0.04    0.06 
   5  -6   7    0.04    0.07 
   5  -5   7    0.79    0.10 
   5  -5   7    0.42    0.10 
   5  -4   7    0.01    0.05 
  -5   3  -7   -0.05    0.09 
   5  -3   7    0.00    0.05 
  -5   2  -7    7.09    0.44 
   5  -2   7    6.63    0.37 
  -5   1  -7    0.30    0.11 
   5  -1   7    0.33    0.09 
  -5   0  -7    0.06    0.08 
   5   0   7   -0.03    0.06 
  -5  -1  -7    0.31    0.10 
   5   1   7    0.31    0.09 
  -5  -2  -7    6.54    0.39 
   5   2   7    7.14    0.38 
  -5  -3  -7   -0.02    0.05 
  -5  -3  -7   -0.08    0.07 
   5   3   7    0.01    0.05 
  -5  -4  -7   -0.14    0.07 
  -5  -4  -7    0.05    0.06 
   5   4   7    0.03    0.06 
  -5  -5  -7    0.34    0.11 
  -5  -5  -7    0.43    0.09 
   5   5   7    0.71    0.12 
  -5  -6  -7    0.10    0.08 
  -5  -6  -7    0.07    0.10 
   5   6   7    0.09    0.08 
  -5  -7  -7   -0.04    0.08 
  -5  -7  -7    0.03    0.08 
   5   7   7    0.10    0.08 
  -5  -8  -7    0.16    0.11 
  -5  -8  -7    0.11    0.10 
  -5  -9  -7    0.57    0.14 
  -5 -10  -7    0.49    0.14 
  -5 -11  -7    0.05    0.13 
  -5 -12  -7    0.23    0.14 
  -5 -13  -7    0.03    0.15 
  -5 -14  -7    0.14    0.18 
  -5 -15  -7   -0.16    0.21 
  -5 -16  -7   -0.42    0.27 
   5 -15   8    0.33    0.21 
   5 -15   8    0.47    0.24 
   5 -14   8    0.16    0.16 
   5 -14   8    0.06    0.18 
   5 -13   8    0.22    0.17 
   5 -13   8    0.12    0.13 
   5 -12   8    0.26    0.16 
   5 -12   8    0.24    0.13 
   5 -11   8   -0.07    0.09 
   5 -11   8   -0.04    0.11 
   5 -10   8    0.15    0.10 
   5 -10   8    0.13    0.12 
   5  -9   8    0.00    0.08 
   5  -9   8    0.06    0.10 
   5  -8   8    0.05    0.08 
   5  -8   8    0.07    0.07 
   5  -7   8    1.45    0.16 
   5  -7   8    1.09    0.16 
   5  -6   8   -0.04    0.06 
   5  -5   8    1.90    0.19 
   5  -4   8    0.02    0.06 
  -5   3  -8    0.03    0.10 
   5  -3   8    0.14    0.07 
  -5   2  -8    1.35    0.21 
   5  -2   8    1.67    0.17 
  -5   1  -8    1.87    0.23 
   5  -1   8    1.98    0.17 
  -5   0  -8    5.75    0.37 
   5   0   8    5.46    0.33 
  -5  -1  -8    1.87    0.21 
   5   1   8    2.18    0.18 
  -5  -2  -8    1.33    0.18 
   5   2   8    1.75    0.17 
  -5  -3  -8   -0.03    0.05 
  -5  -3  -8   -0.03    0.08 
   5   3   8    0.02    0.05 
  -5  -4  -8   -0.04    0.06 
  -5  -4  -8    0.08    0.09 
   5   4   8   -0.05    0.06 
  -5  -5  -8    2.03    0.21 
  -5  -5  -8    1.86    0.16 
   5   5   8    2.19    0.18 
  -5  -6  -8   -0.01    0.09 
  -5  -6  -8   -0.10    0.08 
   5   6   8    0.01    0.07 
  -5  -7  -8    0.83    0.16 
  -5  -7  -8    1.20    0.16 
  -5  -8  -8    0.04    0.11 
  -5  -8  -8   -0.01    0.09 
  -5  -9  -8   -0.04    0.10 
  -5  -9  -8   -0.02    0.11 
  -5 -10  -8    0.18    0.11 
  -5 -10  -8   -0.06    0.12 
  -5 -11  -8   -0.30    0.11 
  -5 -12  -8   -0.10    0.14 
  -5 -13  -8   -0.26    0.15 
  -5 -14  -8   -0.61    0.16 
  -5 -15  -8   -0.16    0.24 
   5 -15   9   -0.05    0.19 
   5 -14   9   -0.01    0.21 
   5 -14   9   -0.15    0.16 
   5 -13   9    0.30    0.15 
   5 -13   9    0.56    0.20 
   5 -12   9   -0.12    0.14 
   5 -12   9   -0.01    0.11 
   5 -11   9    0.62    0.16 
   5 -11   9    0.49    0.16 
   5 -10   9    0.23    0.13 
   5 -10   9    0.07    0.09 
   5  -9   9    0.16    0.12 
   5  -9   9    0.11    0.09 
   5  -8   9    0.02    0.09 
   5  -8   9   -0.13    0.07 
   5  -7   9    1.38    0.16 
   5  -7   9    0.95    0.16 
   5  -6   9    0.13    0.08 
   5  -5   9    1.29    0.16 
   5  -4   9   -0.01    0.05 
  -5   3  -9    4.50    0.36 
   5  -3   9    5.07    0.30 
  -5   2  -9   -0.01    0.09 
   5  -2   9   -0.01    0.06 
  -5   1  -9    1.15    0.19 
   5  -1   9    1.30    0.16 
  -5   0  -9    0.01    0.09 
   5   0   9   -0.02    0.07 
  -5  -1  -9    1.08    0.18 
   5   1   9    1.55    0.17 
  -5  -2  -9    0.00    0.09 
   5   2   9   -0.01    0.07 
  -5  -3  -9    5.32    0.29 
  -5  -3  -9    4.75    0.34 
  -5  -4  -9   -0.03    0.09 
  -5  -4  -9    0.04    0.08 
   5   4   9    0.00    0.08 
  -5  -5  -9    1.38    0.20 
  -5  -5  -9    1.78    0.17 
   5   5   9    1.39    0.17 
  -5  -6  -9    0.03    0.10 
  -5  -6  -9    0.15    0.10 
  -5  -7  -9    0.95    0.15 
  -5  -7  -9    0.76    0.16 
  -5  -8  -9   -0.01    0.10 
  -5  -8  -9   -0.08    0.10 
  -5  -9  -9    0.06    0.11 
  -5  -9  -9    0.01    0.11 
  -5 -10  -9   -0.08    0.10 
  -5 -10  -9   -0.07    0.11 
  -5 -11  -9    0.34    0.15 
  -5 -11  -9    0.46    0.15 
  -5 -12  -9    0.11    0.15 
  -5 -12  -9   -0.03    0.15 
  -5 -13  -9    0.22    0.19 
  -5 -13  -9    0.24    0.18 
  -5 -14  -9   -0.10    0.20 
  -5 -15  -9    0.05    0.27 
   5 -14  10    0.19    0.20 
   5 -13  10   -0.04    0.15 
   5 -12  10   -0.03    0.13 
   5 -11  10    0.03    0.11 
   5 -10  10    0.05    0.10 
   5  -9  10    1.59    0.21 
   5  -8  10    0.00    0.08 
   5  -7  10    0.08    0.09 
   5  -6  10    0.60    0.13 
   5  -5  10    2.27    0.22 
   5  -4  10    1.50    0.18 
  -5   3 -10    0.90    0.19 
   5  -3  10    0.79    0.13 
  -5   2 -10    0.08    0.11 
   5  -2  10    0.12    0.07 
  -5   1 -10    1.80    0.25 
   5  -1  10    2.03    0.20 
  -5   0 -10    0.11    0.11 
   5   0  10    0.23    0.09 
  -5  -1 -10    1.97    0.24 
   5   1  10    1.89    0.20 
  -5  -2 -10   -0.12    0.09 
   5   2  10    0.19    0.10 
  -5  -3 -10    0.76    0.15 
   5   3  10    0.01    0.07 
  -5  -4 -10    2.00    0.23 
   5   4  10    2.21    0.21 
  -5  -5 -10    2.43    0.27 
  -5  -5 -10    2.78    0.22 
   5   5  10    3.14    0.23 
  -5  -6 -10    0.75    0.14 
  -5  -6 -10    0.70    0.17 
  -5  -7 -10    0.11    0.14 
  -5  -7 -10   -0.01    0.11 
  -5  -8 -10    0.21    0.13 
  -5  -8 -10    0.09    0.12 
  -5  -9 -10    2.09    0.22 
  -5  -9 -10    1.96    0.27 
  -5 -10 -10    0.05    0.14 
  -5 -10 -10   -0.02    0.12 
  -5 -11 -10   -0.12    0.15 
  -5 -12 -10   -0.05    0.15 
  -5 -13 -10   -0.17    0.18 
  -5 -14 -10    0.01    0.24 
   5 -13  11    0.17    0.19 
   5 -12  11   -0.05    0.15 
   5 -11  11    0.13    0.14 
   5 -10  11   -0.07    0.11 
   5  -9  11   -0.05    0.09 
   5  -8  11   -0.01    0.09 
   5  -7  11   -0.08    0.08 
   5  -6  11    0.15    0.10 
   5  -5  11    0.25    0.10 
   5  -4  11    0.00    0.06 
  -5   3 -11    0.13    0.13 
   5  -3  11    0.43    0.11 
  -5   2 -11    1.89    0.27 
   5  -2  11    2.35    0.22 
  -5   1 -11    1.50    0.25 
   5  -1  11    2.34    0.22 
  -5   0 -11   -0.10    0.10 
   5   0  11   -0.06    0.07 
  -5  -1 -11    2.17    0.26 
   5   1  11    2.09    0.22 
  -5  -2 -11    2.12    0.26 
   5   2  11    2.78    0.24 
  -5  -3 -11    0.41    0.14 
   5   3  11    0.03    0.09 
  -5  -4 -11    0.06    0.12 
   5   4  11    0.09    0.10 
  -5  -5 -11    0.21    0.14 
  -5  -6 -11    0.11    0.13 
  -5  -7 -11   -0.10    0.12 
  -5  -8 -11    0.25    0.16 
  -5  -9 -11   -0.01    0.15 
  -5 -10 -11   -0.08    0.16 
  -5 -11 -11    0.09    0.17 
  -5 -12 -11   -0.03    0.17 
  -5 -13 -11    0.11    0.20 
  -5 -14 -11   -0.02    0.18 
   5 -13  12    0.15    0.22 
   5 -12  12    0.16    0.19 
   5 -11  12   -0.03    0.15 
   5 -10  12   -0.10    0.12 
   5  -9  12   -0.09    0.10 
   5  -8  12    0.07    0.11 
   5  -7  12    0.04    0.09 
   5  -6  12    0.41    0.13 
   5  -5  12   -0.04    0.08 
   5  -4  12   -0.02    0.08 
  -5   3 -12    0.53    0.18 
   5  -3  12    0.76    0.15 
  -5   2 -12    0.38    0.16 
   5  -2  12    0.52    0.12 
  -5   1 -12    0.16    0.15 
   5  -1  12    0.13    0.09 
  -5   0 -12    0.67    0.18 
   5   0  12    0.49    0.13 
  -5  -1 -12    0.17    0.14 
   5   1  12    0.35    0.11 
  -5  -2 -12    0.33    0.16 
   5   2  12    0.81    0.15 
  -5  -3 -12    0.64    0.18 
   5   3  12    0.52    0.12 
  -5  -4 -12   -0.02    0.13 
  -5  -5 -12    0.15    0.14 
  -5  -6 -12    0.41    0.17 
  -5  -7 -12   -0.08    0.13 
  -5  -8 -12    0.09    0.16 
  -5  -9 -12   -0.04    0.17 
  -5 -10 -12    0.02    0.18 
  -5 -11 -12    0.09    0.19 
  -5 -12 -12    0.51    0.23 
  -5 -13 -12    0.04    0.21 
   5 -12  13    0.14    0.21 
   5 -11  13    0.28    0.19 
   5 -10  13   -0.06    0.15 
   5  -9  13    0.03    0.13 
   5  -8  13    0.05    0.11 
   5  -7  13    0.54    0.15 
   5  -6  13    0.01    0.09 
   5  -5  13    0.24    0.12 
   5  -4  13   -0.04    0.08 
  -5   3 -13    0.70    0.21 
   5  -3  13    0.86    0.16 
  -5   2 -13    0.33    0.16 
   5  -2  13    0.19    0.10 
  -5   1 -13   -0.09    0.11 
   5  -1  13    0.28    0.11 
  -5   0 -13    0.17    0.13 
   5   0  13   -0.05    0.08 
  -5  -1 -13    0.00    0.12 
   5   1  13    0.18    0.11 
  -5  -2 -13    0.32    0.14 
   5   2  13    0.07    0.10 
  -5  -3 -13    0.64    0.19 
   5   3  13    0.75    0.15 
  -5  -4 -13    0.01    0.13 
  -5  -5 -13    0.06    0.14 
  -5  -6 -13    0.05    0.16 
  -5  -7 -13    0.93    0.24 
  -5  -8 -13   -0.16    0.17 
  -5  -9 -13    0.10    0.21 
  -5 -10 -13    0.01    0.19 
  -5 -11 -13    0.45    0.23 
  -5 -12 -13   -0.14    0.20 
   5 -11  14    0.03    0.21 
   5 -10  14   -0.01    0.19 
   5  -9  14    0.77    0.20 
   5  -8  14    0.09    0.12 
   5  -7  14    0.02    0.12 
   5  -6  14    0.16    0.13 
   5  -5  14    1.00    0.19 
   5  -4  14    0.29    0.12 
  -5   3 -14   -0.04    0.14 
   5  -3  14    0.00    0.10 
  -5   2 -14    0.11    0.16 
   5  -2  14    0.08    0.10 
  -5   1 -14   -0.02    0.15 
   5  -1  14    0.18    0.11 
  -5   0 -14   -0.13    0.13 
   5   0  14    0.08    0.11 
  -5  -1 -14    0.29    0.16 
   5   1  14    0.25    0.12 
  -5  -2 -14    0.00    0.14 
   5   2  14   -0.02    0.10 
  -5  -3 -14   -0.10    0.14 
  -5  -4 -14    0.26    0.18 
  -5  -5 -14    1.08    0.24 
  -5  -6 -14    0.04    0.17 
  -5  -7 -14   -0.16    0.18 
  -5  -8 -14   -0.18    0.20 
  -5  -9 -14    0.50    0.24 
  -5 -10 -14    0.06    0.20 
  -5 -11 -14    0.29    0.23 
   5 -10  15    0.10    0.21 
   5  -9  15    0.21    0.17 
   5  -8  15    0.03    0.14 
   5  -7  15    0.37    0.17 
   5  -6  15    0.01    0.12 
   5  -5  15    0.09    0.12 
   5  -4  15    0.05    0.12 
  -5   3 -15    0.16    0.17 
   5  -3  15    0.19    0.12 
  -5   2 -15    0.10    0.18 
   5  -2  15    0.00    0.10 
  -5   1 -15    0.31    0.20 
   5  -1  15    0.47    0.14 
  -5   0 -15    0.00    0.16 
   5   0  15    0.06    0.11 
  -5  -1 -15    0.36    0.20 
   5   1  15    0.43    0.15 
  -5  -2 -15    0.24    0.17 
  -5  -3 -15   -0.03    0.17 
  -5  -4 -15    0.00    0.18 
  -5  -5 -15   -0.13    0.20 
  -5  -6 -15   -0.06    0.18 
  -5  -7 -15    0.32    0.24 
  -5  -8 -15   -0.01    0.21 
  -5  -9 -15   -0.27    0.20 
  -5 -10 -15   -0.14    0.22 
   5  -8  16    0.20    0.17 
   5  -7  16    0.21    0.17 
   5  -6  16    0.44    0.18 
   5  -5  16    0.40    0.16 
   5  -4  16   -0.13    0.12 
  -5   3 -16    0.07    0.19 
   5  -3  16    0.03    0.13 
  -5   2 -16   -0.17    0.19 
   5  -2  16    0.07    0.14 
  -5   1 -16   -0.14    0.18 
   5  -1  16    0.19    0.14 
  -5   0 -16    0.05    0.19 
   5   0  16    0.29    0.14 
  -5  -1 -16    0.22    0.20 
  -5  -2 -16    0.26    0.20 
  -5  -3 -16   -0.07    0.19 
  -5  -4 -16    0.10    0.21 
  -5  -5 -16    0.23    0.23 
  -5  -6 -16    0.18    0.22 
  -5  -7 -16    0.22    0.24 
  -5  -8 -16    0.00    0.23 
   5  -7  17    0.09    0.17 
   5  -6  17   -0.10    0.14 
   5  -5  17   -0.02    0.14 
   5  -4  17    0.10    0.16 
   5  -3  17    0.32    0.17 
  -5   2 -17    0.01    0.22 
   5  -2  17    0.16    0.16 
  -5   1 -17    0.26    0.22 
   5  -1  17    0.76    0.20 
  -5   0 -17    0.29    0.22 
   5   0  17    0.17    0.17 
  -5  -1 -17    0.26    0.22 
  -5  -2 -17    0.13    0.21 
  -5  -3 -17    0.24    0.23 
  -5  -4 -17   -0.03    0.24 
  -5  -5 -17    0.03    0.23 
  -5  -6 -17    0.17    0.25 
  -5  -7 -17    0.08    0.25 
   5  -4  18    0.03    0.17 
   5  -3  18    0.15    0.18 
  -5   2 -18   -0.15    0.23 
   5  -2  18    0.14    0.16 
  -5   1 -18    0.08    0.23 
   5  -1  18    0.21    0.20 
  -5   0 -18   -0.03    0.22 
  -5  -1 -18    0.37    0.26 
  -5  -2 -18    0.08    0.23 
  -5  -3 -18    0.39    0.26 
  -5  -4 -18    0.28    0.29 
   6  -4 -18    0.22    0.40 
   6  -3 -18    0.05    0.37 
   6  -2 -18   -0.16    0.34 
   6  -1 -18    0.12    0.34 
   6   0 -18    0.68    0.39 
   6   1 -18    0.15    0.36 
   6   2 -18    0.02    0.36 
  -6  -3  18    0.40    0.15 
   6  -6 -17   -0.06    0.35 
   6  -5 -17    0.03    0.33 
   6  -4 -17    0.25    0.31 
   6  -3 -17    0.42    0.32 
   6  -2 -17    0.17    0.27 
   6  -1 -17   -0.15    0.23 
   6   0 -17   -0.05    0.23 
   6   1 -17    0.38    0.28 
  -6  -2  17    0.23    0.18 
   6   2 -17    0.35    0.31 
   6  -8 -16   -0.22    0.31 
   6  -7 -16    0.13    0.32 
   6  -6 -16   -0.03    0.28 
   6  -5 -16    0.22    0.26 
   6  -4 -16    0.26    0.25 
   6  -3 -16    0.28    0.24 
   6  -2 -16   -0.13    0.22 
   6  -1 -16    0.36    0.23 
   6   0 -16    0.20    0.21 
   6   1 -16    0.18    0.21 
  -6  -2  16   -0.35    0.19 
   6   2 -16    0.22    0.22 
  -6  -3  16    0.31    0.17 
   6   3 -16    0.34    0.26 
  -6  -4  16    0.01    0.14 
  -6  -5  16    0.49    0.19 
  -6  -6  16   -0.60    0.22 
   6 -10 -15    0.18    0.33 
   6  -9 -15    0.30    0.30 
   6  -8 -15   -0.14    0.25 
   6  -7 -15    0.52    0.27 
   6  -6 -15    0.07    0.21 
   6  -5 -15   -0.07    0.18 
   6  -4 -15   -0.11    0.17 
   6  -3 -15    0.37    0.20 
   6  -2 -15    0.16    0.19 
   6  -1 -15    0.27    0.19 
  -6   0  15   -0.17    0.20 
  -6   0  15    0.05    0.09 
   6   0 -15    0.04    0.16 
  -6  -1  15    0.04    0.11 
   6   1 -15    0.51    0.20 
  -6  -2  15    0.18    0.11 
   6   2 -15   -0.03    0.18 
  -6  -3  15    0.39    0.13 
   6   3 -15    0.21    0.22 
  -6  -4  15   -0.01    0.10 
  -6  -5  15    0.09    0.12 
  -6  -6  15   -0.11    0.11 
  -6  -7  15    0.55    0.17 
  -6  -7  15   -0.10    0.25 
  -6  -8  15   -0.43    0.29 
  -6  -8  15    0.10    0.14 
  -6  -9  15   -0.01    0.24 
   6 -11 -14   -0.08    0.29 
   6 -10 -14    0.23    0.27 
   6  -9 -14    0.06    0.22 
   6  -8 -14    0.21    0.22 
   6  -7 -14    0.07    0.20 
   6  -6 -14    0.11    0.17 
   6  -5 -14    0.16    0.17 
   6  -4 -14   -0.19    0.14 
   6  -3 -14   -0.01    0.14 
   6  -2 -14   -0.03    0.15 
  -6   1  14   -0.10    0.07 
   6  -1 -14    0.08    0.16 
  -6   0  14    1.42    0.17 
   6   0 -14    0.99    0.24 
  -6  -1  14    0.02    0.08 
   6   1 -14    0.00    0.16 
  -6  -2  14   -0.03    0.07 
   6   2 -14    0.06    0.16 
  -6  -3  14    0.10    0.08 
   6   3 -14   -0.11    0.14 
  -6  -4  14   -0.01    0.09 
  -6  -5  14    0.02    0.09 
  -6  -6  14    0.08    0.11 
  -6  -7  14   -0.03    0.10 
  -6  -8  14    0.14    0.13 
  -6  -9  14   -0.11    0.14 
  -6 -10  14    0.08    0.14 
  -6 -10  14   -0.55    0.29 
  -6 -11  14   -0.51    0.31 
   6 -12 -13    0.37    0.30 
   6 -11 -13    0.10    0.24 
   6 -10 -13    0.26    0.23 
   6  -9 -13    0.22    0.20 
   6  -8 -13    0.12    0.17 
   6  -7 -13   -0.02    0.16 
   6  -6 -13    0.20    0.16 
   6  -5 -13   -0.03    0.15 
   6  -4 -13    0.11    0.15 
   6  -3 -13    0.59    0.20 
  -6   2  13   -0.01    0.07 
   6  -2 -13    0.26    0.17 
  -6   1  13    1.08    0.14 
   6  -1 -13    1.01    0.23 
  -6   0  13    0.02    0.07 
   6   0 -13   -0.02    0.13 
  -6  -1  13    1.09    0.15 
   6   1 -13    0.93    0.24 
  -6  -2  13    0.03    0.07 
   6   2 -13    0.11    0.16 
  -6  -3  13    0.68    0.13 
   6   3 -13    0.61    0.21 
  -6  -4  13   -0.02    0.08 
  -6  -5  13    0.05    0.09 
  -6  -6  13    0.03    0.09 
  -6  -7  13    0.02    0.10 
  -6  -8  13    0.26    0.13 
  -6  -9  13    0.03    0.11 
  -6 -10  13    0.03    0.16 
  -6 -11  13    0.08    0.19 
  -6 -11  13   -0.27    0.29 
  -6 -12  13    0.00    0.24 
   6 -13 -12    0.28    0.30 
   6 -12 -12   -0.02    0.25 
   6 -11 -12    0.11    0.19 
   6 -11 -12    0.07    0.21 
   6 -10 -12    0.13    0.18 
   6 -10 -12    0.03    0.17 
   6  -9 -12    0.42    0.18 
   6  -9 -12    0.16    0.17 
   6  -8 -12    0.20    0.15 
   6  -8 -12    0.14    0.15 
   6  -7 -12    0.63    0.17 
   6  -7 -12    0.44    0.15 
   6  -6 -12    0.17    0.13 
   6  -6 -12    0.56    0.16 
   6  -5 -12    1.22    0.21 
   6  -5 -12    0.71    0.14 
   6  -4 -12    0.21    0.13 
   6  -4 -12    0.37    0.16 
   6  -3 -12    1.50    0.17 
   6  -3 -12    1.32    0.24 
  -6   2  12    0.26    0.08 
   6  -2 -12    0.33    0.16 
  -6   1  12    0.94    0.13 
   6  -1 -12    0.93    0.21 
  -6   0  12    0.50    0.10 
   6   0 -12    0.36    0.18 
  -6  -1  12    0.99    0.14 
   6   1 -12    0.90    0.23 
  -6  -2  12    0.32    0.09 
   6   2 -12    0.19    0.16 
  -6  -3  12    1.83    0.19 
   6   3 -12    1.46    0.28 
  -6  -4  12    0.38    0.10 
  -6  -5  12    1.29    0.18 
  -6  -6  12    0.24    0.10 
  -6  -7  12    0.49    0.14 
  -6  -8  12    0.19    0.11 
  -6  -9  12    0.16    0.12 
  -6 -10  12    0.05    0.12 
  -6 -11  12    0.23    0.17 
  -6 -12  12   -0.24    0.23 
   6 -13 -11    0.00    0.26 
   6 -12 -11    0.06    0.20 
   6 -11 -11    0.11    0.18 
   6 -10 -11    0.15    0.15 
   6 -10 -11    0.22    0.16 
   6  -9 -11    0.08    0.14 
   6  -9 -11   -0.03    0.13 
   6  -8 -11   -0.09    0.12 
   6  -8 -11   -0.01    0.13 
   6  -7 -11    1.60    0.20 
   6  -7 -11    1.13    0.20 
   6  -6 -11   -0.02    0.10 
   6  -6 -11    0.04    0.12 
   6  -5 -11    0.25    0.10 
   6  -5 -11    0.27    0.14 
   6  -4 -11    0.33    0.14 
   6  -4 -11    0.20    0.11 
  -6   3  11    0.21    0.07 
   6  -3 -11    0.46    0.12 
   6  -3 -11    0.29    0.14 
  -6   2  11    0.35    0.08 
   6  -2 -11    0.31    0.12 
   6  -2 -11    0.20    0.13 
  -6   1  11    0.06    0.06 
   6  -1 -11    0.12    0.12 
   6  -1 -11   -0.01    0.10 
  -6   0  11   -0.01    0.05 
   6   0 -11    0.10    0.12 
   6   0 -11   -0.12    0.10 
  -6  -1  11    0.04    0.06 
   6   1 -11    0.03    0.12 
   6   1 -11    0.11    0.11 
  -6  -2  11    0.29    0.08 
   6   2 -11    0.46    0.17 
  -6  -3  11    0.40    0.10 
   6   3 -11    0.45    0.17 
  -6  -4  11    0.15    0.08 
   6   4 -11    0.38    0.18 
  -6  -5  11    0.37    0.10 
  -6  -6  11    0.01    0.07 
  -6  -7  11    1.01    0.16 
  -6  -8  11    0.04    0.08 
  -6  -9  11   -0.07    0.08 
  -6 -10  11    0.11    0.11 
  -6 -11  11   -0.06    0.12 
  -6 -12  11   -0.03    0.14 
  -6 -13  11   -0.40    0.25 
   6 -14 -10    0.09    0.26 
   6 -13 -10    0.04    0.21 
   6 -12 -10    0.13    0.18 
   6 -11 -10    0.37    0.17 
   6 -10 -10    0.22    0.15 
   6  -9 -10    0.24    0.15 
   6  -8 -10   -0.01    0.12 
   6  -8 -10    0.17    0.12 
   6  -7 -10    0.36    0.13 
   6  -7 -10    0.25    0.12 
   6  -6 -10    0.02    0.11 
   6  -6 -10   -0.09    0.10 
   6  -5 -10    0.31    0.11 
   6  -5 -10    0.28    0.13 
  -6   4  10    0.46    0.08 
   6  -4 -10    0.50    0.12 
   6  -4 -10    0.43    0.14 
  -6   3  10    3.88    0.24 
   6  -3 -10    4.15    0.27 
   6  -3 -10    3.64    0.32 
  -6   2  10    0.20    0.06 
   6  -2 -10   -0.06    0.11 
   6  -2 -10    0.22    0.10 
  -6   1  10    0.72    0.10 
   6  -1 -10    0.54    0.12 
   6  -1 -10    0.48    0.16 
  -6   0  10    1.79    0.15 
   6   0 -10    1.67    0.25 
   6   0 -10    1.60    0.18 
  -6  -1  10    0.62    0.10 
   6   1 -10    0.62    0.14 
   6   1 -10    0.69    0.19 
  -6  -2  10    0.34    0.08 
   6   2 -10    0.04    0.12 
  -6  -3  10    4.06    0.27 
   6   3 -10    4.09    0.41 
  -6  -4  10    0.41    0.09 
   6   4 -10    0.46    0.17 
  -6  -5  10    0.18    0.08 
  -6  -6  10   -0.04    0.06 
  -6  -7  10    0.22    0.08 
  -6  -8  10    0.14    0.09 
  -6  -9  10    0.23    0.10 
  -6 -10  10    0.24    0.12 
  -6 -11  10    0.23    0.12 
  -6 -12  10    0.02    0.13 
  -6 -13  10    0.10    0.16 
  -6 -14  10   -0.98    0.31 
  -6 -14  10    0.07    0.19 
   6 -14  -9   -0.03    0.23 
   6 -13  -9   -0.16    0.17 
   6 -12  -9   -0.16    0.14 
   6 -11  -9    0.01    0.13 
   6 -10  -9    0.38    0.14 
   6  -9  -9   -0.05    0.12 
   6  -8  -9   -0.12    0.11 
   6  -7  -9    0.03    0.11 
   6  -6  -9    0.10    0.09 
   6  -6  -9    0.17    0.12 
   6  -5  -9    0.24    0.10 
   6  -5  -9    0.14    0.12 
  -6   4   9    0.07    0.05 
   6  -4  -9   -0.05    0.08 
   6  -4  -9   -0.04    0.09 
  -6   3   9    0.22    0.06 
   6  -3  -9    0.14    0.11 
   6  -3  -9    0.27    0.09 
  -6   2   9    0.07    0.04 
   6  -2  -9    0.03    0.09 
   6  -2  -9   -0.08    0.07 
  -6   1   9    0.93    0.11 
   6  -1  -9    0.65    0.16 
   6  -1  -9    0.79    0.12 
  -6   0   9   -0.10    0.04 
   6   0  -9    0.07    0.10 
   6   0  -9    0.05    0.08 
  -6  -1   9    1.08    0.13 
   6   1  -9    0.69    0.18 
  -6  -2   9    0.01    0.05 
   6   2  -9   -0.11    0.09 
  -6  -3   9    0.14    0.07 
   6   3  -9    0.16    0.13 
  -6  -4   9    0.04    0.05 
   6   4  -9    0.03    0.13 
  -6  -5   9    0.21    0.08 
  -6  -6   9    0.06    0.07 
  -6  -7   9   -0.05    0.06 
  -6  -8   9   -0.05    0.06 
  -6  -9   9    0.02    0.08 
  -6 -10   9    0.56    0.14 
  -6 -11   9    0.13    0.11 
  -6 -12   9   -0.13    0.10 
  -6 -13   9   -0.02    0.13 
  -6 -14   9   -0.03    0.17 
   6 -15  -8    0.30    0.26 
   6 -14  -8   -0.10    0.20 
   6 -13  -8    0.06    0.17 
   6 -12  -8    0.04    0.13 
   6 -11  -8    0.21    0.14 
   6 -10  -8    0.16    0.12 
   6  -9  -8    0.06    0.11 
   6  -8  -8    0.48    0.13 
   6  -7  -8    0.04    0.11 
   6  -6  -8    0.76    0.15 
  -6   5   8    6.90    0.34 
   6  -5  -8    6.96    0.39 
   6  -5  -8    6.99    0.42 
  -6   4   8    3.05    0.18 
   6  -4  -8    2.69    0.24 
   6  -4  -8    3.41    0.22 
  -6   3   8    0.20    0.06 
   6  -3  -8    0.11    0.10 
   6  -3  -8    0.25    0.07 
  -6   2   8    0.06    0.04 
   6  -2  -8    0.14    0.10 
   6  -2  -8    0.30    0.08 
  -6   1   8    0.62    0.09 
   6  -1  -8    0.77    0.10 
   6  -1  -8    0.63    0.15 
  -6   0   8    0.05    0.05 
   6   0  -8   -0.03    0.09 
   6   0  -8    0.00    0.07 
  -6  -1   8    0.71    0.10 
   6   1  -8    0.63    0.16 
  -6  -2   8    0.32    0.07 
   6   2  -8    0.18    0.12 
  -6  -3   8    0.18    0.06 
   6   3  -8    0.13    0.13 
  -6  -4   8    3.08    0.22 
   6   4  -8    3.19    0.35 
  -6  -5   8    6.78    0.39 
  -6  -6   8    0.68    0.12 
  -6  -7   8   -0.05    0.06 
  -6  -8   8    0.50    0.12 
  -6  -9   8    0.10    0.08 
  -6 -10   8    0.04    0.09 
  -6 -11   8    0.18    0.11 
  -6 -12   8    0.00    0.10 
  -6 -13   8    0.08    0.13 
  -6 -14   8   -0.05    0.15 
  -6 -15   8   -0.19    0.27 
   6 -15  -7   -0.02    0.22 
   6 -14  -7   -0.28    0.16 
   6 -13  -7    0.09    0.16 
   6 -12  -7    0.02    0.13 
   6 -11  -7    0.41    0.15 
   6 -10  -7    0.07    0.11 
   6  -9  -7    0.39    0.14 
   6  -8  -7    0.58    0.15 
   6  -7  -7    5.25    0.34 
   6  -6  -7    1.36    0.18 
  -6   5   7    0.07    0.04 
   6  -5  -7    0.15    0.10 
  -6   4   7    0.05    0.04 
   6  -4  -7    0.00    0.09 
   6  -4  -7    0.10    0.07 
  -6   3   7    0.23    0.05 
   6  -3  -7    0.28    0.11 
   6  -3  -7    0.21    0.07 
   6  -2  -7    1.44    0.12 
   6  -2  -7    1.30    0.18 
  -6   1   7    0.17    0.05 
   6  -1  -7    0.15    0.10 
  -6   0   7    0.07    0.05 
   6   0  -7    0.00    0.09 
  -6  -1   7    0.28    0.07 
   6   1  -7    0.03    0.10 
  -6  -2   7    1.62    0.15 
   6   2  -7    1.63    0.23 
  -6  -3   7    0.27    0.07 
   6   3  -7    0.22    0.12 
  -6  -4   7    0.05    0.05 
  -6  -5   7    0.03    0.05 
  -6  -6   7    1.32    0.16 
  -6  -7   7    6.59    0.39 
  -6  -8   7    0.69    0.13 
  -6  -9   7    0.21    0.09 
  -6 -10   7    0.02    0.08 
  -6 -11   7    0.35    0.11 
  -6 -12   7    0.03    0.09 
  -6 -13   7    0.25    0.13 
  -6 -14   7    0.03    0.12 
  -6 -15   7   -0.11    0.16 
   6 -16  -6    0.04    0.25 
   6 -15  -6    0.40    0.24 
   6 -14  -6    0.08    0.17 
   6 -13  -6    0.28    0.15 
   6 -12  -6    0.05    0.12 
   6 -11  -6    0.95    0.17 
   6 -10  -6    1.10    0.18 
   6  -9  -6    1.45    0.19 
   6  -8  -6    0.19    0.11 
   6  -7  -6   -0.14    0.07 
   6  -6  -6    0.72    0.13 
   6  -6  -6    0.74    0.11 
   6  -5  -6    1.98    0.17 
   6  -5  -6    1.86    0.19 
   6  -4  -6    0.08    0.07 
   6  -4  -6    0.10    0.09 
   6  -3  -6    4.15    0.28 
   6  -3  -6    4.42    0.28 
   6  -3  -6    4.41    0.24 
   6  -2  -6    2.64    0.21 
  -6   1   6    1.33    0.12 
   6  -1  -6    1.20    0.17 
  -6   0   6    2.61    0.18 
   6   0  -6    2.77    0.26 
  -6  -1   6    1.50    0.13 
   6   1  -6    1.15    0.19 
  -6  -2   6    2.68    0.18 
   6   2  -6    2.57    0.27 
  -6  -3   6    4.89    0.28 
   6   3  -6    4.56    0.36 
  -6  -4   6    0.12    0.06 
  -6  -5   6    1.78    0.17 
  -6  -6   6    0.70    0.12 
  -6  -7   6    0.02    0.06 
  -6  -8   6    0.16    0.08 
  -6  -9   6    1.75    0.20 
  -6 -10   6    1.30    0.18 
  -6 -11   6    1.00    0.16 
  -6 -12   6    0.10    0.09 
  -6 -13   6    0.11    0.11 
  -6 -14   6   -0.10    0.11 
  -6 -15   6    0.33    0.17 
  -6 -16   6   -0.04    0.22 
   6 -16  -5   -0.33    0.18 
   6 -15  -5   -0.03    0.18 
   6 -14  -5   -0.10    0.15 
   6 -13  -5    0.16    0.17 
   6 -12  -5    0.05    0.14 
   6 -11  -5   -0.10    0.12 
   6 -10  -5    0.21    0.12 
   6  -9  -5    0.23    0.12 
   6  -8  -5   -0.08    0.09 
   6  -7  -5    1.51    0.14 
   6  -7  -5    1.40    0.17 
   6  -6  -5    1.89    0.17 
   6  -6  -5    1.89    0.19 
   6  -5  -5    0.03    0.07 
   6  -5  -5    0.00    0.06 
   6  -4  -5    0.04    0.06 
   6  -4  -5   -0.03    0.08 
   6  -3  -5    0.22    0.08 
   6  -3  -5    0.09    0.08 
   6  -2  -5    5.40    0.32 
   6  -2  -5    5.15    0.32 
   6  -1  -5    6.43    0.37 
   6  -1  -5    6.05    0.38 
   6   0  -5   -0.03    0.06 
   6   0  -5   -0.04    0.08 
  -6  -1   5    6.34    0.34 
   6   1  -5    6.35    0.41 
  -6  -2   5    5.89    0.32 
   6   2  -5    5.91    0.40 
  -6  -3   5    0.26    0.07 
   6   3  -5    0.22    0.11 
  -6  -4   5    0.03    0.05 
  -6  -5   5    0.00    0.04 
  -6  -6   5    2.07    0.19 
  -6  -7   5    1.72    0.18 
  -6  -8   5   -0.04    0.06 
  -6  -9   5    0.22    0.09 
  -6 -10   5    0.22    0.09 
  -6 -11   5    0.08    0.09 
  -6 -12   5    0.19    0.10 
  -6 -13   5    0.14    0.10 
  -6 -14   5   -0.07    0.11 
  -6 -15   5    0.10    0.14 
  -6 -16   5    0.32    0.29 
   6 -16  -4    0.15    0.22 
   6 -15  -4    0.10    0.20 
   6 -14  -4    0.33    0.19 
   6 -13  -4    0.12    0.15 
   6 -12  -4    0.20    0.14 
   6 -11  -4    0.70    0.17 
   6 -10  -4    0.88    0.17 
   6  -9  -4    0.09    0.10 
   6  -8  -4   -0.01    0.07 
   6  -8  -4    0.00    0.09 
   6  -7  -4   -0.02    0.06 
   6  -7  -4    0.00    0.08 
   6  -6  -4    3.88    0.25 
   6  -6  -4    3.94    0.26 
   6  -5  -4    4.45    0.27 
   6  -5  -4    4.19    0.26 
   6  -4  -4    1.71    0.16 
   6  -4  -4    1.67    0.16 
   6  -3  -4    0.50    0.10 
   6  -3  -4    0.53    0.11 
   6  -2  -4    2.93    0.20 
   6  -2  -4    2.48    0.20 
   6  -1  -4    1.35    0.16 
   6  -1  -4    1.57    0.17 
   6   0  -4    0.44    0.11 
   6   0  -4    0.24    0.10 
   6   1  -4    1.49    0.19 
   6   1  -4    1.52    0.18 
   6   2  -4    3.20    0.25 
   6   2  -4    3.07    0.26 
  -6  -3   4    0.44    0.09 
   6   3  -4    0.37    0.13 
  -6  -4   4    1.90    0.17 
  -6  -5   4    4.90    0.29 
  -6  -6   4    4.22    0.27 
  -6  -7   4   -0.05    0.05 
  -6  -8   4    0.05    0.06 
  -6  -9   4   -0.03    0.06 
  -6 -10   4    1.28    0.17 
  -6 -11   4    0.60    0.13 
  -6 -12   4    0.49    0.12 
  -6 -13   4    0.32    0.12 
  -6 -14   4    0.19    0.11 
  -6 -15   4    0.39    0.23 
  -6 -16   4    0.00    0.26 
   6 -16  -3    0.03    0.21 
   6 -15  -3    0.00    0.19 
   6 -14  -3    0.14    0.17 
   6 -13  -3    0.01    0.14 
   6 -12  -3    0.34    0.15 
   6 -11  -3    1.24    0.20 
   6 -10  -3    0.06    0.11 
   6  -9  -3   -0.01    0.09 
   6  -8  -3    0.72    0.13 
   6  -8  -3    0.74    0.12 
   6  -7  -3    5.97    0.32 
   6  -7  -3    4.86    0.32 
   6  -6  -3    0.35    0.09 
   6  -6  -3    0.45    0.09 
   6  -5  -3    0.25    0.08 
   6  -5  -3    0.18    0.08 
   6  -4  -3    1.31    0.14 
   6  -4  -3    1.22    0.14 
   6  -3  -3    1.11    0.13 
   6  -3  -3    1.17    0.14 
   6  -2  -3    0.86    0.11 
   6  -2  -3    0.91    0.13 
   6  -1  -3    1.91    0.18 
   6  -1  -3    2.08    0.17 
   6   0  -3    0.05    0.07 
   6   0  -3   -0.03    0.06 
   6   1  -3    2.49    0.23 
   6   1  -3    2.37    0.22 
   6   2  -3    1.02    0.16 
   6   2  -3    0.85    0.15 
   6   3  -3    1.24    0.17 
   6   3  -3    1.13    0.17 
  -6  -5   3    0.37    0.08 
  -6  -6   3    0.51    0.10 
  -6  -7   3    6.44    0.37 
  -6  -8   3    0.69    0.12 
  -6  -9   3    0.08    0.07 
  -6 -10   3    0.04    0.07 
  -6 -11   3    1.39    0.18 
  -6 -12   3    0.35    0.12 
  -6 -13   3    0.07    0.09 
  -6 -14   3    0.03    0.17 
  -6 -14   3    0.04    0.11 
  -6 -15   3    0.15    0.21 
  -6 -16   3   -0.31    0.24 
   6 -17  -2   -0.32    0.21 
   6 -16  -2   -0.09    0.20 
   6 -15  -2    0.54    0.22 
   6 -14  -2    0.02    0.17 
   6 -13  -2    0.87    0.20 
   6 -12  -2    0.00    0.12 
   6 -11  -2    3.45    0.29 
   6 -10  -2   -0.01    0.10 
   6  -9  -2    3.02    0.22 
   6  -9  -2    3.13    0.24 
   6  -8  -2   -0.03    0.08 
   6  -8  -2    0.06    0.07 
   6  -7  -2   -0.02    0.06 
   6  -7  -2    0.18    0.08 
   6  -6  -2    0.08    0.06 
   6  -6  -2    0.14    0.08 
   6  -5  -2    3.88    0.24 
   6  -5  -2    4.25    0.25 
   6  -4  -2    0.62    0.10 
   6  -4  -2    0.53    0.10 
   6  -3  -2   18.59    0.88 
   6  -3  -2   19.19    0.89 
   6  -2  -2    3.37    0.21 
   6  -2  -2    3.21    0.22 
   6  -1  -2    4.92    0.28 
   6  -1  -2    5.03    0.30 
   6   0  -2    2.15    0.19 
   6   0  -2    2.73    0.20 
   6   1  -2    5.56    0.34 
   6   1  -2    5.44    0.34 
   6   2  -2    3.59    0.25 
   6   2  -2    3.40    0.26 
   6   3  -2   21.04    1.02 
   6   4  -2    0.68    0.13 
   6   5  -2    5.04    0.34 
  -6  -6   2    0.07    0.06 
  -6  -7   2    0.05    0.05 
  -6  -8   2    0.07    0.06 
  -6  -9   2    2.64    0.20 
  -6 -10   2    0.05    0.07 
  -6 -11   2    3.43    0.25 
  -6 -12   2   -0.03    0.08 
  -6 -13   2    0.87    0.20 
  -6 -13   2    0.73    0.14 
  -6 -14   2    0.12    0.16 
  -6 -15   2    0.45    0.23 
  -6 -16   2   -0.04    0.25 
  -6 -17   2    0.61    0.30 
   6 -17  -1    0.06    0.23 
   6 -16  -1    0.02    0.21 
   6 -15  -1    0.10    0.19 
   6 -14  -1    0.39    0.18 
   6 -13  -1    0.11    0.14 
   6 -12  -1    0.14    0.13 
   6 -11  -1    0.63    0.15 
   6 -10  -1   -0.07    0.08 
   6 -10  -1    0.02    0.10 
   6  -9  -1    0.03    0.07 
   6  -9  -1   -0.05    0.09 
   6  -8  -1    2.85    0.20 
   6  -8  -1    2.73    0.21 
   6  -7  -1    4.47    0.26 
   6  -7  -1    4.07    0.26 
   6  -6  -1    0.72    0.10 
   6  -6  -1    0.61    0.10 
   6  -5  -1    0.02    0.05 
   6  -5  -1   -0.02    0.06 
   6  -4  -1    0.22    0.07 
   6  -4  -1    0.26    0.08 
   6  -3  -1    0.39    0.08 
   6  -3  -1    0.37    0.09 
   6  -2  -1    2.16    0.14 
   6  -2  -1    1.29    0.15 
   6  -1  -1    0.08    0.06 
   6  -1  -1    0.11    0.06 
   6   0  -1    0.22    0.07 
   6   0  -1    0.00    0.05 
   6   1  -1   -0.02    0.06 
   6   1  -1    0.15    0.07 
   6   2  -1    1.43    0.16 
   6   2  -1    1.30    0.16 
   6   3  -1    0.62    0.12 
   6   4  -1    0.38    0.10 
   6   5  -1    0.07    0.08 
  -6  -7   1    5.08    0.30 
  -6  -8   1    3.15    0.22 
  -6  -9   1   -0.01    0.05 
  -6 -10   1   -0.05    0.06 
  -6 -11   1    0.57    0.12 
  -6 -12   1    0.15    0.14 
  -6 -12   1   -0.02    0.08 
  -6 -13   1    0.01    0.13 
  -6 -13   1   -0.03    0.08 
  -6 -14   1    0.01    0.16 
  -6 -15   1   -0.04    0.19 
  -6 -16   1    0.29    0.25 
  -6 -17   1   -0.11    0.28 
   6 -17   0   -0.09    0.23 
   6 -16   0    0.14    0.22 
   6 -15   0    0.17    0.19 
   6 -14   0    0.17    0.17 
   6 -13   0   -0.02    0.14 
   6 -12   0    2.21    0.25 
   6 -11   0    0.00    0.11 
   6 -11   0   -0.12    0.08 
   6 -10   0   -0.02    0.08 
   6 -10   0    0.05    0.10 
   6  -9   0    0.00    0.09 
   6  -9   0   -0.06    0.07 
   6  -8   0    0.20    0.09 
   6  -8   0    0.28    0.08 
   6  -7   0    0.06    0.06 
   6  -7   0    0.12    0.07 
   6  -6   0    2.87    0.19 
   6  -6   0    2.69    0.19 
   6  -5   0   -0.02    0.04 
   6  -5   0    0.07    0.06 
   6  -4   0    6.56    0.35 
   6  -4   0    7.03    0.36 
   6  -3   0    0.00    0.04 
   6  -3   0   -0.02    0.04 
   6  -2   0   16.52    0.78 
   6  -2   0   17.53    0.80 
   6  -1   0    0.00    0.03 
   6  -1   0    0.01    0.05 
  -6   0   0    7.12    0.35 
   6   0   0    7.24    0.39 
  -6  -1   0   -0.01    0.03 
   6   1   0    0.06    0.05 
   6   1   0    0.03    0.04 
  -6  -2   0   16.62    0.77 
   6   2   0   17.63    0.83 
   6   3   0    0.02    0.05 
   6   4   0    6.93    0.41 
   6   5   0    0.01    0.07 
   6   6   0    3.42    0.26 
  -6  -7   0    0.01    0.05 
  -6  -8   0    0.17    0.08 
  -6  -9   0    0.01    0.06 
  -6 -10   0    0.11    0.07 
  -6 -11   0    0.04    0.12 
  -6 -11   0    0.02    0.07 
  -6 -12   0    2.00    0.20 
  -6 -12   0    2.44    0.27 
  -6 -13   0   -0.06    0.14 
  -6 -14   0    0.17    0.18 
  -6 -15   0    0.28    0.20 
  -6 -16   0    0.04    0.24 
  -6 -17   0   -0.15    0.28 
   6 -17   1   -0.05    0.24 
   6 -16   1    0.18    0.23 
   6 -15   1   -0.14    0.17 
   6 -14   1    0.11    0.16 
   6 -13   1    0.00    0.13 
   6 -12   1    0.34    0.15 
   6 -11   1    0.59    0.13 
   6 -11   1    0.72    0.16 
   6 -10   1    0.04    0.10 
   6 -10   1    0.06    0.08 
   6  -9   1   -0.01    0.07 
   6  -9   1    0.25    0.10 
   6  -8   1    3.39    0.23 
   6  -8   1    3.38    0.23 
   6  -7   1    4.34    0.27 
   6  -7   1    4.49    0.27 
   6  -6   1    0.65    0.10 
   6  -6   1    0.53    0.10 
   6  -5   1    0.06    0.05 
   6  -5   1   -0.02    0.05 
   6  -4   1    0.24    0.07 
   6  -4   1    0.23    0.06 
   6  -3   1    0.39    0.08 
   6  -2   1    1.27    0.13 
   6  -2   1    1.09    0.09 
  -6   1  -1    0.03    0.05 
   6  -1   1    0.07    0.05 
   6  -1   1    0.11    0.04 
  -6   0  -1    0.02    0.04 
   6   0   1    0.01    0.04 
   6   0   1   -0.03    0.04 
  -6  -1  -1    0.09    0.05 
   6   1   1    0.09    0.05 
   6   1   1    0.12    0.05 
  -6  -2  -1    1.11    0.10 
   6   2   1    1.28    0.15 
   6   3   1    0.41    0.09 
   6   4   1    0.37    0.10 
   6   5   1    0.10    0.07 
   6   6   1    0.70    0.14 
   6   7   1    4.91    0.34 
  -6  -8  -1    3.34    0.22 
  -6  -9  -1    0.00    0.06 
  -6 -10  -1   -0.12    0.10 
  -6 -10  -1   -0.05    0.06 
  -6 -11  -1    0.47    0.14 
  -6 -11  -1    0.63    0.11 
  -6 -12  -1   -0.03    0.12 
  -6 -13  -1   -0.17    0.12 
  -6 -14  -1    0.08    0.15 
  -6 -15  -1   -0.14    0.18 
  -6 -16  -1   -0.20    0.23 
  -6 -17  -1   -0.02    0.28 
   6 -16   2    0.01    0.21 
   6 -15   2    0.82    0.23 
   6 -14   2    0.18    0.17 
   6 -13   2    0.95    0.21 
   6 -12   2    0.04    0.11 
   6 -12   2    0.08    0.13 
   6 -11   2    3.62    0.26 
   6 -11   2    3.45    0.28 
   6 -10   2    0.08    0.10 
   6 -10   2    0.06    0.09 
   6  -9   2    3.52    0.25 
   6  -9   2    3.30    0.24 
   6  -8   2    0.05    0.07 
   6  -8   2    0.11    0.07 
   6  -7   2    0.02    0.06 
   6  -7   2    0.06    0.07 
   6  -6   2    0.00    0.05 
   6  -6   2    0.17    0.07 
   6  -5   2    4.45    0.26 
   6  -5   2    4.33    0.25 
   6  -4   2    0.67    0.10 
   6  -3   2   18.60    0.88 
   6  -3   2   20.12    0.89 
   6  -2   2    3.21    0.20 
   6  -2   2    3.08    0.17 
  -6   1  -2    5.47    0.30 
   6  -1   2    5.36    0.30 
   6  -1   2    5.10    0.26 
  -6   0  -2    2.32    0.16 
   6   0   2    2.34    0.17 
  -6  -1  -2    5.51    0.29 
   6   1   2    5.72    0.32 
  -6  -2  -2    3.39    0.20 
   6   2   2    3.42    0.23 
  -6  -3  -2   19.73    0.92 
   6   3   2   20.09    0.94 
   6   4   2    0.80    0.13 
   6   5   2    4.79    0.31 
   6   6   2   -0.05    0.07 
   6   7   2    0.00    0.07 
  -6  -8  -2   -0.02    0.09 
   6   8   2    0.15    0.09 
  -6  -9  -2    3.67    0.27 
  -6  -9  -2    3.35    0.23 
  -6 -10  -2    0.00    0.07 
  -6 -10  -2    0.06    0.11 
  -6 -11  -2    3.20    0.23 
  -6 -11  -2    3.58    0.29 
  -6 -12  -2    0.10    0.13 
  -6 -13  -2    0.55    0.18 
  -6 -14  -2    0.15    0.16 
  -6 -15  -2    0.56    0.22 
  -6 -16  -2   -0.04    0.23 
  -6 -17  -2    0.01    0.29 
   6 -16   3    0.15    0.22 
   6 -15   3    0.00    0.20 
   6 -14   3    0.13    0.17 
   6 -13   3    0.19    0.15 
   6 -13   3    0.17    0.13 
   6 -12   3    0.62    0.16 
   6 -12   3    0.35    0.13 
   6 -11   3    1.20    0.18 
   6 -11   3    1.51    0.20 
   6 -10   3    0.22    0.10 
   6 -10   3    0.06    0.10 
   6  -9   3    0.03    0.08 
   6  -9   3    0.07    0.09 
   6  -8   3    0.77    0.13 
   6  -8   3    0.97    0.13 
   6  -7   3    6.09    0.36 
   6  -7   3    6.55    0.35 
   6  -6   3    0.30    0.08 
   6  -6   3    0.73    0.09 
   6  -5   3    0.00    0.03 
   6  -5   3    0.30    0.08 
   6  -4   3    1.29    0.14 
   6  -4   3    1.16    0.10 
   6  -3   3    1.18    0.13 
   6  -3   3    0.93    0.08 
  -6   2  -3    0.84    0.13 
   6  -2   3    1.27    0.13 
   6  -2   3    0.68    0.06 
  -6   1  -3    1.95    0.17 
   6  -1   3    1.90    0.15 
  -6   0  -3    0.05    0.06 
   6   0   3   -0.10    0.03 
  -6  -1  -3    2.36    0.16 
   6   1   3    1.93    0.16 
  -6  -2  -3    0.85    0.10 
   6   2   3    0.89    0.12 
  -6  -3  -3    1.12    0.12 
   6   3   3    1.22    0.14 
  -6  -4  -3    1.28    0.13 
   6   4   3    1.39    0.16 
   6   5   3    0.27    0.09 
  -6  -6  -3    0.55    0.10 
   6   6   3    0.04    0.06 
  -6  -7  -3    6.62    0.38 
   6   7   3    6.82    0.41 
  -6  -8  -3    0.90    0.14 
   6   8   3    1.01    0.16 
  -6  -9  -3   -0.19    0.08 
  -6  -9  -3    0.01    0.06 
  -6 -10  -3    0.31    0.12 
  -6 -10  -3    0.19    0.08 
  -6 -11  -3    1.23    0.20 
  -6 -12  -3    0.40    0.15 
  -6 -13  -3   -0.03    0.13 
  -6 -14  -3    0.11    0.15 
  -6 -15  -3   -0.19    0.17 
  -6 -16  -3    0.00    0.23 
   6 -16   4   -0.01    0.21 
   6 -15   4    0.25    0.20 
   6 -14   4    0.26    0.18 
   6 -13   4    0.23    0.13 
   6 -13   4    0.16    0.14 
   6 -12   4    0.48    0.16 
   6 -12   4    0.52    0.15 
   6 -11   4    0.50    0.16 
   6 -11   4    0.84    0.16 
   6 -10   4    1.31    0.18 
   6 -10   4    1.41    0.18 
   6  -9   4   -0.05    0.09 
   6  -9   4    0.00    0.07 
   6  -8   4    0.09    0.07 
   6  -8   4    0.00    0.07 
   6  -7   4    0.11    0.07 
   6  -7   4    0.07    0.07 
   6  -5   4    4.82    0.26 
   6  -5   4    4.70    0.29 
   6  -4   4    1.68    0.12 
   6  -4   4    1.79    0.16 
   6  -3   4    0.43    0.05 
   6  -3   4    0.40    0.09 
  -6   2  -4    3.05    0.23 
   6  -2   4    2.90    0.20 
  -6   1  -4    1.68    0.17 
   6  -1   4    1.62    0.16 
  -6   0  -4    0.60    0.11 
   6   0   4    0.38    0.09 
  -6  -1  -4    1.51    0.15 
   6   1   4    1.55    0.15 
  -6  -2  -4    2.75    0.20 
   6   2   4    3.10    0.21 
  -6  -3  -4    0.54    0.09 
  -6  -3  -4    0.38    0.06 
   6   3   4    0.50    0.10 
  -6  -4  -4    1.59    0.12 
  -6  -4  -4    1.72    0.16 
   6   4   4    1.71    0.17 
  -6  -5  -4    4.62    0.26 
  -6  -5  -4    4.63    0.29 
  -6  -6  -4    4.66    0.28 
   6   6   4    4.59    0.30 
  -6  -7  -4    0.03    0.08 
   6   7   4    0.05    0.08 
  -6  -8  -4    0.00    0.09 
   6   8   4    0.10    0.09 
  -6  -9  -4    0.03    0.10 
  -6 -10  -4    1.36    0.19 
  -6 -11  -4    0.56    0.15 
  -6 -12  -4    0.32    0.14 
  -6 -13  -4    0.06    0.14 
  -6 -14  -4    0.27    0.16 
  -6 -15  -4   -0.21    0.19 
  -6 -16  -4    0.21    0.25 
   6 -16   5   -0.16    0.21 
   6 -15   5    0.15    0.18 
   6 -14   5   -0.23    0.16 
   6 -14   5    0.02    0.13 
   6 -13   5    0.06    0.15 
   6 -13   5   -0.03    0.12 
   6 -12   5   -0.03    0.12 
   6 -12   5    0.05    0.10 
   6 -11   5   -0.01    0.10 
   6 -11   5    0.04    0.12 
   6 -10   5    0.11    0.12 
   6 -10   5    0.10    0.09 
   6  -9   5    0.24    0.11 
   6  -9   5    0.16    0.10 
   6  -8   5    0.11    0.08 
   6  -8   5   -0.05    0.06 
   6  -7   5    1.53    0.17 
   6  -7   5    1.16    0.13 
   6  -6   5    2.22    0.19 
   6  -6   5    2.33    0.17 
   6  -5   5   -0.01    0.05 
   6  -5   5    0.12    0.05 
   6  -4   5    0.12    0.05 
   6  -4   5    0.08    0.06 
   6  -3   5    0.28    0.08 
   6  -3   5    0.32    0.04 
  -6   2  -5    6.44    0.39 
   6  -2   5    5.96    0.35 
  -6   1  -5    6.73    0.40 
   6  -1   5    6.90    0.37 
  -6   0  -5    0.04    0.08 
   6   0   5   -0.04    0.05 
  -6  -1  -5    6.39    0.37 
   6   1   5    6.62    0.36 
  -6  -2  -5    5.66    0.33 
   6   2   5    5.65    0.33 
  -6  -3  -5    0.27    0.09 
  -6  -3  -5    0.27    0.06 
   6   3   5    0.19    0.08 
  -6  -4  -5    0.07    0.05 
  -6  -4  -5    0.05    0.07 
   6   4   5    0.01    0.05 
  -6  -5  -5    0.05    0.06 
  -6  -5  -5    0.12    0.07 
   6   5   5    0.09    0.07 
  -6  -6  -5    2.11    0.21 
  -6  -6  -5    2.17    0.17 
   6   6   5    2.44    0.19 
  -6  -7  -5    1.68    0.16 
   6   7   5    1.71    0.20 
  -6  -8  -5    0.09    0.09 
   6   8   5    0.19    0.10 
  -6  -9  -5    0.19    0.11 
  -6 -10  -5    0.35    0.12 
  -6 -11  -5    0.05    0.12 
  -6 -12  -5   -0.07    0.12 
  -6 -13  -5    0.00    0.15 
  -6 -14  -5   -0.05    0.16 
  -6 -15  -5   -0.31    0.19 
  -6 -16  -5   -0.28    0.24 
   6 -16   6    0.04    0.22 
   6 -15   6    0.21    0.20 
   6 -14   6   -0.02    0.17 
   6 -14   6    0.08    0.14 
   6 -13   6    0.40    0.15 
   6 -13   6    0.09    0.15 
   6 -12   6    0.06    0.11 
   6 -12   6   -0.10    0.13 
   6 -11   6    0.68    0.15 
   6 -11   6    1.27    0.19 
   6 -10   6    2.10    0.22 
   6 -10   6    1.70    0.21 
   6  -9   6    2.02    0.23 
   6  -9   6    2.35    0.22 
   6  -8   6    0.24    0.10 
   6  -8   6    0.38    0.10 
   6  -7   6    0.07    0.07 
   6  -7   6   -0.04    0.06 
   6  -6   6    0.95    0.11 
   6  -6   6    0.79    0.13 
   6  -5   6    2.52    0.16 
   6  -5   6    2.11    0.20 
   6  -4   6    0.26    0.06 
   6  -4   6    0.03    0.06 
  -6   3  -6    5.06    0.35 
   6  -3   6    4.94    0.30 
  -6   2  -6    2.91    0.25 
   6  -2   6    2.72    0.20 
  -6   1  -6    1.26    0.18 
   6  -1   6    1.65    0.17 
  -6   0  -6    2.79    0.23 
   6   0   6    2.79    0.20 
  -6  -1  -6    1.44    0.17 
   6   1   6    1.39    0.15 
  -6  -2  -6    2.95    0.22 
   6   2   6    2.67    0.20 
  -6  -3  -6    4.43    0.30 
   6   3   6    5.23    0.30 
  -6  -4  -6    0.16    0.09 
  -6  -4  -6    0.08    0.06 
   6   4   6    0.02    0.05 
  -6  -5  -6    2.14    0.16 
  -6  -5  -6    2.00    0.20 
   6   5   6    2.09    0.20 
  -6  -6  -6    0.87    0.15 
  -6  -6  -6    0.76    0.11 
   6   6   6    1.14    0.15 
  -6  -7  -6    0.01    0.08 
  -6  -7  -6   -0.11    0.08 
   6   7   6    0.15    0.09 
  -6  -8  -6    0.06    0.10 
   6   8   6    0.30    0.11 
  -6  -9  -6    1.83    0.19 
  -6 -10  -6    1.56    0.19 
  -6 -11  -6    1.28    0.20 
  -6 -12  -6   -0.14    0.12 
  -6 -13  -6    0.34    0.16 
  -6 -14  -6   -0.18    0.16 
  -6 -15  -6    0.32    0.23 
  -6 -16  -6   -0.26    0.27 
   6 -15   7    0.29    0.20 
   6 -15   7   -0.03    0.22 
   6 -14   7   -0.04    0.18 
   6 -14   7    0.09    0.15 
   6 -13   7    0.07    0.12 
   6 -13   7    0.12    0.17 
   6 -12   7    0.03    0.13 
   6 -12   7   -0.03    0.10 
   6 -11   7    0.41    0.13 
   6 -11   7    0.84    0.16 
   6 -10   7   -0.11    0.10 
   6 -10   7    0.17    0.10 
   6  -9   7    0.54    0.14 
   6  -9   7    0.48    0.13 
   6  -8   7    0.05    0.07 
   6  -8   7    0.42    0.11 
   6  -7   7    6.97    0.43 
   6  -7   7    8.08    0.42 
   6  -6   7    1.38    0.18 
   6  -6   7    1.74    0.15 
   6  -5   7    0.05    0.06 
   6  -5   7    0.01    0.06 
   6  -4   7    0.01    0.06 
   6  -4   7    0.06    0.04 
  -6   3  -7    0.34    0.13 
   6  -3   7    0.21    0.07 
  -6   2  -7    1.89    0.23 
   6  -2   7    2.04    0.19 
  -6   1  -7    0.32    0.12 
   6  -1   7    0.24    0.08 
  -6   0  -7    0.13    0.09 
   6   0   7   -0.04    0.06 
  -6  -1  -7    0.10    0.09 
   6   1   7    0.22    0.09 
  -6  -2  -7    1.71    0.19 
   6   2   7    1.80    0.18 
  -6  -3  -7    0.09    0.09 
   6   3   7    0.35    0.10 
  -6  -4  -7    0.01    0.08 
  -6  -4  -7    0.04    0.06 
   6   4   7    0.04    0.06 
  -6  -5  -7   -0.12    0.07 
  -6  -5  -7    0.13    0.08 
   6   5   7   -0.03    0.07 
  -6  -6  -7    1.57    0.19 
  -6  -6  -7    1.33    0.15 
   6   6   7    1.89    0.19 
  -6  -7  -7    6.21    0.40 
  -6  -7  -7    6.48    0.37 
   6   7   7    6.62    0.38 
  -6  -8  -7    0.44    0.13 
  -6  -8  -7    0.60    0.14 
  -6  -9  -7    0.24    0.11 
  -6  -9  -7    0.28    0.13 
  -6 -10  -7   -0.11    0.11 
  -6 -11  -7    0.47    0.15 
  -6 -12  -7   -0.13    0.14 
  -6 -13  -7   -0.04    0.14 
  -6 -14  -7    0.05    0.17 
  -6 -15  -7   -0.14    0.22 
   6 -15   8    0.24    0.24 
   6 -15   8    0.14    0.21 
   6 -14   8    0.09    0.17 
   6 -14   8    0.06    0.20 
   6 -13   8    0.23    0.14 
   6 -13   8    0.28    0.18 
   6 -12   8    0.12    0.11 
   6 -12   8   -0.02    0.15 
   6 -11   8    0.39    0.15 
   6 -11   8    0.25    0.12 
   6 -10   8    0.27    0.11 
   6 -10   8    0.36    0.14 
   6  -9   8    0.17    0.10 
   6  -9   8    0.10    0.09 
   6  -8   8    0.64    0.14 
   6  -8   8    0.85    0.13 
   6  -7   8    0.02    0.08 
   6  -7   8    0.01    0.07 
   6  -6   8    0.79    0.15 
   6  -6   8    1.22    0.13 
   6  -5   8    8.22    0.39 
   6  -5   8    6.10    0.40 
   6  -4   8    3.46    0.20 
   6  -4   8    3.18    0.24 
  -6   3  -8    0.16    0.12 
   6  -3   8    0.13    0.08 
  -6   2  -8    0.29    0.12 
   6  -2   8    0.29    0.09 
  -6   1  -8    0.69    0.16 
   6  -1   8    0.85    0.14 
  -6   0  -8    0.05    0.10 
   6   0   8   -0.02    0.06 
  -6  -1  -8    0.70    0.15 
   6   1   8    1.02    0.15 
  -6  -2  -8    0.37    0.11 
   6   2   8    0.31    0.10 
  -6  -3  -8    0.25    0.10 
   6   3   8    0.30    0.10 
  -6  -4  -8    3.08    0.20 
  -6  -4  -8    3.26    0.25 
   6   4   8    2.92    0.22 
  -6  -5  -8    6.93    0.43 
  -6  -5  -8    7.41    0.38 
   6   5   8    7.18    0.41 
  -6  -6  -8    0.72    0.15 
  -6  -6  -8    0.75    0.13 
   6   6   8    0.90    0.15 
  -6  -7  -8   -0.10    0.09 
  -6  -7  -8    0.09    0.11 
  -6  -8  -8    0.42    0.14 
  -6  -8  -8    0.61    0.14 
  -6  -9  -8    0.25    0.13 
  -6  -9  -8    0.09    0.11 
  -6 -10  -8   -0.05    0.12 
  -6 -10  -8   -0.02    0.11 
  -6 -11  -8    0.35    0.15 
  -6 -11  -8    0.18    0.13 
  -6 -12  -8    0.01    0.14 
  -6 -13  -8    0.24    0.17 
  -6 -14  -8   -0.29    0.18 
  -6 -15  -8   -0.32    0.25 
   6 -14   9   -0.10    0.17 
   6 -13   9   -0.05    0.14 
   6 -12   9   -0.05    0.12 
   6 -11   9    0.18    0.13 
   6 -10   9    0.50    0.14 
   6  -9   9   -0.01    0.09 
   6  -8   9   -0.10    0.07 
   6  -7   9    0.07    0.08 
   6  -6   9   -0.07    0.07 
   6  -5   9    0.13    0.09 
   6  -4   9    0.02    0.06 
  -6   3  -9    0.13    0.12 
   6  -3   9    0.19    0.09 
  -6   2  -9    0.00    0.10 
   6  -2   9   -0.01    0.06 
  -6   1  -9    0.84    0.18 
   6  -1   9    0.95    0.14 
  -6   0  -9   -0.01    0.09 
   6   0   9    0.05    0.08 
  -6  -1  -9    0.63    0.15 
   6   1   9    1.22    0.16 
  -6  -2  -9    0.10    0.09 
   6   2   9   -0.14    0.07 
  -6  -3  -9    0.27    0.12 
   6   3   9    0.38    0.10 
  -6  -4  -9    0.14    0.11 
   6   4   9   -0.08    0.08 
  -6  -5  -9    0.29    0.12 
  -6  -5  -9    0.21    0.10 
   6   5   9    0.24    0.11 
  -6  -6  -9    0.12    0.10 
  -6  -6  -9    0.01    0.10 
   6   6   9    0.17    0.09 
  -6  -7  -9    0.11    0.11 
  -6  -7  -9    0.06    0.11 
  -6  -8  -9    0.06    0.11 
  -6  -8  -9   -0.11    0.11 
  -6  -9  -9   -0.06    0.10 
  -6  -9  -9   -0.10    0.12 
  -6 -10  -9    0.51    0.14 
  -6 -10  -9    0.41    0.15 
  -6 -11  -9    0.23    0.14 
  -6 -11  -9    0.27    0.15 
  -6 -12  -9   -0.05    0.14 
  -6 -13  -9   -0.05    0.18 
  -6 -14  -9    0.10    0.23 
   6 -14  10   -0.01    0.20 
   6 -13  10    0.06    0.18 
   6 -12  10   -0.14    0.13 
   6 -11  10    0.28    0.14 
   6 -10  10    0.30    0.13 
   6  -9  10    0.44    0.14 
   6  -8  10    0.06    0.09 
   6  -7  10    0.46    0.12 
   6  -6  10    0.03    0.08 
   6  -5  10    0.26    0.10 
   6  -4  10    0.40    0.11 
  -6   3 -10    3.35    0.36 
   6  -3  10    4.13    0.28 
  -6   2 -10   -0.01    0.11 
   6  -2  10    0.29    0.09 
  -6   1 -10    0.62    0.17 
   6  -1  10    0.69    0.13 
  -6   0 -10    1.48    0.22 
   6   0  10    1.92    0.21 
  -6  -1 -10    0.54    0.16 
   6   1  10    0.82    0.15 
  -6  -2 -10    0.17    0.12 
   6   2  10    0.12    0.11 
  -6  -3 -10    4.46    0.33 
   6   3  10    3.87    0.28 
  -6  -4 -10    0.31    0.13 
   6   4  10    0.43    0.13 
  -6  -5 -10    0.30    0.13 
   6   5  10    0.07    0.09 
  -6  -6 -10    0.02    0.10 
  -6  -7 -10    0.29    0.12 
  -6  -8 -10    0.01    0.12 
  -6  -9 -10    0.24    0.13 
  -6 -10 -10    0.21    0.16 
  -6 -11 -10    0.16    0.16 
  -6 -12 -10   -0.02    0.16 
  -6 -13 -10    0.06    0.20 
  -6 -14 -10    0.10    0.24 
   6 -13  11   -0.03    0.19 
   6 -12  11   -0.06    0.16 
   6 -11  11    0.03    0.14 
   6 -10  11    0.17    0.14 
   6  -9  11    0.05    0.11 
   6  -8  11   -0.08    0.08 
   6  -7  11    0.93    0.17 
   6  -6  11   -0.07    0.08 
   6  -5  11    0.19    0.10 
   6  -4  11    0.27    0.11 
  -6   3 -11    0.22    0.16 
   6  -3  11    0.24    0.10 
  -6   2 -11    0.30    0.15 
   6  -2  11    0.35    0.11 
  -6   1 -11   -0.08    0.11 
   6  -1  11    0.11    0.09 
  -6   0 -11    0.05    0.12 
   6   0  11   -0.10    0.08 
  -6  -1 -11    0.02    0.11 
   6   1  11    0.10    0.10 
  -6  -2 -11    0.38    0.16 
   6   2  11    0.32    0.12 
  -6  -3 -11    0.53    0.16 
   6   3  11    0.35    0.13 
  -6  -4 -11    0.22    0.14 
   6   4  11    0.24    0.12 
  -6  -5 -11    0.17    0.13 
  -6  -6 -11   -0.16    0.12 
  -6  -7 -11    0.75    0.18 
  -6  -8 -11   -0.06    0.12 
  -6  -9 -11   -0.01    0.14 
  -6 -10 -11    0.01    0.14 
  -6 -11 -11    0.10    0.19 
  -6 -12 -11   -0.04    0.21 
  -6 -13 -11    0.03    0.23 
   6 -12  12    0.24    0.21 
   6 -11  12    0.11    0.17 
   6 -10  12    0.09    0.15 
   6  -9  12    0.26    0.14 
   6  -8  12    0.06    0.11 
   6  -7  12    0.22    0.11 
   6  -6  12    0.27    0.11 
   6  -5  12    1.42    0.20 
   6  -4  12    0.38    0.11 
  -6   3 -12    1.50    0.27 
   6  -3  12    1.91    0.22 
  -6   2 -12    0.34    0.17 
   6  -2  12    0.56    0.13 
  -6   1 -12    0.98    0.22 
   6  -1  12    1.04    0.17 
  -6   0 -12    0.73    0.18 
   6   0  12    0.67    0.14 
  -6  -1 -12    0.99    0.20 
   6   1  12    1.37    0.19 
  -6  -2 -12    0.69    0.18 
   6   2  12    0.42    0.12 
  -6  -3 -12    1.67    0.25 
   6   3  12    1.41    0.19 
  -6  -4 -12    0.37    0.16 
   6   4  12    0.45    0.14 
  -6  -5 -12    0.94    0.20 
  -6  -6 -12    0.16    0.15 
  -6  -7 -12    0.41    0.19 
  -6  -8 -12   -0.02    0.17 
  -6  -9 -12    0.28    0.18 
  -6 -10 -12    0.24    0.20 
  -6 -11 -12    0.10    0.19 
  -6 -12 -12    0.05    0.20 
  -6 -13 -12    0.19    0.24 
   6 -12  13    0.03    0.22 
   6 -11  13    0.18    0.20 
   6 -10  13    0.18    0.18 
   6  -9  13    0.25    0.16 
   6  -8  13    0.12    0.13 
   6  -7  13    0.16    0.13 
   6  -6  13    0.06    0.10 
   6  -5  13    0.22    0.11 
   6  -4  13    0.03    0.09 
  -6   3 -13    0.60    0.20 
   6  -3  13    0.57    0.15 
  -6   2 -13   -0.01    0.14 
   6  -2  13    0.15    0.10 
  -6   1 -13    0.94    0.23 
   6  -1  13    1.19    0.19 
  -6   0 -13    0.00    0.14 
   6   0  13    0.04    0.09 
  -6  -1 -13    1.30    0.25 
   6   1  13    1.46    0.21 
  -6  -2 -13    0.18    0.15 
   6   2  13    0.13    0.12 
  -6  -3 -13    0.59    0.20 
   6   3  13    0.11    0.10 
  -6  -4 -13   -0.01    0.15 
  -6  -5 -13   -0.15    0.14 
  -6  -6 -13    0.26    0.18 
  -6  -7 -13    0.00    0.17 
  -6  -8 -13   -0.07    0.19 
  -6  -9 -13    0.11    0.19 
  -6 -10 -13    0.23    0.20 
  -6 -11 -13    0.13    0.22 
  -6 -12 -13   -0.08    0.21 
   6 -11  14    0.09    0.22 
   6 -10  14    0.04    0.20 
   6  -9  14    0.05    0.15 
   6  -8  14   -0.06    0.13 
   6  -7  14    0.01    0.13 
   6  -6  14    0.10    0.13 
   6  -5  14   -0.07    0.11 
   6  -4  14    0.02    0.10 
  -6   3 -14    0.04    0.16 
   6  -3  14    0.01    0.11 
  -6   2 -14    0.00    0.15 
   6  -2  14    0.00    0.10 
  -6   1 -14   -0.19    0.15 
   6  -1  14    0.09    0.11 
  -6   0 -14    0.96    0.24 
   6   0  14    1.40    0.21 
  -6  -1 -14    0.13    0.16 
   6   1  14    0.01    0.11 
  -6  -2 -14   -0.26    0.13 
   6   2  14    0.09    0.12 
  -6  -3 -14   -0.14    0.15 
  -6  -4 -14   -0.05    0.17 
  -6  -5 -14    0.02    0.16 
  -6  -6 -14   -0.07    0.20 
  -6  -7 -14    0.04    0.20 
  -6  -8 -14   -0.20    0.18 
  -6  -9 -14    0.06    0.20 
  -6 -10 -14   -0.17    0.20 
  -6 -11 -14   -0.26    0.22 
   6  -9  15    0.06    0.16 
   6  -8  15    0.00    0.14 
   6  -7  15    0.68    0.20 
   6  -6  15    0.14    0.14 
   6  -5  15   -0.01    0.12 
   6  -4  15    0.11    0.13 
  -6   3 -15    0.34    0.21 
   6  -3  15    0.40    0.15 
  -6   2 -15    0.22    0.20 
   6  -2  15   -0.09    0.11 
  -6   1 -15    0.27    0.19 
   6  -1  15    0.31    0.13 
  -6   0 -15   -0.16    0.16 
   6   0  15    0.04    0.12 
  -6  -1 -15    0.37    0.20 
   6   1  15    0.33    0.14 
  -6  -2 -15    0.08    0.19 
  -6  -3 -15    0.46    0.23 
  -6  -4 -15    0.04    0.20 
  -6  -5 -15    0.18    0.21 
  -6  -6 -15   -0.13    0.19 
  -6  -7 -15    0.54    0.25 
  -6  -8 -15    0.01    0.22 
  -6  -9 -15    0.01    0.24 
  -6 -10 -15   -0.14    0.22 
   6  -8  16    0.17    0.18 
   6  -7  16    0.35    0.18 
   6  -6  16   -0.11    0.14 
   6  -5  16    0.50    0.18 
   6  -4  16    0.23    0.15 
  -6   3 -16    0.23    0.22 
   6  -3  16    0.24    0.15 
  -6   2 -16   -0.08    0.18 
   6  -2  16   -0.06    0.12 
  -6   1 -16    0.37    0.22 
   6  -1  16    0.39    0.16 
  -6   0 -16   -0.07    0.18 
   6   0  16    0.00    0.12 
  -6  -1 -16    0.27    0.21 
  -6  -2 -16    0.11    0.19 
  -6  -3 -16    0.03    0.20 
  -6  -4 -16    0.05    0.22 
  -6  -5 -16    0.36    0.26 
  -6  -6 -16   -0.18    0.22 
  -6  -7 -16    0.37    0.25 
  -6  -8 -16   -0.14    0.24 
   6  -6  17    0.07    0.17 
   6  -5  17    0.14    0.17 
   6  -4  17    0.14    0.16 
   6  -3  17    0.73    0.21 
  -6   2 -17    0.17    0.25 
   6  -2  17    0.20    0.16 
  -6   1 -17   -0.11    0.21 
   6  -1  17   -0.04    0.15 
  -6   0 -17   -0.08    0.19 
   6   0  17    0.03    0.17 
  -6  -1 -17    0.12    0.21 
  -6  -2 -17    0.31    0.23 
  -6  -3 -17    0.76    0.27 
  -6  -4 -17   -0.07    0.23 
  -6  -5 -17   -0.30    0.23 
  -6  -6 -17   -0.20    0.24 
   6  -3  18    0.07    0.17 
  -6   2 -18    0.09    0.23 
   6  -2  18   -0.03    0.17 
  -6   1 -18    0.05    0.23 
   6  -1  18    0.00    0.18 
  -6   0 -18    0.27    0.24 
  -6  -1 -18    0.06    0.23 
  -6  -2 -18    0.13    0.25 
  -6  -3 -18    0.30    0.27 
   7  -2 -18    0.05    0.37 
   7  -1 -18    0.01    0.35 
   7   0 -18    0.07    0.34 
   7   1 -18    0.09    0.37 
   7   2 -18   -0.08    0.37 
   7  -6 -17   -0.03    0.40 
   7  -5 -17    0.13    0.36 
   7  -4 -17    0.11    0.35 
   7  -3 -17    0.24    0.32 
   7  -2 -17    0.33    0.32 
   7  -1 -17    0.09    0.29 
   7   0 -17   -0.02    0.28 
   7   1 -17    0.07    0.29 
   7   2 -17   -0.01    0.29 
  -7  -3  17   -0.50    0.25 
  -7  -4  17   -0.61    0.23 
  -7  -5  17   -0.96    0.25 
   7  -8 -16   -0.06    0.36 
   7  -7 -16    0.20    0.33 
   7  -6 -16    0.16    0.32 
   7  -5 -16    0.15    0.29 
   7  -4 -16    0.03    0.27 
   7  -3 -16    0.06    0.24 
   7  -2 -16    0.17    0.25 
   7  -1 -16   -0.10    0.22 
   7   0 -16   -0.09    0.20 
  -7  -1  16   -0.15    0.17 
   7   1 -16   -0.16    0.21 
  -7  -2  16   -0.11    0.11 
   7   2 -16    0.18    0.25 
  -7  -3  16    0.10    0.13 
   7   3 -16    0.08    0.25 
  -7  -4  16    0.29    0.14 
  -7  -5  16    0.17    0.15 
  -7  -6  16   -0.41    0.18 
  -7  -7  16   -1.14    0.26 
  -7  -7  16    0.15    0.14 
   7  -9 -15    0.12    0.34 
   7  -8 -15    0.30    0.29 
   7  -7 -15    0.22    0.27 
   7  -6 -15    0.07    0.24 
   7  -5 -15    0.13    0.22 
   7  -4 -15   -0.04    0.20 
   7  -3 -15    0.42    0.23 
   7  -2 -15    0.16    0.21 
   7  -1 -15    0.17    0.18 
  -7   0  15    0.02    0.09 
   7   0 -15    0.04    0.18 
  -7  -1  15    0.21    0.10 
   7   1 -15    0.04    0.18 
  -7  -2  15    0.08    0.09 
   7   2 -15    0.28    0.21 
  -7  -3  15    0.36    0.13 
   7   3 -15    0.24    0.23 
  -7  -4  15    0.29    0.12 
  -7  -5  15    0.01    0.12 
  -7  -6  15    0.17    0.14 
  -7  -7  15    0.30    0.15 
  -7  -8  15    0.15    0.15 
  -7  -9  15   -0.34    0.19 
   7 -10 -14    0.00    0.28 
   7  -9 -14    0.17    0.26 
   7  -8 -14    0.25    0.23 
   7  -7 -14    0.50    0.23 
   7  -6 -14    0.16    0.21 
   7  -5 -14    1.40    0.30 
   7  -4 -14   -0.04    0.16 
   7  -3 -14    0.02    0.16 
   7  -2 -14   -0.16    0.15 
  -7   1  14    0.04    0.08 
   7  -1 -14   -0.17    0.14 
  -7   0  14    0.15    0.09 
   7   0 -14    0.18    0.17 
  -7  -1  14    0.11    0.08 
   7   1 -14    0.08    0.16 
  -7  -2  14    0.01    0.08 
   7   2 -14    0.04    0.16 
  -7  -3  14   -0.01    0.08 
   7   3 -14   -0.10    0.16 
  -7  -4  14    0.07    0.10 
  -7  -5  14    1.59    0.21 
  -7  -6  14    0.03    0.11 
  -7  -7  14    0.31    0.13 
  -7  -8  14   -0.03    0.12 
  -7  -9  14    0.15    0.14 
  -7 -10  14    0.08    0.15 
   7 -11 -13    0.64    0.30 
   7 -10 -13    0.31    0.26 
   7  -9 -13    0.00    0.20 
   7  -8 -13   -0.08    0.18 
   7  -7 -13    0.17    0.17 
   7  -6 -13    0.42    0.19 
   7  -5 -13    0.20    0.17 
   7  -4 -13    0.28    0.17 
   7  -3 -13    0.00    0.15 
   7  -2 -13    0.76    0.21 
  -7   1  13    0.08    0.07 
   7  -1 -13    0.08    0.14 
  -7   0  13    0.06    0.07 
   7   0 -13    0.03    0.15 
  -7  -1  13    0.06    0.08 
   7   1 -13   -0.04    0.12 
  -7  -2  13    0.61    0.12 
   7   2 -13    0.51    0.19 
  -7  -3  13   -0.02    0.08 
   7   3 -13    0.17    0.16 
  -7  -4  13    0.11    0.09 
  -7  -5  13   -0.07    0.08 
  -7  -6  13    0.20    0.11 
  -7  -7  13   -0.03    0.10 
  -7  -8  13    0.10    0.12 
  -7  -9  13    0.13    0.13 
  -7 -10  13    0.12    0.16 
  -7 -11  13    0.36    0.20 
   7 -12 -12    0.05    0.28 
   7 -11 -12    0.13    0.23 
   7 -10 -12    0.07    0.20 
   7  -9 -12    0.09    0.17 
   7  -8 -12    0.01    0.14 
   7  -7 -12    0.15    0.15 
   7  -6 -12    0.00    0.14 
   7  -5 -12    0.14    0.13 
   7  -4 -12    0.43    0.17 
   7  -3 -12   -0.22    0.12 
  -7   2  12    0.07    0.06 
   7  -2 -12    0.05    0.14 
  -7   1  12    0.04    0.06 
   7  -1 -12   -0.02    0.13 
  -7   0  12    0.14    0.07 
   7   0 -12    0.31    0.16 
  -7  -1  12    0.12    0.07 
   7   1 -12    0.03    0.13 
  -7  -2  12   -0.01    0.07 
   7   2 -12   -0.04    0.14 
  -7  -3  12    0.04    0.07 
   7   3 -12    0.01    0.14 
  -7  -4  12    0.55    0.13 
   7   4 -12    0.34    0.18 
  -7  -5  12   -0.10    0.07 
  -7  -6  12    0.23    0.10 
  -7  -7  12   -0.13    0.08 
  -7  -8  12    0.09    0.10 
  -7  -9  12    0.01    0.10 
  -7 -10  12    0.18    0.15 
  -7 -11  12    0.02    0.15 
  -7 -12  12    0.08    0.18 
   7 -13 -11   -0.06    0.26 
   7 -12 -11    0.20    0.24 
   7 -11 -11    0.05    0.20 
   7 -10 -11    0.00    0.16 
   7  -9 -11    0.06    0.15 
   7  -8 -11    0.58    0.18 
   7  -7 -11    0.40    0.16 
   7  -6 -11   -0.08    0.12 
   7  -5 -11    0.61    0.17 
   7  -4 -11    0.19    0.14 
  -7   3  11    0.68    0.10 
   7  -3 -11    0.28    0.16 
   7  -2 -11    0.94    0.21 
  -7   1  11    0.13    0.07 
   7  -1 -11    0.05    0.13 
  -7   0  11    0.04    0.06 
   7   0 -11   -0.02    0.12 
  -7  -1  11   -0.03    0.06 
   7   1 -11    0.11    0.12 
  -7  -2  11    0.76    0.13 
   7   2 -11    0.84    0.22 
  -7  -3  11    0.51    0.11 
   7   3 -11    0.56    0.20 
  -7  -4  11    0.08    0.07 
   7   4 -11    0.11    0.15 
  -7  -5  11    0.50    0.12 
  -7  -6  11   -0.05    0.07 
  -7  -7  11    0.36    0.11 
  -7  -8  11    0.44    0.13 
  -7  -9  11    0.01    0.10 
  -7 -10  11    0.08    0.12 
  -7 -11  11    0.09    0.13 
  -7 -12  11    0.09    0.16 
  -7 -13  11   -0.06    0.19 
   7 -14 -10    0.17    0.25 
   7 -13 -10    0.23    0.23 
   7 -12 -10   -0.04    0.19 
   7 -11 -10    0.17    0.16 
   7 -10 -10    0.00    0.14 
   7  -9 -10    0.10    0.14 
   7  -8 -10    0.08    0.12 
   7  -8 -10    0.09    0.13 
   7  -7 -10   -0.04    0.09 
   7  -7 -10    0.42    0.15 
   7  -6 -10   -0.01    0.10 
   7  -6 -10   -0.07    0.12 
   7  -5 -10    3.84    0.33 
   7  -5 -10    4.02    0.27 
   7  -4 -10    0.44    0.15 
   7  -4 -10    0.48    0.11 
  -7   3  10    1.46    0.14 
   7  -3 -10    1.49    0.23 
   7  -3 -10    1.35    0.15 
  -7   2  10    0.00    0.04 
   7  -2 -10    0.15    0.09 
   7  -2 -10    0.00    0.12 
  -7   1  10    0.48    0.09 
   7  -1 -10    0.23    0.15 
  -7   0  10   -0.02    0.06 
   7   0 -10   -0.01    0.12 
  -7  -1  10    0.53    0.10 
   7   1 -10    0.37    0.16 
  -7  -2  10   -0.03    0.05 
   7   2 -10    0.09    0.12 
  -7  -3  10    1.32    0.17 
   7   3 -10    1.94    0.30 
  -7  -4  10    0.60    0.12 
   7   4 -10    0.23    0.15 
  -7  -5  10    3.76    0.27 
  -7  -6  10    0.05    0.07 
  -7  -7  10    0.19    0.09 
  -7  -8  10   -0.01    0.08 
  -7  -9  10    0.19    0.10 
  -7 -10  10    0.01    0.09 
  -7 -11  10    0.08    0.13 
  -7 -12  10    0.03    0.14 
  -7 -13  10   -0.02    0.16 
  -7 -14  10    0.11    0.21 
   7 -14  -9   -0.12    0.23 
   7 -13  -9    0.15    0.21 
   7 -12  -9   -0.01    0.16 
   7 -11  -9    0.71    0.19 
   7 -10  -9    0.19    0.15 
   7  -9  -9   -0.02    0.13 
   7  -8  -9    0.85    0.18 
   7  -7  -9    0.09    0.12 
   7  -6  -9    0.63    0.13 
   7  -6  -9    0.75    0.16 
   7  -5  -9    0.68    0.13 
   7  -5  -9    0.31    0.14 
  -7   4   9    0.74    0.10 
   7  -4  -9    0.58    0.11 
   7  -4  -9    0.70    0.16 
  -7   3   9    0.90    0.11 
   7  -3  -9    0.86    0.12 
   7  -3  -9    0.72    0.17 
  -7   2   9    0.06    0.05 
   7  -2  -9    0.01    0.07 
   7  -2  -9   -0.02    0.10 
  -7   1   9    2.13    0.16 
   7  -1  -9    1.96    0.26 
  -7   0   9    0.04    0.05 
   7   0  -9   -0.06    0.11 
  -7  -1   9    1.98    0.16 
   7   1  -9    1.95    0.27 
  -7  -2   9    0.06    0.05 
   7   2  -9   -0.10    0.10 
  -7  -3   9    0.87    0.12 
   7   3  -9    0.69    0.20 
  -7  -4   9    0.42    0.10 
   7   4  -9    0.62    0.18 
  -7  -5   9    0.57    0.12 
  -7  -6   9    0.60    0.12 
  -7  -7   9   -0.01    0.06 
  -7  -8   9    0.80    0.14 
  -7  -9   9    0.03    0.08 
  -7 -10   9    0.08    0.09 
  -7 -11   9    0.61    0.15 
  -7 -12   9   -0.06    0.11 
  -7 -13   9    0.24    0.16 
  -7 -14   9   -0.17    0.17 
   7 -15  -8    0.29    0.27 
   7 -14  -8    0.30    0.24 
   7 -13  -8    0.06    0.17 
   7 -12  -8    0.08    0.16 
   7 -11  -8    0.12    0.14 
   7 -10  -8    0.11    0.13 
   7  -9  -8    0.17    0.12 
   7  -8  -8    2.76    0.27 
   7  -7  -8    0.27    0.14 
   7  -6  -8    4.04    0.30 
  -7   5   8    0.14    0.05 
   7  -5  -8    0.06    0.09 
   7  -5  -8    0.27    0.12 
  -7   4   8    0.66    0.09 
   7  -4  -8    0.44    0.13 
   7  -4  -8    0.47    0.10 
  -7   3   8    1.28    0.12 
   7  -3  -8    0.76    0.16 
   7  -3  -8    0.84    0.11 
  -7   2   8    0.51    0.08 
   7  -2  -8    0.38    0.13 
  -7   1   8    0.19    0.07 
   7  -1  -8    0.19    0.11 
  -7   0   8    0.02    0.05 
   7   0  -8   -0.04    0.09 
  -7  -1   8    0.19    0.06 
   7   1  -8   -0.05    0.09 
  -7  -2   8    0.58    0.10 
   7   2  -8    0.55    0.16 
  -7  -3   8    0.88    0.12 
   7   3  -8    1.01    0.21 
  -7  -4   8    0.35    0.09 
   7   4  -8    0.32    0.13 
  -7  -5   8    0.05    0.06 
  -7  -6   8    4.54    0.30 
  -7  -7   8    0.30    0.10 
  -7  -8   8    3.02    0.25 
  -7  -9   8    0.17    0.09 
  -7 -10   8    0.12    0.09 
  -7 -11   8    0.11    0.10 
  -7 -12   8   -0.11    0.09 
  -7 -13   8   -0.04    0.12 
  -7 -14   8    0.25    0.17 
  -7 -15   8    0.19    0.21 
   7 -15  -7    0.01    0.24 
   7 -14  -7   -0.09    0.19 
   7 -13  -7    0.03    0.16 
   7 -12  -7    0.02    0.14 
   7 -11  -7    0.00    0.12 
   7 -10  -7    0.01    0.10 
   7  -9  -7    0.13    0.12 
   7  -8  -7    0.64    0.16 
   7  -7  -7    0.25    0.13 
   7  -6  -7    0.60    0.14 
  -7   5   7    0.69    0.09 
   7  -5  -7    0.59    0.14 
  -7   4   7    1.64    0.13 
   7  -4  -7    1.60    0.19 
   7  -4  -7    1.73    0.15 
  -7   3   7    0.01    0.05 
   7  -3  -7   -0.12    0.07 
   7  -3  -7    0.02    0.05 
  -7   2   7    0.52    0.09 
   7  -2  -7    0.42    0.12 
  -7   1   7    0.59    0.10 
   7  -1  -7    0.63    0.15 
  -7   0   7    0.02    0.05 
   7   0  -7   -0.11    0.09 
  -7  -1   7    0.69    0.10 
   7   1  -7    0.47    0.15 
  -7  -2   7    0.57    0.10 
   7   2  -7    0.43    0.15 
  -7  -3   7    0.06    0.05 
   7   3  -7    0.00    0.09 
  -7  -4   7    1.53    0.17 
   7   4  -7    1.64    0.26 
  -7  -5   7    0.46    0.10 
  -7  -6   7    0.26    0.08 
  -7  -7   7    0.18    0.08 
  -7  -8   7    0.88    0.15 
  -7  -9   7    0.21    0.10 
  -7 -10   7   -0.05    0.08 
  -7 -11   7   -0.02    0.08 
  -7 -12   7    0.29    0.12 
  -7 -13   7    0.01    0.11 
  -7 -14   7    0.00    0.14 
  -7 -15   7   -0.09    0.16 
   7 -15  -6    0.11    0.20 
   7 -14  -6    0.06    0.18 
   7 -13  -6    0.10    0.17 
   7 -12  -6    0.06    0.15 
   7 -11  -6    0.18    0.14 
   7 -10  -6    0.09    0.14 
   7  -9  -6    0.72    0.16 
   7  -8  -6    0.47    0.14 
   7  -7  -6    1.04    0.16 
   7  -6  -6    0.93    0.15 
   7  -6  -6    1.07    0.14 
   7  -5  -6    2.74    0.22 
   7  -5  -6    3.10    0.24 
   7  -4  -6    0.04    0.07 
   7  -4  -6   -0.11    0.08 
   7  -3  -6    2.41    0.22 
   7  -3  -6    2.30    0.21 
   7  -3  -6    2.20    0.15 
   7  -2  -6    1.50    0.18 
   7  -2  -6    1.40    0.18 
   7  -1  -6    0.36    0.12 
   7  -1  -6    0.59    0.14 
  -7   0   6    0.95    0.11 
   7   0  -6    1.03    0.17 
  -7  -1   6    0.50    0.09 
   7   1  -6    0.78    0.16 
  -7  -2   6    1.64    0.17 
   7   2  -6    1.82    0.24 
  -7  -3   6    2.30    0.18 
   7   3  -6    3.20    0.31 
  -7  -4   6    0.07    0.06 
  -7  -5   6    3.36    0.23 
  -7  -6   6    1.06    0.15 
  -7  -7   6    1.36    0.17 
  -7  -8   6    0.74    0.14 
  -7  -9   6    0.75    0.13 
  -7 -10   6   -0.06    0.07 
  -7 -11   6    0.18    0.10 
  -7 -12   6    0.05    0.09 
  -7 -13   6    0.14    0.11 
  -7 -14   6    0.01    0.11 
  -7 -15   6    0.15    0.16 
   7 -16  -5   -0.12    0.21 
   7 -15  -5    0.08    0.20 
   7 -14  -5   -0.07    0.16 
   7 -13  -5    1.23    0.24 
   7 -12  -5    0.12    0.14 
   7 -11  -5    2.31    0.25 
   7 -10  -5    0.06    0.12 
   7  -9  -5    0.06    0.12 
   7  -8  -5    1.09    0.17 
   7  -7  -5    0.23    0.11 
   7  -7  -5    0.14    0.09 
   7  -6  -5    0.39    0.11 
   7  -6  -5    0.19    0.08 
   7  -5  -5    0.07    0.08 
   7  -5  -5   -0.02    0.07 
   7  -4  -5    1.45    0.17 
   7  -4  -5    1.34    0.16 
   7  -3  -5    2.76    0.21 
   7  -3  -5    2.76    0.22 
   7  -2  -5    0.22    0.09 
   7  -2  -5    0.32    0.10 
   7  -1  -5    3.04    0.24 
   7  -1  -5    3.27    0.25 
   7   0  -5    0.09    0.08 
   7   0  -5   -0.06    0.09 
   7   1  -5    3.68    0.28 
   7   1  -5    3.21    0.29 
  -7  -2   5    0.14    0.06 
   7   2  -5    0.31    0.13 
  -7  -3   5    3.05    0.21 
   7   3  -5    3.57    0.31 
  -7  -4   5    1.53    0.17 
  -7  -5   5   -0.01    0.05 
  -7  -6   5    0.39    0.10 
  -7  -7   5    0.26    0.09 
  -7  -8   5    1.26    0.17 
  -7  -9   5    0.03    0.07 
  -7 -10   5    0.06    0.08 
  -7 -11   5    2.39    0.25 
  -7 -12   5   -0.05    0.09 
  -7 -13   5    1.29    0.20 
  -7 -14   5    0.23    0.13 
  -7 -15   5    0.18    0.16 
  -7 -16   5    0.08    0.29 
   7 -16  -4   -0.11    0.20 
   7 -15  -4    0.36    0.22 
   7 -14  -4    0.02    0.18 
   7 -13  -4    0.66    0.19 
   7 -12  -4   -0.05    0.12 
   7 -11  -4    0.26    0.13 
   7 -10  -4    0.10    0.12 
   7  -9  -4    4.16    0.30 
   7  -8  -4    1.98    0.21 
   7  -8  -4    2.47    0.20 
   7  -7  -4    0.05    0.09 
   7  -7  -4    0.03    0.07 
   7  -6  -4    3.96    0.25 
   7  -6  -4    3.19    0.24 
   7  -5  -4    1.40    0.15 
   7  -5  -4    1.01    0.14 
   7  -4  -4    0.26    0.08 
   7  -4  -4    0.22    0.09 
   7  -3  -4    0.42    0.11 
   7  -3  -4    0.66    0.12 
   7  -2  -4    0.49    0.11 
   7  -2  -4    0.37    0.11 
   7  -1  -4    2.09    0.21 
   7  -1  -4    1.95    0.20 
   7   0  -4    3.74    0.28 
   7   0  -4    3.59    0.27 
   7   1  -4    1.81    0.22 
   7   1  -4    2.28    0.23 
   7   2  -4    0.42    0.12 
   7   2  -4    0.42    0.14 
   7   3  -4    0.85    0.17 
   7   3  -4    0.50    0.14 
  -7  -4   4    0.15    0.07 
  -7  -5   4    1.42    0.17 
  -7  -6   4    3.99    0.26 
  -7  -7   4    0.01    0.06 
  -7  -8   4    2.53    0.21 
  -7  -9   4    5.18    0.33 
  -7 -10   4    0.14    0.09 
  -7 -11   4    0.02    0.08 
  -7 -12   4    0.20    0.10 
  -7 -13   4    0.69    0.15 
  -7 -14   4    0.15    0.12 
  -7 -15   4    0.36    0.25 
  -7 -16   4   -0.01    0.27 
   7 -16  -3   -0.09    0.21 
   7 -15  -3   -0.07    0.19 
   7 -14  -3    0.15    0.19 
   7 -13  -3    0.29    0.16 
   7 -12  -3    0.65    0.18 
   7 -11  -3    1.10    0.19 
   7 -10  -3    0.04    0.11 
   7  -9  -3    0.00    0.10 
   7  -8  -3    0.67    0.13 
   7  -8  -3    0.55    0.12 
   7  -7  -3    0.27    0.09 
   7  -7  -3    0.14    0.09 
   7  -6  -3    0.36    0.10 
   7  -6  -3    0.43    0.10 
   7  -5  -3    3.51    0.23 
   7  -5  -3    3.48    0.24 
   7  -4  -3    0.74    0.12 
   7  -4  -3    0.56    0.12 
   7  -3  -3    3.12    0.22 
   7  -3  -3    3.15    0.23 
   7  -2  -3   10.76    0.56 
   7  -2  -3   10.28    0.53 
   7  -1  -3    0.12    0.08 
   7  -1  -3    0.07    0.07 
   7   0  -3   -0.01    0.06 
   7   0  -3   -0.08    0.08 
   7   1  -3    0.23    0.11 
   7   1  -3    0.00    0.07 
   7   2  -3   11.32    0.62 
   7   2  -3   11.39    0.63 
   7   3  -3    3.74    0.28 
   7   3  -3    3.37    0.29 
   7   4  -3    0.46    0.13 
  -7  -5   3    3.94    0.26 
  -7  -6   3    0.38    0.09 
  -7  -7   3    0.24    0.08 
  -7  -8   3    0.60    0.12 
  -7  -9   3   -0.03    0.06 
  -7 -10   3    0.03    0.07 
  -7 -11   3    1.29    0.18 
  -7 -12   3    0.56    0.13 
  -7 -13   3    0.10    0.10 
  -7 -14   3    0.09    0.11 
  -7 -15   3   -0.13    0.21 
  -7 -16   3    0.07    0.27 
   7 -16  -2    0.00    0.21 
   7 -15  -2    0.20    0.20 
   7 -14  -2   -0.01    0.17 
   7 -13  -2    0.26    0.16 
   7 -12  -2    0.27    0.15 
   7 -11  -2    0.10    0.12 
   7 -10  -2    1.64    0.20 
   7  -9  -2    0.01    0.10 
   7  -9  -2   -0.15    0.08 
   7  -8  -2    0.37    0.09 
   7  -8  -2    0.18    0.10 
   7  -7  -2    0.02    0.07 
   7  -7  -2    0.07    0.07 
   7  -6  -2    0.24    0.09 
   7  -6  -2    0.25    0.09 
   7  -5  -2    0.51    0.10 
   7  -5  -2    0.59    0.11 
   7  -4  -2    6.04    0.35 
   7  -4  -2    6.11    0.34 
   7  -3  -2    5.80    0.31 
   7  -3  -2    4.87    0.32 
   7  -2  -2    2.78    0.19 
   7  -2  -2    2.38    0.20 
   7  -1  -2    2.18    0.21 
   7  -1  -2    2.16    0.18 
   7   0  -2   30.30    1.45 
   7   0  -2   31.82    1.44 
   7   1  -2    1.78    0.20 
   7   1  -2    2.09    0.21 
   7   2  -2    2.52    0.25 
   7   2  -2    2.66    0.23 
   7   3  -2    5.81    0.37 
   7   4  -2    6.58    0.42 
   7   5  -2    0.64    0.13 
  -7  -6   2    0.28    0.08 
  -7  -7   2    0.03    0.06 
  -7  -8   2    0.43    0.10 
  -7  -9   2    0.01    0.06 
  -7 -10   2    1.47    0.18 
  -7 -11   2    0.02    0.08 
  -7 -12   2    0.08    0.09 
  -7 -13   2    0.01    0.10 
  -7 -14   2    0.16    0.17 
  -7 -15   2    0.23    0.22 
  -7 -16   2    0.02    0.27 
   7 -16  -1   -0.21    0.20 
   7 -15  -1    0.02    0.19 
   7 -14  -1    0.06    0.16 
   7 -13  -1    1.13    0.21 
   7 -12  -1    0.31    0.15 
   7 -11  -1    1.33    0.19 
   7 -10  -1    0.01    0.11 
   7 -10  -1    0.18    0.10 
   7  -9  -1    0.61    0.12 
   7  -9  -1    0.57    0.13 
   7  -8  -1    0.38    0.11 
   7  -8  -1    0.41    0.10 
   7  -7  -1    0.20    0.08 
   7  -7  -1    0.32    0.09 
   7  -6  -1    0.05    0.07 
   7  -6  -1   -0.03    0.06 
   7  -5  -1    0.08    0.07 
   7  -5  -1    0.06    0.06 
   7  -4  -1    5.28    0.30 
   7  -4  -1    5.90    0.33 
   7  -3  -1   11.63    0.58 
   7  -3  -1   11.35    0.56 
   7  -2  -1   13.42    0.66 
   7  -2  -1   12.75    0.63 
   7  -1  -1    5.97    0.37 
   7  -1  -1    6.96    0.36 
   7   0  -1    0.00    0.06 
   7   0  -1    0.02    0.06 
   7   1  -1    6.44    0.37 
   7   1  -1    6.15    0.38 
   7   2  -1   13.55    0.71 
   7   2  -1   14.22    0.71 
   7   3  -1   12.34    0.65 
   7   4  -1    6.50    0.41 
   7   5  -1    0.23    0.09 
   7   6  -1    0.07    0.08 
  -7  -7   1    0.15    0.07 
  -7  -8   1    0.57    0.11 
  -7  -9   1    0.72    0.13 
  -7 -10   1    0.04    0.07 
  -7 -11   1    1.27    0.17 
  -7 -12   1    0.46    0.12 
  -7 -13   1    1.27    0.18 
  -7 -13   1    1.23    0.23 
  -7 -14   1    0.20    0.16 
  -7 -15   1   -0.03    0.19 
  -7 -16   1   -0.19    0.24 
   7 -16   0    0.09    0.21 
   7 -15   0    0.60    0.22 
   7 -14   0    0.11    0.18 
   7 -13   0    0.23    0.16 
   7 -12   0   -0.08    0.13 
   7 -11   0    0.34    0.12 
   7 -11   0    0.36    0.14 
   7 -10   0   -0.02    0.08 
   7 -10   0    0.08    0.11 
   7  -9   0    6.38    0.38 
   7  -9   0    6.76    0.39 
   7  -8   0    0.01    0.07 
   7  -8   0    0.13    0.09 
   7  -7   0    0.75    0.12 
   7  -7   0    0.88    0.13 
   7  -6   0    0.13    0.07 
   7  -6   0    0.05    0.06 
   7  -5   0    2.89    0.19 
   7  -5   0    2.46    0.19 
   7  -4   0    0.07    0.06 
   7  -4   0    0.14    0.06 
   7  -3   0    6.59    0.34 
   7  -3   0    6.78    0.37 
   7  -2   0   -0.01    0.05 
  -7   0   0    0.07    0.04 
   7   0   0    0.02    0.06 
   7   0   0    0.02    0.05 
  -7  -1   0    3.77    0.20 
   7   1   0    3.30    0.25 
  -7  -2   0    0.12    0.04 
   7   2   0    0.01    0.06 
   7   3   0    6.65    0.40 
   7   4   0    0.03    0.07 
   7   5   0    3.25    0.26 
   7   6   0    0.27    0.11 
   7   7   0    1.03    0.19 
  -7  -8   0   -0.03    0.06 
  -7  -9   0    7.01    0.40 
  -7 -10   0   -0.02    0.07 
  -7 -11   0    0.20    0.09 
  -7 -12   0    0.04    0.09 
  -7 -12   0   -0.01    0.13 
  -7 -13   0    0.42    0.17 
  -7 -14   0   -0.11    0.16 
  -7 -15   0    0.73    0.24 
  -7 -16   0   -0.09    0.24 
   7 -16   1   -0.04    0.21 
   7 -15   1    0.06    0.18 
   7 -14   1    0.04    0.17 
   7 -13   1    1.25    0.22 
   7 -12   1    0.50    0.16 
   7 -11   1    1.25    0.18 
   7 -11   1    1.42    0.20 
   7 -10   1    0.04    0.10 
   7 -10   1    0.04    0.09 
   7  -9   1    0.48    0.12 
   7  -9   1    0.81    0.14 
   7  -8   1    0.58    0.11 
   7  -8   1    0.52    0.11 
   7  -7   1    0.16    0.08 
   7  -7   1    0.16    0.08 
   7  -6   1    0.00    0.06 
   7  -6   1    0.11    0.06 
   7  -5   1    0.05    0.06 
   7  -5   1    0.09    0.06 
   7  -4   1    5.71    0.32 
   7  -4   1    5.14    0.29 
   7  -3   1   10.60    0.54 
   7  -2   1   12.67    0.60 
   7  -2   1   12.90    0.63 
  -7   1  -1    5.99    0.33 
   7  -1   1    6.14    0.32 
   7  -1   1    6.26    0.35 
  -7   0  -1    0.06    0.05 
   7   0   1    0.15    0.06 
   7   0   1    0.01    0.05 
  -7  -1  -1    6.37    0.32 
   7   1   1    6.09    0.35 
   7   1   1    6.56    0.37 
  -7  -2  -1   12.88    0.61 
   7   2   1   13.21    0.67 
  -7  -3  -1   10.74    0.53 
   7   3   1   11.70    0.59 
   7   4   1    6.42    0.39 
   7   5   1    0.04    0.07 
   7   6   1    0.00    0.07 
   7   7   1    0.32    0.11 
   7   8   1    0.50    0.14 
  -7  -9  -1    0.76    0.13 
  -7 -10  -1    0.11    0.08 
  -7 -11  -1    1.46    0.17 
  -7 -11  -1    1.39    0.22 
  -7 -12  -1    0.54    0.17 
  -7 -13  -1    1.09    0.22 
  -7 -14  -1    0.01    0.17 
  -7 -15  -1   -0.21    0.18 
  -7 -16  -1    0.01    0.23 
   7 -16   2   -0.02    0.21 
   7 -15   2    0.05    0.19 
   7 -14   2   -0.24    0.15 
   7 -13   2    0.02    0.13 
   7 -12   2    0.02    0.11 
   7 -12   2   -0.04    0.13 
   7 -11   2   -0.01    0.11 
   7 -11   2   -0.09    0.10 
   7 -10   2    1.74    0.20 
   7 -10   2    2.07    0.22 
   7  -9   2   -0.01    0.09 
   7  -9   2    0.03    0.09 
   7  -8   2    0.53    0.11 
   7  -8   2    0.43    0.11 
   7  -7   2    0.01    0.06 
   7  -7   2    0.07    0.07 
   7  -6   2    0.30    0.07 
   7  -6   2    0.22    0.08 
   7  -5   2    0.36    0.07 
   7  -5   2    0.45    0.10 
   7  -4   2    5.88    0.31 
   7  -4   2    5.87    0.33 
   7  -3   2    5.72    0.32 
   7  -3   2    5.18    0.28 
   7  -2   2    2.36    0.14 
   7  -2   2    2.25    0.18 
  -7   1  -2    1.94    0.17 
   7  -1   2    1.72    0.13 
   7  -1   2    1.92    0.16 
  -7   0  -2   32.10    1.44 
   7   0   2   31.58    1.43 
   7   0   2   30.80    1.43 
  -7  -1  -2    2.09    0.15 
   7   1   2    1.98    0.17 
  -7  -2  -2    2.20    0.16 
   7   2   2    2.40    0.19 
  -7  -3  -2    5.57    0.30 
   7   3   2    5.44    0.34 
  -7  -4  -2    5.90    0.33 
   7   4   2    6.06    0.36 
   7   5   2    0.71    0.13 
   7   6   2    0.33    0.10 
   7   7   2    0.02    0.09 
   7   8   2    0.46    0.13 
  -7  -9  -2   -0.04    0.06 
  -7  -9  -2    0.01    0.10 
  -7 -10  -2    1.75    0.18 
  -7 -10  -2    1.88    0.22 
  -7 -11  -2    0.00    0.08 
  -7 -11  -2   -0.06    0.11 
  -7 -12  -2   -0.01    0.13 
  -7 -13  -2    0.16    0.14 
  -7 -14  -2   -0.20    0.15 
  -7 -15  -2    0.09    0.20 
  -7 -16  -2    0.16    0.25 
   7 -16   3   -0.28    0.20 
   7 -15   3    0.07    0.18 
   7 -14   3   -0.09    0.16 
   7 -13   3    0.07    0.15 
   7 -13   3    0.17    0.14 
   7 -12   3    0.90    0.17 
   7 -12   3    0.97    0.18 
   7 -11   3    1.33    0.20 
   7 -11   3    1.41    0.20 
   7 -10   3    0.06    0.09 
   7 -10   3   -0.02    0.10 
   7  -9   3    0.01    0.10 
   7  -9   3   -0.02    0.09 
   7  -8   3    0.48    0.12 
   7  -8   3    0.56    0.11 
   7  -7   3    0.35    0.08 
   7  -7   3    0.16    0.08 
   7  -6   3    0.30    0.09 
   7  -6   3    0.44    0.08 
   7  -5   3    3.69    0.25 
   7  -5   3    3.78    0.22 
   7  -4   3    0.67    0.08 
   7  -4   3    0.56    0.11 
   7  -3   3    3.12    0.18 
   7  -3   3    3.40    0.22 
  -7   2  -3   10.73    0.56 
   7  -2   3   11.26    0.54 
   7  -2   3   10.11    0.49 
  -7   1  -3    0.00    0.07 
   7  -1   3    0.02    0.05 
  -7   0  -3    0.07    0.07 
   7   0   3    0.08    0.06 
  -7  -1  -3    0.05    0.06 
   7   1   3    0.10    0.06 
  -7  -2  -3   11.31    0.55 
   7   2   3   10.79    0.57 
  -7  -3  -3    3.63    0.22 
   7   3   3    3.39    0.24 
  -7  -4  -3    0.75    0.11 
   7   4   3    0.85    0.13 
   7   5   3    3.72    0.26 
   7   6   3    0.39    0.11 
  -7  -7  -3    0.42    0.11 
   7   7   3    0.02    0.08 
  -7  -8  -3    0.46    0.13 
   7   8   3    0.61    0.15 
  -7  -9  -3   -0.19    0.10 
   7   9   3    0.04    0.12 
  -7 -10  -3   -0.04    0.11 
  -7 -10  -3    0.00    0.08 
  -7 -11  -3    1.41    0.21 
  -7 -12  -3    0.82    0.19 
  -7 -13  -3    0.09    0.15 
  -7 -14  -3    0.18    0.16 
  -7 -15  -3   -0.02    0.18 
  -7 -16  -3   -0.05    0.24 
   7 -16   4   -0.13    0.21 
   7 -15   4    0.45    0.21 
   7 -14   4   -0.14    0.16 
   7 -13   4    0.56    0.19 
   7 -13   4    0.69    0.17 
   7 -12   4    0.26    0.13 
   7 -12   4    0.12    0.14 
   7 -11   4    0.13    0.12 
   7 -11   4    0.02    0.10 
   7 -10   4    0.25    0.11 
   7 -10   4    0.26    0.12 
   7  -9   4    5.42    0.34 
   7  -9   4    5.22    0.35 
   7  -8   4    2.80    0.21 
   7  -8   4    2.71    0.22 
   7  -7   4   -0.02    0.06 
   7  -7   4    0.10    0.07 
   7  -6   4    4.05    0.24 
   7  -6   4    4.30    0.28 
   7  -5   4    1.17    0.11 
   7  -5   4    1.36    0.16 
   7  -4   4    0.20    0.08 
   7  -4   4    0.32    0.06 
   7  -3   4    0.58    0.11 
   7  -3   4    0.49    0.06 
  -7   2  -4    0.33    0.10 
   7  -2   4    0.45    0.10 
  -7   1  -4    2.30    0.21 
   7  -1   4    2.12    0.17 
  -7   0  -4    3.76    0.26 
   7   0   4    4.03    0.26 
  -7  -1  -4    1.97    0.17 
   7   1   4    2.17    0.18 
  -7  -2  -4    0.58    0.10 
   7   2   4    0.53    0.11 
  -7  -3  -4    0.47    0.10 
  -7  -3  -4    0.52    0.07 
   7   3   4    0.74    0.12 
  -7  -4  -4    0.30    0.07 
  -7  -4  -4    0.31    0.10 
   7   4   4    0.25    0.09 
  -7  -5  -4    1.12    0.12 
  -7  -5  -4    1.24    0.15 
   7   5   4    1.42    0.18 
  -7  -7  -4   -0.01    0.08 
   7   7   4   -0.06    0.08 
  -7  -8  -4    2.43    0.21 
   7   8   4    2.61    0.26 
  -7  -9  -4    5.10    0.35 
   7   9   4    6.11    0.39 
  -7 -10  -4    0.20    0.12 
  -7 -11  -4    0.07    0.13 
  -7 -12  -4    0.11    0.14 
  -7 -13  -4    0.35    0.17 
  -7 -14  -4    0.34    0.18 
  -7 -15  -4    0.41    0.23 
  -7 -16  -4   -0.14    0.25 
   7 -16   5    0.01    0.22 
   7 -15   5    0.19    0.21 
   7 -14   5    0.13    0.18 
   7 -14   5    0.29    0.16 
   7 -13   5    1.52    0.23 
   7 -13   5    1.58    0.24 
   7 -12   5   -0.09    0.13 
   7 -12   5    0.01    0.11 
   7 -11   5    2.44    0.26 
   7 -11   5    2.66    0.26 
   7 -10   5    0.05    0.11 
   7 -10   5    0.19    0.11 
   7  -9   5    0.01    0.10 
   7  -9   5   -0.01    0.09 
   7  -8   5    1.77    0.17 
   7  -8   5    1.28    0.18 
   7  -7   5    0.24    0.09 
   7  -7   5    0.27    0.08 
   7  -6   5    0.27    0.10 
   7  -6   5    0.49    0.09 
   7  -5   5    0.08    0.06 
   7  -5   5    0.03    0.06 
   7  -4   5    1.40    0.17 
   7  -4   5    1.35    0.10 
   7  -3   5    2.84    0.21 
  -7   2  -5    0.33    0.12 
   7  -2   5    0.20    0.08 
  -7   1  -5    3.33    0.26 
   7  -1   5    3.74    0.24 
  -7   0  -5    0.07    0.08 
   7   0   5   -0.01    0.05 
  -7  -1  -5    3.53    0.25 
   7   1   5    3.54    0.24 
  -7  -2  -5    0.22    0.09 
   7   2   5    0.20    0.08 
  -7  -3  -5    3.19    0.23 
   7   3   5    3.06    0.23 
  -7  -4  -5    1.37    0.15 
  -7  -4  -5    1.33    0.11 
   7   4   5    1.59    0.18 
  -7  -5  -5   -0.02    0.06 
  -7  -5  -5    0.07    0.08 
   7   5   5    0.06    0.07 
  -7  -6  -5    0.28    0.10 
  -7  -6  -5    0.39    0.09 
   7   6   5    0.44    0.11 
  -7  -7  -5    0.30    0.11 
  -7  -7  -5    0.25    0.10 
   7   7   5    0.52    0.13 
  -7  -8  -5    1.42    0.17 
   7   8   5    1.40    0.21 
  -7  -9  -5   -0.12    0.09 
   7   9   5    0.16    0.11 
  -7 -10  -5   -0.04    0.11 
  -7 -11  -5    2.54    0.26 
  -7 -12  -5   -0.01    0.13 
  -7 -13  -5    1.41    0.23 
  -7 -14  -5    0.37    0.20 
  -7 -15  -5    0.11    0.21 
  -7 -16  -5   -0.26    0.25 
   7 -15   6   -0.03    0.21 
   7 -14   6    0.09    0.15 
   7 -14   6   -0.04    0.17 
   7 -13   6    0.13    0.17 
   7 -13   6    0.17    0.14 
   7 -12   6    0.02    0.14 
   7 -12   6   -0.07    0.10 
   7 -11   6    0.16    0.12 
   7 -11   6    0.26    0.13 
   7 -10   6    0.14    0.12 
   7 -10   6    0.12    0.11 
   7  -9   6    1.08    0.16 
   7  -9   6    0.91    0.16 
   7  -8   6    0.11    0.07 
   7  -8   6    0.84    0.15 
   7  -7   6    1.82    0.16 
   7  -7   6    1.57    0.20 
   7  -6   6    1.55    0.18 
   7  -6   6    1.38    0.13 
   7  -5   6    3.59    0.21 
   7  -5   6    3.45    0.25 
   7  -4   6    0.07    0.07 
   7  -4   6    0.13    0.05 
   7  -3   6    2.68    0.21 
  -7   2  -6    1.35    0.20 
   7  -2   6    1.53    0.17 
  -7   1  -6    0.48    0.13 
   7  -1   6    0.48    0.11 
  -7   0  -6    1.08    0.16 
   7   0   6    1.11    0.15 
  -7  -1  -6    0.52    0.13 
   7   1   6    0.83    0.13 
  -7  -2  -6    1.39    0.17 
   7   2   6    1.54    0.17 
  -7  -3  -6    2.18    0.20 
   7   3   6    2.57    0.20 
  -7  -4  -6    0.06    0.06 
  -7  -4  -6   -0.02    0.08 
   7   4   6    0.13    0.08 
  -7  -5  -6    3.19    0.25 
  -7  -5  -6    3.29    0.21 
  -7  -6  -6    1.18    0.13 
  -7  -6  -6    0.99    0.16 
   7   6   6    1.35    0.17 
  -7  -7  -6    1.37    0.16 
  -7  -7  -6    1.75    0.20 
   7   7   6    1.96    0.21 
  -7  -8  -6    0.67    0.13 
  -7  -8  -6    0.54    0.14 
   7   8   6    0.94    0.17 
  -7  -9  -6    1.05    0.16 
  -7 -10  -6    0.11    0.12 
  -7 -11  -6    0.06    0.12 
  -7 -12  -6   -0.08    0.12 
  -7 -13  -6   -0.06    0.13 
  -7 -14  -6   -0.06    0.17 
  -7 -15  -6   -0.11    0.21 
   7 -15   7    0.17    0.22 
   7 -15   7    0.07    0.22 
   7 -14   7    0.07    0.19 
   7 -14   7    0.17    0.16 
   7 -13   7    0.00    0.13 
   7 -13   7   -0.06    0.17 
   7 -12   7    0.36    0.16 
   7 -12   7    0.13    0.13 
   7 -11   7    0.03    0.12 
   7 -11   7   -0.08    0.11 
   7 -10   7   -0.12    0.08 
   7 -10   7   -0.07    0.11 
   7  -9   7    0.02    0.09 
   7  -9   7    0.25    0.12 
   7  -8   7    1.32    0.16 
   7  -8   7    1.24    0.19 
   7  -7   7    0.25    0.09 
   7  -7   7    0.21    0.10 
   7  -6   7    0.70    0.10 
   7  -6   7    0.54    0.13 
   7  -5   7    0.69    0.09 
   7  -5   7    0.58    0.12 
   7  -4   7    1.98    0.20 
   7  -4   7    1.86    0.12 
  -7   3  -7    0.02    0.10 
   7  -3   7    0.03    0.06 
  -7   2  -7    0.42    0.15 
   7  -2   7    0.71    0.13 
  -7   1  -7    0.67    0.15 
   7  -1   7    0.70    0.13 
  -7   0  -7    0.02    0.09 
   7   0   7   -0.02    0.06 
  -7  -1  -7    0.69    0.15 
   7   1   7    0.77    0.14 
  -7  -2  -7    0.57    0.13 
   7   2   7    0.77    0.13 
  -7  -3  -7    0.05    0.09 
   7   3   7    0.03    0.07 
  -7  -4  -7    1.75    0.20 
   7   4   7    2.15    0.21 
  -7  -5  -7    0.48    0.10 
  -7  -5  -7    0.66    0.13 
   7   5   7    0.61    0.13 
  -7  -6  -7    0.65    0.14 
  -7  -6  -7    0.41    0.10 
   7   6   7    0.63    0.13 
  -7  -7  -7    0.11    0.10 
  -7  -7  -7    0.26    0.12 
   7   7   7    0.14    0.10 
  -7  -8  -7    0.94    0.15 
  -7  -8  -7    1.20    0.19 
  -7  -9  -7    0.01    0.11 
  -7  -9  -7    0.12    0.12 
  -7 -10  -7    0.05    0.10 
  -7 -10  -7   -0.07    0.11 
  -7 -11  -7   -0.17    0.12 
  -7 -12  -7    0.30    0.16 
  -7 -13  -7   -0.08    0.15 
  -7 -14  -7   -0.21    0.19 
  -7 -15  -7   -0.01    0.25 
   7 -15   8    0.13    0.23 
   7 -14   8    0.10    0.18 
   7 -13   8   -0.14    0.14 
   7 -12   8    0.06    0.12 
   7 -11   8    0.07    0.12 
   7 -10   8    0.14    0.11 
   7 -10   8   -0.05    0.12 
   7  -9   8    0.13    0.11 
   7  -9   8    0.21    0.12 
   7  -8   8    3.84    0.24 
   7  -8   8    2.64    0.28 
   7  -7   8    0.44    0.12 
   7  -7   8    0.56    0.11 
   7  -6   8    4.86    0.33 
   7  -5   8    0.03    0.08 
   7  -4   8    0.53    0.12 
  -7   3  -8    1.03    0.20 
   7  -3   8    0.87    0.14 
  -7   2  -8    0.61    0.15 
   7  -2   8    0.65    0.12 
  -7   1  -8    0.06    0.11 
   7  -1   8    0.09    0.07 
  -7   0  -8   -0.04    0.09 
   7   0   8    0.00    0.07 
  -7  -1  -8    0.11    0.09 
   7   1   8   -0.06    0.08 
  -7  -2  -8    0.69    0.15 
   7   2   8    0.93    0.15 
  -7  -3  -8    0.92    0.16 
   7   3   8    1.18    0.17 
  -7  -4  -8    0.54    0.14 
   7   4   8    0.33    0.10 
  -7  -5  -8    0.10    0.09 
  -7  -5  -8    0.10    0.11 
   7   5   8    0.20    0.10 
  -7  -6  -8    4.84    0.34 
  -7  -6  -8    4.39    0.29 
   7   6   8    4.87    0.32 
  -7  -7  -8    0.36    0.14 
  -7  -7  -8    0.29    0.12 
  -7  -8  -8    3.14    0.24 
  -7  -8  -8    2.76    0.28 
  -7  -9  -8    0.21    0.12 
  -7  -9  -8    0.12    0.13 
  -7 -10  -8    0.12    0.11 
  -7 -10  -8   -0.07    0.12 
  -7 -11  -8   -0.03    0.12 
  -7 -11  -8    0.03    0.14 
  -7 -12  -8    0.12    0.13 
  -7 -13  -8    0.02    0.16 
   7 -14   9    0.09    0.21 
   7 -13   9    0.41    0.20 
   7 -12   9    0.04    0.13 
   7 -11   9    0.78    0.19 
   7 -10   9    0.22    0.12 
   7  -9   9   -0.02    0.09 
   7  -8   9    1.14    0.19 
   7  -7   9    0.02    0.08 
   7  -6   9    0.66    0.15 
   7  -5   9    0.63    0.13 
   7  -4   9    0.83    0.15 
  -7   3  -9    0.65    0.18 
   7  -3   9    0.84    0.15 
  -7   2  -9    0.04    0.11 
   7  -2   9   -0.02    0.06 
  -7   1  -9    2.65    0.29 
   7  -1   9    2.54    0.24 
  -7   0  -9    0.15    0.10 
   7   0   9   -0.04    0.07 
  -7  -1  -9    2.44    0.26 
   7   1   9    2.44    0.24 
  -7  -2  -9    0.04    0.10 
   7   2   9   -0.01    0.08 
  -7  -3  -9    0.52    0.15 
   7   3   9    0.78    0.15 
  -7  -4  -9    0.74    0.16 
   7   4   9    0.16    0.09 
  -7  -5  -9    0.48    0.15 
   7   5   9    0.84    0.15 
  -7  -6  -9    0.47    0.14 
   7   6   9    0.81    0.15 
  -7  -7  -9    0.02    0.11 
  -7  -8  -9    0.63    0.16 
  -7  -9  -9   -0.01    0.12 
  -7 -10  -9    0.12    0.14 
  -7 -11  -9    0.67    0.18 
  -7 -12  -9   -0.05    0.15 
  -7 -13  -9    0.31    0.20 
  -7 -14  -9   -0.08    0.23 
   7 -14  10    0.06    0.23 
   7 -13  10    0.14    0.19 
   7 -12  10    0.13    0.18 
   7 -11  10    0.15    0.14 
   7 -10  10    0.00    0.11 
   7  -9  10    0.26    0.13 
   7  -8  10   -0.04    0.08 
   7  -7  10    0.58    0.15 
   7  -6  10   -0.04    0.08 
   7  -5  10    3.60    0.28 
   7  -4  10    0.35    0.11 
  -7   3 -10    1.31    0.25 
   7  -3  10    1.56    0.20 
  -7   2 -10    0.01    0.12 
   7  -2  10   -0.02    0.07 
  -7   1 -10    0.29    0.16 
   7  -1  10    0.46    0.12 
  -7   0 -10    0.13    0.13 
   7   0  10    0.20    0.10 
  -7  -1 -10    0.29    0.15 
   7   1  10    0.42    0.12 
  -7  -2 -10    0.13    0.12 
   7   2  10    0.00    0.09 
  -7  -3 -10    1.51    0.22 
   7   3  10    1.45    0.20 
  -7  -4 -10    0.23    0.13 
   7   4  10   -0.02    0.08 
  -7  -5 -10    4.09    0.33 
   7   5  10    3.91    0.29 
  -7  -6 -10   -0.09    0.11 
  -7  -7 -10    0.48    0.15 
  -7  -8 -10    0.04    0.11 
  -7  -9 -10    0.13    0.14 
  -7 -10 -10   -0.03    0.14 
  -7 -11 -10    0.05    0.17 
  -7 -12 -10    0.03    0.19 
  -7 -13 -10   -0.03    0.22 
  -7 -14 -10   -0.01    0.24 
   7 -13  11    0.22    0.23 
   7 -12  11    0.20    0.19 
   7 -11  11    0.20    0.17 
   7 -10  11    0.06    0.14 
   7  -9  11    0.14    0.12 
   7  -8  11    0.60    0.16 
   7  -7  11    0.11    0.11 
   7  -6  11   -0.07    0.08 
   7  -5  11    0.69    0.16 
   7  -4  11    0.03    0.09 
  -7   3 -11    0.53    0.19 
   7  -3  11    0.71    0.15 
  -7   2 -11    1.24    0.24 
   7  -2  11    1.11    0.18 
  -7   1 -11    0.02    0.12 
   7  -1  11    0.00    0.08 
  -7   0 -11   -0.07    0.12 
   7   0  11    0.05    0.09 
  -7  -1 -11   -0.07    0.11 
   7   1  11    0.09    0.10 
  -7  -2 -11    0.86    0.20 
   7   2  11    1.16    0.18 
  -7  -3 -11    0.41    0.16 
   7   3  11    0.42    0.14 
  -7  -4 -11    0.15    0.14 
   7   4  11    0.02    0.09 
  -7  -5 -11    0.69    0.17 
  -7  -6 -11    0.09    0.12 
  -7  -7 -11    0.30    0.15 
  -7  -8 -11    0.34    0.15 
  -7  -9 -11    0.22    0.15 
  -7 -10 -11    0.00    0.16 
  -7 -11 -11    0.11    0.19 
  -7 -12 -11    0.21    0.24 
  -7 -13 -11   -0.11    0.25 
   7 -12  12    0.04    0.22 
   7 -11  12   -0.03    0.18 
   7 -10  12    0.31    0.18 
   7  -9  12    0.02    0.13 
   7  -8  12    0.00    0.11 
   7  -7  12    0.12    0.12 
   7  -6  12    0.23    0.11 
   7  -5  12    0.01    0.10 
   7  -4  12    0.77    0.16 
  -7   3 -12   -0.01    0.14 
   7  -3  12   -0.02    0.08 
  -7   2 -12   -0.01    0.13 
   7  -2  12    0.14    0.10 
  -7   1 -12   -0.19    0.11 
   7  -1  12   -0.06    0.09 
  -7   0 -12    0.21    0.15 
   7   0  12    0.22    0.11 
  -7  -1 -12   -0.06    0.12 
   7   1  12   -0.02    0.09 
  -7  -2 -12   -0.16    0.12 
   7   2  12    0.20    0.11 
  -7  -3 -12    0.07    0.13 
   7   3  12    0.08    0.11 
  -7  -4 -12    0.31    0.15 
   7   4  12    0.49    0.15 
  -7  -5 -12    0.19    0.15 
  -7  -6 -12    0.14    0.14 
  -7  -7 -12    0.08    0.14 
  -7  -8 -12    0.02    0.14 
  -7  -9 -12   -0.05    0.15 
  -7 -10 -12   -0.07    0.20 
  -7 -11 -12    0.09    0.22 
  -7 -12 -12   -0.09    0.25 
   7 -11  13    0.38    0.24 
   7 -10  13    0.18    0.19 
   7  -9  13   -0.09    0.15 
   7  -8  13    0.15    0.13 
   7  -7  13   -0.09    0.12 
   7  -6  13    0.11    0.13 
   7  -5  13    0.04    0.11 
   7  -4  13    0.11    0.11 
  -7   3 -13    0.10    0.16 
   7  -3  13    0.01    0.10 
  -7   2 -13    0.40    0.19 
   7  -2  13    0.78    0.16 
  -7   1 -13   -0.05    0.14 
   7  -1  13    0.04    0.10 
  -7   0 -13    0.03    0.15 
   7   0  13    0.03    0.10 
  -7  -1 -13   -0.03    0.13 
   7   1  13    0.01    0.11 
  -7  -2 -13    0.51    0.19 
   7   2  13    0.66    0.15 
  -7  -3 -13   -0.05    0.15 
   7   3  13    0.19    0.12 
  -7  -4 -13    0.08    0.17 
  -7  -5 -13   -0.11    0.16 
  -7  -6 -13    0.07    0.19 
  -7  -7 -13   -0.16    0.17 
  -7  -8 -13    0.12    0.19 
  -7  -9 -13   -0.17    0.19 
  -7 -10 -13    0.08    0.24 
  -7 -11 -13    0.24    0.27 
   7 -10  14    0.18    0.22 
   7  -9  14   -0.02    0.18 
   7  -8  14    0.08    0.14 
   7  -7  14   -0.01    0.13 
   7  -6  14    0.06    0.14 
   7  -5  14    1.95    0.27 
   7  -4  14    0.12    0.13 
  -7   3 -14    0.30    0.19 
   7  -3  14    0.08    0.12 
  -7   2 -14    0.27    0.18 
   7  -2  14   -0.05    0.11 
  -7   1 -14   -0.07    0.15 
   7  -1  14    0.02    0.12 
  -7   0 -14    0.19    0.18 
   7   0  14    0.05    0.12 
  -7  -1 -14   -0.18    0.14 
   7   1  14   -0.11    0.11 
  -7  -2 -14    0.02    0.16 
   7   2  14   -0.08    0.12 
  -7  -3 -14    0.00    0.18 
  -7  -4 -14    0.06    0.19 
  -7  -5 -14    1.89    0.31 
  -7  -6 -14   -0.05    0.18 
  -7  -7 -14    0.25    0.21 
  -7  -8 -14    0.11    0.22 
  -7  -9 -14    0.02    0.21 
  -7 -10 -14   -0.16    0.20 
   7  -9  15    0.03    0.15 
   7  -8  15    0.33    0.19 
   7  -7  15    0.38    0.19 
   7  -6  15    0.26    0.16 
   7  -5  15    0.30    0.16 
   7  -4  15    0.40    0.17 
  -7   3 -15    0.26    0.21 
   7  -3  15    0.15    0.14 
  -7   2 -15   -0.22    0.16 
   7  -2  15    0.01    0.12 
  -7   1 -15    0.01    0.19 
   7  -1  15    0.10    0.12 
  -7   0 -15    0.22    0.21 
   7   0  15   -0.01    0.13 
  -7  -1 -15    0.05    0.19 
   7   1  15    0.17    0.14 
  -7  -2 -15    0.03    0.19 
  -7  -3 -15    0.30    0.22 
  -7  -4 -15   -0.10    0.18 
  -7  -5 -15    0.18    0.20 
  -7  -6 -15    0.02    0.21 
  -7  -7 -15    0.11    0.22 
  -7  -8 -15    0.02    0.23 
  -7  -9 -15   -0.23    0.22 
   7  -8  16   -0.15    0.16 
   7  -7  16    0.04    0.17 
   7  -6  16   -0.02    0.15 
   7  -5  16    0.05    0.16 
   7  -4  16    0.11    0.15 
   7  -3  16    0.08    0.15 
  -7   2 -16    0.27    0.23 
   7  -2  16    0.14    0.15 
  -7   1 -16    0.19    0.22 
   7  -1  16    0.15    0.15 
  -7   0 -16   -0.05    0.20 
   7   0  16   -0.15    0.13 
  -7  -1 -16    0.12    0.21 
   7   1  16    0.01    0.18 
  -7  -2 -16    0.17    0.22 
  -7  -3 -16    0.16    0.23 
  -7  -4 -16    0.53    0.26 
  -7  -5 -16   -0.08    0.22 
  -7  -6 -16    0.05    0.23 
  -7  -7 -16    0.30    0.26 
  -7  -8 -16   -0.35    0.22 
   7  -5  17   -0.01    0.17 
   7  -4  17    0.06    0.17 
   7  -3  17   -0.07    0.15 
  -7   2 -17    0.07    0.23 
   7  -2  17   -0.08    0.16 
  -7   1 -17   -0.01    0.22 
   7  -1  17   -0.22    0.15 
  -7   0 -17   -0.01    0.22 
   7   0  17    0.13    0.19 
  -7  -1 -17   -0.03    0.21 
  -7  -2 -17    0.26    0.24 
  -7  -3 -17    0.22    0.25 
  -7  -4 -17   -0.11    0.24 
  -7  -5 -17    0.16    0.28 
  -7  -6 -17    0.12    0.27 
  -7   2 -18    0.02    0.23 
   7  -2  18    0.04    0.19 
  -7   1 -18   -0.11    0.22 
   7  -1  18   -0.07    0.20 
  -7   0 -18    0.16    0.24 
  -7  -1 -18   -0.08    0.22 
  -7  -2 -18    0.03    0.25 
   8  -5 -17    0.11    0.40 
   8  -4 -17    0.02    0.37 
   8  -3 -17   -0.28    0.31 
   8  -2 -17    0.10    0.32 
   8  -1 -17   -0.20    0.29 
   8   0 -17   -0.15    0.29 
   8   1 -17    0.07    0.30 
  -8  -2  17   -0.23    0.26 
  -8  -2  17    0.49    0.17 
   8   2 -17    0.44    0.34 
  -8  -3  17   -0.31    0.21 
  -8  -4  17   -0.45    0.20 
   8  -7 -16    0.29    0.38 
   8  -6 -16    0.43    0.36 
   8  -5 -16    0.54    0.35 
   8  -4 -16    0.21    0.29 
   8  -3 -16   -0.18    0.26 
   8  -2 -16   -0.22    0.23 
   8  -1 -16   -0.12    0.22 
   8   0 -16    0.01    0.23 
  -8  -1  16    0.03    0.11 
   8   1 -16    0.08    0.24 
  -8  -2  16    0.06    0.12 
   8   2 -16    0.03    0.26 
  -8  -3  16    0.10    0.12 
   8   3 -16   -0.07    0.27 
  -8  -4  16    0.18    0.14 
  -8  -5  16    0.44    0.16 
  -8  -6  16    0.24    0.16 
  -8  -7  16   -0.09    0.14 
   8  -9 -15    0.03    0.34 
   8  -8 -15    0.21    0.32 
   8  -7 -15    0.07    0.29 
   8  -6 -15    0.12    0.27 
   8  -5 -15   -0.01    0.24 
   8  -4 -15    0.21    0.23 
   8  -3 -15    0.15    0.22 
   8  -2 -15    0.26    0.23 
   8  -1 -15   -0.06    0.18 
  -8   0  15   -0.04    0.09 
   8   0 -15    0.01    0.18 
  -8  -1  15   -0.04    0.10 
   8   1 -15    0.10    0.19 
  -8  -2  15    0.13    0.10 
   8   2 -15    0.15    0.21 
  -8  -3  15    0.04    0.11 
   8   3 -15    0.07    0.22 
  -8  -4  15    0.16    0.12 
  -8  -5  15    0.04    0.12 
  -8  -6  15    0.06    0.13 
  -8  -7  15    0.02    0.13 
  -8  -8  15    0.09    0.15 
   8 -10 -14   -0.07    0.30 
   8  -9 -14   -0.10    0.27 
   8  -8 -14    0.06    0.25 
   8  -7 -14    0.17    0.23 
   8  -6 -14    0.93    0.28 
   8  -5 -14    0.28    0.22 
   8  -4 -14    0.30    0.19 
   8  -3 -14   -0.01    0.16 
   8  -2 -14   -0.05    0.16 
  -8   1  14    0.20    0.10 
   8  -1 -14    0.16    0.19 
  -8   0  14    1.11    0.15 
   8   0 -14    0.60    0.24 
  -8  -1  14    0.23    0.10 
   8   1 -14    0.06    0.18 
  -8  -2  14    0.08    0.09 
   8   2 -14    0.13    0.18 
  -8  -3  14    0.00    0.09 
   8   3 -14    0.00    0.18 
  -8  -4  14    0.51    0.13 
  -8  -5  14    0.09    0.10 
  -8  -6  14    0.88    0.18 
  -8  -7  14   -0.01    0.12 
  -8  -8  14    0.00    0.12 
  -8  -9  14    0.02    0.13 
  -8 -10  14    0.43    0.17 
   8 -11 -13    0.17    0.30 
   8 -10 -13    0.12    0.27 
   8  -9 -13    0.07    0.23 
   8  -8 -13    0.35    0.22 
   8  -7 -13    0.47    0.21 
   8  -6 -13    0.62    0.21 
   8  -5 -13    0.16    0.17 
   8  -4 -13    0.92    0.23 
   8  -3 -13    0.38    0.19 
   8  -2 -13    0.19    0.17 
  -8   1  13    0.12    0.08 
   8  -1 -13   -0.03    0.15 
  -8   0  13   -0.02    0.06 
   8   0 -13    0.09    0.15 
  -8  -1  13   -0.01    0.07 
   8   1 -13    0.06    0.16 
  -8  -2  13    0.26    0.10 
   8   2 -13    0.09    0.17 
  -8  -3  13    0.39    0.11 
   8   3 -13    0.70    0.22 
  -8  -4  13    1.01    0.16 
   8   4 -13    0.83    0.25 
  -8  -5  13    0.08    0.09 
  -8  -6  13    0.46    0.13 
  -8  -7  13    0.21    0.12 
  -8  -8  13    0.40    0.14 
  -8  -9  13    0.10    0.13 
  -8 -10  13   -0.01    0.17 
  -8 -11  13    0.09    0.19 
   8 -12 -12    0.26    0.29 
   8 -11 -12    0.11    0.26 
   8 -10 -12    0.35    0.25 
   8  -9 -12    0.21    0.20 
   8  -8 -12    0.07    0.16 
   8  -7 -12   -0.04    0.15 
   8  -6 -12   -0.01    0.15 
   8  -5 -12    1.37    0.25 
   8  -4 -12    0.08    0.16 
   8  -3 -12   -0.02    0.14 
  -8   2  12    0.08    0.06 
   8  -2 -12   -0.09    0.13 
  -8   1  12    0.12    0.07 
   8  -1 -12   -0.04    0.12 
  -8   0  12    0.00    0.06 
   8   0 -12   -0.05    0.13 
  -8  -1  12    0.20    0.09 
   8   1 -12    0.06    0.14 
  -8  -2  12    0.09    0.07 
   8   2 -12   -0.13    0.12 
  -8  -3  12    0.10    0.07 
   8   3 -12    0.13    0.15 
  -8  -4  12   -0.05    0.07 
   8   4 -12    0.13    0.16 
  -8  -5  12    1.41    0.18 
  -8  -6  12    0.02    0.09 
  -8  -7  12    0.02    0.09 
  -8  -8  12    0.03    0.10 
  -8  -9  12    0.28    0.13 
  -8 -10  12    0.17    0.15 
  -8 -11  12   -0.01    0.17 
  -8 -12  12    0.17    0.20 
   8 -13 -11    0.17    0.27 
   8 -12 -11    0.17    0.26 
   8 -11 -11   -0.09    0.20 
   8 -10 -11    0.14    0.19 
   8  -9 -11    0.29    0.17 
   8  -8 -11    0.01    0.14 
   8  -7 -11    0.07    0.14 
   8  -6 -11    0.17    0.15 
   8  -5 -11    0.36    0.16 
   8  -4 -11    0.66    0.19 
  -8   3  11    0.24    0.08 
   8  -3 -11    0.31    0.15 
  -8   2  11    0.34    0.08 
   8  -2 -11    0.45    0.18 
  -8   1  11    0.69    0.11 
   8  -1 -11    0.77    0.21 
  -8   0  11    0.03    0.06 
   8   0 -11   -0.09    0.13 
  -8  -1  11    0.87    0.13 
   8   1 -11    0.89    0.22 
  -8  -2  11    0.74    0.13 
   8   2 -11    0.89    0.24 
  -8  -3  11    0.20    0.09 
   8   3 -11    0.07    0.14 
  -8  -4  11    0.85    0.14 
   8   4 -11    1.15    0.27 
  -8  -5  11    0.32    0.11 
  -8  -6  11    0.25    0.10 
  -8  -7  11    0.12    0.10 
  -8  -8  11    0.03    0.08 
  -8  -9  11    0.19    0.11 
  -8 -10  11    0.02    0.11 
  -8 -11  11    0.18    0.15 
  -8 -12  11    0.12    0.18 
  -8 -13  11    0.21    0.21 
   8 -13 -10    0.02    0.25 
   8 -12 -10    0.07    0.22 
   8 -11 -10    0.03    0.18 
   8 -10 -10    0.22    0.16 
   8  -9 -10    0.06    0.14 
   8  -8 -10    0.02    0.12 
   8  -7 -10    0.20    0.13 
   8  -6 -10    0.63    0.17 
   8  -5 -10    0.13    0.13 
   8  -4 -10    2.86    0.31 
  -8   3  10    0.06    0.06 
   8  -3 -10    0.01    0.12 
  -8   2  10    0.05    0.06 
   8  -2 -10    0.07    0.13 
  -8   1  10    0.73    0.11 
   8  -1 -10    0.46    0.16 
  -8   0  10    1.99    0.18 
   8   0 -10    1.77    0.28 
  -8  -1  10    0.78    0.12 
   8   1 -10    0.66    0.20 
  -8  -2  10    0.06    0.07 
   8   2 -10    0.01    0.12 
  -8  -3  10    0.07    0.07 
   8   3 -10    0.01    0.12 
  -8  -4  10    2.83    0.22 
   8   4 -10    2.60    0.36 
  -8  -5  10   -0.02    0.07 
  -8  -6  10    0.70    0.14 
  -8  -7  10    0.24    0.10 
  -8  -8  10    0.08    0.09 
  -8  -9  10    0.06    0.09 
  -8 -10  10    0.06    0.11 
  -8 -11  10    0.12    0.12 
  -8 -12  10    0.04    0.15 
  -8 -13  10    0.03    0.18 
   8 -14  -9    0.11    0.24 
   8 -13  -9    0.14    0.22 
   8 -12  -9    0.31    0.18 
   8 -11  -9    0.16    0.17 
   8 -10  -9    0.12    0.15 
   8  -9  -9    0.24    0.14 
   8  -8  -9    0.59    0.16 
   8  -7  -9   -0.07    0.11 
   8  -6  -9    2.12    0.26 
   8  -5  -9    0.21    0.14 
  -8   4   9    1.49    0.14 
   8  -4  -9    1.32    0.22 
  -8   3   9    0.21    0.07 
   8  -3  -9    0.12    0.12 
  -8   2   9    2.73    0.19 
   8  -2  -9    2.30    0.28 
  -8   1   9    0.17    0.06 
   8  -1  -9    0.00    0.12 
  -8   0   9    0.09    0.06 
   8   0  -9   -0.02    0.11 
  -8  -1   9    0.10    0.06 
   8   1  -9    0.08    0.11 
  -8  -2   9    2.50    0.19 
   8   2  -9    2.60    0.32 
  -8  -3   9    0.13    0.07 
   8   3  -9    0.19    0.13 
  -8  -4   9    1.50    0.18 
   8   4  -9    1.36    0.27 
  -8  -5   9    0.10    0.08 
  -8  -6   9    1.94    0.21 
  -8  -7   9    0.04    0.07 
  -8  -8   9    0.51    0.12 
  -8  -9   9    0.12    0.09 
  -8 -10   9    0.01    0.09 
  -8 -11   9    0.13    0.11 
  -8 -12   9    0.00    0.11 
  -8 -13   9   -0.08    0.14 
  -8 -14   9    0.04    0.20 
   8 -14  -8    0.14    0.23 
   8 -13  -8    0.02    0.19 
   8 -12  -8   -0.11    0.15 
   8 -11  -8   -0.06    0.13 
   8 -10  -8    0.03    0.12 
   8  -9  -8    0.14    0.14 
   8  -8  -8    0.13    0.13 
   8  -7  -8   -0.08    0.11 
   8  -6  -8    0.22    0.12 
  -8   5   8    0.58    0.09 
   8  -5  -8    0.68    0.12 
   8  -5  -8    0.60    0.17 
  -8   4   8    2.21    0.17 
   8  -4  -8    2.04    0.17 
   8  -4  -8    2.13    0.24 
  -8   3   8    0.65    0.11 
   8  -3  -8    0.58    0.15 
  -8   2   8    0.88    0.12 
   8  -2  -8    0.89    0.18 
  -8   1   8    0.19    0.06 
   8  -1  -8    0.04    0.11 
  -8   0   8    3.72    0.23 
   8   0  -8    2.94    0.32 
  -8  -1   8    0.09    0.06 
   8   1  -8   -0.05    0.11 
  -8  -2   8    1.00    0.14 
   8   2  -8    1.04    0.22 
  -8  -3   8    0.54    0.11 
   8   3  -8    0.53    0.17 
  -8  -4   8    1.82    0.19 
   8   4  -8    1.91    0.29 
  -8  -5   8    0.73    0.13 
  -8  -6   8    0.11    0.07 
  -8  -7   8    0.03    0.07 
  -8  -8   8    0.12    0.08 
  -8  -9   8    0.24    0.10 
  -8 -10   8    0.04    0.09 
  -8 -11   8    0.13    0.11 
  -8 -12   8   -0.04    0.11 
  -8 -13   8    0.01    0.14 
  -8 -14   8    0.00    0.16 
   8 -15  -7    0.02    0.21 
   8 -14  -7    0.03    0.19 
   8 -13  -7    0.21    0.19 
   8 -12  -7   -0.03    0.16 
   8 -11  -7    0.62    0.19 
   8 -10  -7   -0.02    0.13 
   8  -9  -7    1.24    0.20 
   8  -8  -7    0.82    0.18 
   8  -7  -7   -0.07    0.11 
   8  -6  -7    4.71    0.34 
   8  -5  -7    2.78    0.24 
   8  -5  -7    2.56    0.25 
   8  -4  -7    1.14    0.12 
   8  -4  -7    1.17    0.18 
   8  -4  -7    1.23    0.17 
   8  -3  -7    0.37    0.12 
   8  -3  -7    0.42    0.13 
  -8   2   7    0.60    0.10 
   8  -2  -7    0.50    0.15 
  -8   1   7    6.18    0.34 
   8  -1  -7    5.76    0.41 
  -8   0   7    0.02    0.05 
   8   0  -7   -0.14    0.10 
  -8  -1   7    6.74    0.37 
   8   1  -7    5.62    0.43 
  -8  -2   7    0.46    0.10 
   8   2  -7    0.23    0.14 
  -8  -3   7    0.47    0.10 
   8   3  -7    0.47    0.17 
  -8  -4   7    1.40    0.17 
   8   4  -7    1.60    0.27 
  -8  -5   7    2.70    0.21 
  -8  -6   7    4.47    0.30 
  -8  -7   7   -0.04    0.06 
  -8  -8   7    0.85    0.15 
  -8  -9   7    1.73    0.22 
  -8 -10   7    0.02    0.09 
  -8 -11   7    0.35    0.13 
  -8 -12   7    0.00    0.09 
  -8 -13   7    0.47    0.15 
  -8 -14   7    0.03    0.15 
  -8 -15   7    0.20    0.20 
   8 -15  -6   -0.07    0.20 
   8 -14  -6    0.22    0.20 
   8 -13  -6    0.29    0.18 
   8 -12  -6    0.16    0.17 
   8 -11  -6    0.41    0.16 
   8 -10  -6    0.99    0.19 
   8  -9  -6    0.30    0.14 
   8  -8  -6    0.01    0.12 
   8  -7  -6    0.48    0.15 
   8  -6  -6    1.59    0.20 
   8  -6  -6    1.66    0.19 
   8  -5  -6    0.39    0.13 
   8  -5  -6    0.39    0.11 
   8  -4  -6    0.36    0.11 
   8  -4  -6    0.38    0.12 
   8  -3  -6    0.00    0.09 
   8  -3  -6    0.14    0.09 
   8  -2  -6    2.32    0.24 
   8  -2  -6    2.16    0.23 
   8  -1  -6    3.03    0.26 
   8  -1  -6    3.20    0.27 
   8   0  -6    1.87    0.23 
   8   0  -6    1.78    0.23 
  -8  -1   6    3.66    0.23 
   8   1  -6    3.33    0.32 
  -8  -2   6    2.18    0.18 
   8   2  -6    2.20    0.27 
  -8  -3   6    0.16    0.07 
   8   3  -6    0.06    0.11 
  -8  -4   6    0.52    0.11 
   8   4  -6    0.57    0.18 
  -8  -5   6    0.59    0.12 
  -8  -6   6    1.89    0.20 
  -8  -7   6    0.43    0.11 
  -8  -8   6    0.18    0.10 
  -8  -9   6    0.12    0.09 
  -8 -10   6    1.35    0.20 
  -8 -11   6    0.06    0.10 
  -8 -12   6   -0.08    0.08 
  -8 -13   6    0.06    0.11 
  -8 -14   6    0.25    0.15 
  -8 -15   6    0.03    0.17 
   8 -15  -5   -0.06    0.19 
   8 -14  -5    0.03    0.18 
   8 -13  -5    0.03    0.17 
   8 -12  -5    0.47    0.18 
   8 -11  -5    0.17    0.14 
   8 -10  -5   -0.10    0.12 
   8  -9  -5    0.12    0.13 
   8  -8  -5    3.76    0.29 
   8  -7  -5    0.53    0.14 
   8  -7  -5    0.74    0.14 
   8  -6  -5   -0.03    0.08 
   8  -6  -5    0.02    0.10 
   8  -5  -5    0.01    0.10 
   8  -5  -5    0.19    0.09 
   8  -4  -5    1.43    0.17 
   8  -4  -5    1.23    0.17 
   8  -3  -5    0.44    0.12 
   8  -3  -5    0.38    0.11 
   8  -2  -5    0.22    0.10 
   8  -2  -5    0.21    0.11 
   8  -1  -5    0.56    0.13 
   8  -1  -5    0.82    0.15 
   8   0  -5    0.01    0.08 
   8   0  -5   -0.07    0.09 
   8   1  -5    0.83    0.17 
   8   1  -5    0.56    0.15 
   8   2  -5    0.24    0.12 
   8   2  -5    0.25    0.11 
  -8  -3   5    0.47    0.10 
   8   3  -5    0.50    0.16 
  -8  -4   5    1.49    0.17 
  -8  -5   5    0.06    0.06 
  -8  -6   5   -0.05    0.05 
  -8  -7   5    0.80    0.14 
  -8  -8   5    4.79    0.32 
  -8  -9   5    0.31    0.10 
  -8 -10   5   -0.04    0.07 
  -8 -11   5    0.00    0.09 
  -8 -12   5    0.80    0.16 
  -8 -13   5   -0.04    0.10 
  -8 -14   5   -0.10    0.11 
  -8 -15   5   -0.03    0.15 
   8 -16  -4    0.07    0.22 
   8 -15  -4    0.16    0.21 
   8 -14  -4    0.44    0.20 
   8 -13  -4    0.29    0.18 
   8 -12  -4    0.11    0.15 
   8 -11  -4   -0.03    0.12 
   8 -10  -4    1.14    0.18 
   8  -9  -4    0.02    0.11 
   8  -8  -4    0.13    0.10 
   8  -8  -4    0.10    0.11 
   8  -7  -4    0.12    0.09 
   8  -7  -4    0.03    0.09 
   8  -6  -4    0.50    0.12 
   8  -6  -4    0.49    0.12 
   8  -5  -4    0.51    0.12 
   8  -5  -4    0.49    0.12 
   8  -4  -4    0.27    0.11 
   8  -4  -4    0.38    0.11 
   8  -3  -4    0.16    0.09 
   8  -3  -4    0.19    0.09 
   8  -2  -4    6.70    0.40 
   8  -2  -4    7.38    0.43 
   8  -1  -4    0.03    0.09 
   8  -1  -4   -0.05    0.07 
   8   0  -4    5.81    0.38 
   8   0  -4    5.44    0.38 
   8   1  -4    0.04    0.09 
   8   1  -4    0.00    0.11 
   8   2  -4    7.09    0.45 
   8   2  -4    7.01    0.46 
   8   3  -4    0.21    0.13 
   8   3  -4    0.17    0.11 
   8   4  -4    0.26    0.11 
  -8  -5   4    0.60    0.12 
  -8  -6   4    0.55    0.12 
  -8  -7   4    0.04    0.06 
  -8  -8   4    0.05    0.07 
  -8  -9   4    0.07    0.08 
  -8 -10   4    1.67    0.20 
  -8 -11   4    0.03    0.08 
  -8 -12   4    0.10    0.10 
  -8 -13   4    0.04    0.11 
  -8 -14   4    0.76    0.16 
  -8 -16   4    0.12    0.30 
   8 -16  -3   -0.03    0.21 
   8 -15  -3    0.13    0.21 
   8 -14  -3    0.17    0.18 
   8 -13  -3    0.42    0.18 
   8 -12  -3    1.25    0.21 
   8 -11  -3    0.42    0.15 
   8 -10  -3    0.16    0.12 
   8  -9  -3    1.46    0.19 
   8  -8  -3    0.57    0.13 
   8  -8  -3    0.42    0.12 
   8  -7  -3    1.52    0.18 
   8  -7  -3    1.16    0.16 
   8  -6  -3    1.43    0.17 
   8  -6  -3    1.05    0.15 
   8  -5  -3    2.39    0.19 
   8  -5  -3    2.47    0.23 
   8  -4  -3    1.65    0.19 
   8  -4  -3    1.47    0.16 
   8  -3  -3    0.60    0.12 
   8  -3  -3    0.56    0.11 
   8  -2  -3    0.22    0.09 
   8  -2  -3    0.28    0.10 
   8  -1  -3    8.06    0.47 
   8  -1  -3    8.32    0.47 
   8   0  -3   -0.02    0.07 
   8   0  -3    0.00    0.09 
   8   1  -3    8.52    0.50 
   8   1  -3    8.13    0.49 
   8   2  -3    0.44    0.13 
   8   2  -3    0.28    0.12 
   8   3  -3    0.54    0.14 
   8   3  -3    0.63    0.16 
   8   4  -3    1.59    0.22 
   8   5  -3    3.05    0.32 
  -8  -6   3    1.07    0.15 
  -8  -7   3    1.75    0.20 
  -8  -8   3    0.42    0.11 
  -8  -9   3    1.61    0.19 
  -8 -10   3   -0.03    0.08 
  -8 -11   3    0.41    0.12 
  -8 -12   3    1.41    0.19 
  -8 -13   3    0.66    0.15 
  -8 -14   3    0.05    0.11 
  -8 -15   3    0.07    0.24 
  -8 -16   3    0.34    0.30 
   8 -16  -2    0.19    0.22 
   8 -15  -2    0.16    0.21 
   8 -14  -2   -0.03    0.17 
   8 -13  -2   -0.03    0.15 
   8 -12  -2    0.04    0.14 
   8 -11  -2    0.56    0.16 
   8 -10  -2    0.11    0.12 
   8  -9  -2    1.92    0.20 
   8  -9  -2    1.45    0.19 
   8  -8  -2    0.26    0.10 
   8  -8  -2    0.27    0.11 
   8  -7  -2    0.87    0.14 
   8  -7  -2    0.68    0.13 
   8  -6  -2    0.05    0.08 
   8  -6  -2    0.13    0.09 
   8  -5  -2    2.91    0.23 
   8  -5  -2    3.02    0.22 
   8  -4  -2    1.98    0.17 
   8  -4  -2    2.45    0.22 
   8  -3  -2    2.43    0.20 
   8  -3  -2    2.19    0.18 
   8  -2  -2    1.96    0.21 
   8  -2  -2    2.49    0.19 
   8  -1  -2   17.67    0.87 
   8  -1  -2   17.36    0.86 
   8   0  -2    0.22    0.10 
   8   0  -2    0.34    0.12 
   8   1  -2   18.28    0.91 
   8   1  -2   17.85    0.91 
   8   2  -2    1.28    0.20 
   8   2  -2    2.01    0.21 
   8   3  -2    2.66    0.27 
   8   4  -2    3.30    0.31 
   8   5  -2    3.62    0.30 
   8   6  -2    0.10    0.10 
  -8  -7   2    0.65    0.13 
  -8  -8   2    0.25    0.09 
  -8  -9   2    1.87    0.21 
  -8 -10   2    0.21    0.09 
  -8 -11   2    0.67    0.14 
  -8 -12   2    0.01    0.08 
  -8 -13   2    0.09    0.11 
  -8 -14   2    0.04    0.19 
  -8 -15   2    0.34    0.24 
  -8 -16   2    0.35    0.31 
   8 -16  -1   -0.15    0.20 
   8 -15  -1   -0.13    0.19 
   8 -14  -1    0.44    0.19 
   8 -13  -1    0.15    0.15 
   8 -12  -1   -0.09    0.12 
   8 -11  -1    0.46    0.15 
   8 -10  -1    0.16    0.11 
   8 -10  -1    0.21    0.12 
   8  -9  -1    0.89    0.16 
   8  -9  -1    1.19    0.17 
   8  -8  -1    0.14    0.09 
   8  -8  -1    0.29    0.10 
   8  -7  -1    2.87    0.22 
   8  -7  -1    2.52    0.20 
   8  -6  -1    3.50    0.24 
   8  -6  -1    3.87    0.26 
   8  -5  -1    0.41    0.10 
   8  -5  -1    0.43    0.10 
   8  -4  -1    0.76    0.11 
   8  -4  -1    0.61    0.12 
   8  -3  -1   -0.09    0.06 
   8  -3  -1    0.02    0.06 
   8  -2  -1    3.80    0.24 
   8  -1  -1    5.43    0.35 
   8  -1  -1    5.79    0.33 
   8   0  -1   -0.02    0.06 
   8   0  -1    0.73    0.12 
   8   1  -1    5.79    0.36 
   8   1  -1    5.31    0.36 
   8   2  -1    2.38    0.23 
   8   2  -1    2.70    0.22 
   8   3  -1    0.22    0.09 
   8   4  -1    0.51    0.13 
   8   5  -1    0.62    0.15 
   8   6  -1    4.30    0.33 
   8   7  -1    3.76    0.32 
  -8  -8   1    0.11    0.07 
  -8  -9   1    1.05    0.16 
  -8 -10   1    0.04    0.08 
  -8 -11   1    0.63    0.13 
  -8 -12   1    0.04    0.09 
  -8 -13   1    0.15    0.16 
  -8 -13   1    0.16    0.11 
  -8 -14   1    0.47    0.21 
  -8 -15   1   -0.05    0.20 
  -8 -16   1   -0.12    0.27 
   8 -16   0    0.18    0.22 
   8 -15   0   -0.19    0.19 
   8 -14   0    0.82    0.22 
   8 -13   0   -0.07    0.14 
   8 -12   0    1.91    0.24 
   8 -11   0   -0.01    0.10 
   8 -11   0   -0.14    0.11 
   8 -10   0    0.01    0.10 
   8 -10   0   -0.01    0.09 
   8  -9   0    0.00    0.08 
   8  -9   0    0.02    0.09 
   8  -8   0    0.41    0.12 
   8  -8   0    0.30    0.10 
   8  -7   0    0.07    0.07 
   8  -7   0    0.05    0.08 
   8  -6   0    0.07    0.07 
   8  -6   0    0.02    0.07 
   8  -5   0    0.00    0.06 
   8  -5   0    0.13    0.07 
   8  -4   0    6.12    0.35 
   8  -4   0    5.85    0.32 
   8  -3   0   -0.02    0.06 
   8  -3   0    0.04    0.06 
   8  -2   0   11.52    0.56 
   8  -1   0   -0.01    0.05 
   8  -1   0   -0.02    0.06 
   8   0   0   24.68    1.17 
  -8  -1   0    0.04    0.05 
   8   1   0    0.08    0.06 
   8   1   0    0.09    0.07 
  -8  -2   0   18.88    0.86 
   8   2   0   18.79    0.93 
  -8  -3   0   -0.01    0.04 
   8   3   0    0.03    0.06 
   8   4   0    7.21    0.44 
   8   5   0   -0.07    0.07 
   8   6   0    0.00    0.09 
   8   7   0    0.05    0.11 
  -8  -9   0    0.05    0.08 
  -8 -10   0    0.14    0.09 
  -8 -11   0    0.06    0.08 
  -8 -12   0    1.77    0.20 
  -8 -12   0    1.78    0.25 
  -8 -13   0    0.05    0.15 
  -8 -14   0    1.07    0.24 
  -8 -15   0   -0.26    0.20 
  -8 -16   0    0.17    0.28 
   8 -16   1    0.04    0.21 
   8 -15   1    0.06    0.19 
   8 -14   1    0.46    0.19 
   8 -13   1    0.10    0.15 
   8 -12   1    0.16    0.14 
   8 -11   1    0.32    0.13 
   8 -11   1    0.57    0.14 
   8 -10   1    0.10    0.10 
   8 -10   1    0.05    0.11 
   8  -9   1    1.06    0.16 
   8  -9   1    1.12    0.16 
   8  -8   1    0.31    0.10 
   8  -8   1    0.04    0.09 
   8  -7   1    2.76    0.20 
   8  -7   1    2.96    0.22 
   8  -6   1    3.62    0.23 
   8  -6   1    3.30    0.24 
   8  -5   1    0.46    0.11 
   8  -5   1    0.44    0.09 
   8  -4   1    0.48    0.11 
   8  -4   1    0.33    0.07 
   8  -3   1    0.07    0.05 
   8  -3   1   -0.02    0.05 
   8  -2   1    2.23    0.19 
   8  -2   1    2.23    0.16 
   8  -1   1    5.70    0.35 
   8  -1   1    5.67    0.32 
  -8   0  -1    0.01    0.06 
   8   0   1    0.06    0.06 
   8   0   1    0.05    0.06 
  -8  -1  -1    5.80    0.31 
   8   1   1    5.66    0.35 
   8   1   1    5.55    0.33 
  -8  -2  -1    2.24    0.15 
   8   2   1    2.17    0.22 
  -8  -3  -1    0.08    0.06 
   8   3   1    0.06    0.07 
  -8  -4  -1    0.46    0.08 
   8   4   1    0.64    0.13 
   8   5   1    0.47    0.12 
   8   6   1    3.95    0.31 
   8   7   1    3.16    0.31 
   8   8   1    0.06    0.11 
  -8  -9  -1    1.10    0.16 
  -8 -10  -1    0.00    0.07 
  -8 -11  -1    0.49    0.12 
  -8 -11  -1    0.85    0.18 
  -8 -12  -1    0.16    0.14 
  -8 -12  -1   -0.05    0.08 
  -8 -13  -1    0.15    0.16 
  -8 -14  -1    0.50    0.19 
  -8 -15  -1    0.10    0.20 
  -8 -16  -1   -0.09    0.26 
   8 -16   2    0.01    0.22 
   8 -15   2    0.10    0.21 
   8 -14   2    0.06    0.17 
   8 -13   2    0.37    0.17 
   8 -12   2    0.23    0.14 
   8 -12   2    0.08    0.14 
   8 -11   2    0.99    0.17 
   8 -11   2    0.95    0.18 
   8 -10   2    0.26    0.12 
   8 -10   2    0.19    0.11 
   8  -9   2    1.62    0.19 
   8  -9   2    1.91    0.21 
   8  -8   2    0.52    0.11 
   8  -8   2    0.17    0.10 
   8  -7   2    0.78    0.13 
   8  -7   2    0.86    0.12 
   8  -6   2    0.02    0.07 
   8  -6   2    0.14    0.07 
   8  -4   2    2.03    0.15 
   8  -4   2    2.06    0.18 
   8  -3   2    2.05    0.14 
   8  -3   2    2.51    0.19 
   8  -2   2    1.52    0.12 
   8  -2   2    1.97    0.19 
  -8   1  -2   18.32    0.86 
   8  -1   2   17.29    0.83 
   8  -1   2   17.82    0.86 
  -8   0  -2    0.45    0.09 
   8   0   2    0.44    0.11 
   8   0   2    0.34    0.08 
  -8  -1  -2   19.54    0.89 
   8   1   2   17.83    0.91 
  -8  -2  -2    1.60    0.14 
   8   2   2    1.97    0.20 
  -8  -3  -2    2.38    0.17 
   8   3   2    2.31    0.23 
  -8  -4  -2    2.14    0.16 
   8   4   2    2.35    0.23 
   8   5   2    3.33    0.26 
   8   6   2   -0.02    0.08 
   8   7   2    0.98    0.17 
   8   8   2    0.36    0.13 
   8   9   2    1.91    0.26 
  -8 -10  -2    0.18    0.14 
  -8 -10  -2    0.35    0.10 
  -8 -11  -2    1.16    0.20 
  -8 -11  -2    1.03    0.16 
  -8 -12  -2   -0.07    0.14 
  -8 -13  -2    0.26    0.16 
  -8 -14  -2   -0.05    0.15 
  -8 -15  -2    0.24    0.22 
  -8 -16  -2   -0.09    0.27 
   8 -16   3    0.00    0.22 
   8 -15   3    0.01    0.19 
   8 -14   3   -0.06    0.17 
   8 -13   3    0.62    0.19 
   8 -12   3    1.29    0.21 
   8 -12   3    1.72    0.23 
   8 -11   3    0.55    0.15 
   8 -11   3    0.68    0.16 
   8 -10   3    0.16    0.11 
   8 -10   3    0.05    0.10 
   8  -9   3    2.11    0.22 
   8  -9   3    1.26    0.17 
   8  -8   3    0.51    0.13 
   8  -8   3    0.79    0.12 
   8  -7   3    1.42    0.18 
   8  -7   3    1.45    0.15 
   8  -6   3    1.69    0.19 
   8  -5   3    2.25    0.19 
   8  -5   3    2.56    0.17 
   8  -4   3    1.93    0.18 
   8  -4   3    1.39    0.12 
   8  -3   3    0.67    0.12 
   8  -3   3    0.61    0.08 
   8  -2   3    0.34    0.06 
   8  -2   3    0.26    0.09 
  -8   1  -3    8.56    0.47 
   8  -1   3    8.36    0.46 
  -8   0  -3    0.06    0.07 
   8   0   3    0.00    0.05 
  -8  -1  -3    8.46    0.45 
   8   1   3    8.68    0.47 
  -8  -2  -3    0.32    0.09 
   8   2   3    0.41    0.10 
  -8  -3  -3    0.60    0.10 
   8   3   3    0.58    0.12 
  -8  -4  -3    1.77    0.16 
   8   4   3    1.73    0.20 
  -8  -5  -3    2.27    0.19 
   8   5   3    2.55    0.25 
   8   6   3    1.20    0.18 
   8   7   3    1.90    0.24 
  -8  -8  -3    0.59    0.14 
   8   8   3    0.72    0.15 
  -8  -9  -3    2.26    0.22 
   8   9   3    1.15    0.19 
  -8 -10  -3    0.07    0.09 
  -8 -10  -3    0.04    0.12 
  -8 -11  -3    0.50    0.15 
  -8 -12  -3    1.78    0.24 
  -8 -13  -3    0.59    0.18 
  -8 -14  -3    0.23    0.18 
  -8 -15  -3    0.02    0.20 
  -8 -16  -3   -0.27    0.25 
   8 -16   4   -0.07    0.22 
   8 -15   4   -0.06    0.20 
   8 -14   4    1.02    0.23 
   8 -13   4    0.26    0.16 
   8 -13   4    0.13    0.14 
   8 -12   4    0.17    0.13 
   8 -12   4    0.35    0.15 
   8 -11   4    0.01    0.11 
   8 -11   4    0.01    0.11 
   8 -10   4    1.64    0.19 
   8 -10   4    1.89    0.23 
   8  -9   4    0.05    0.10 
   8  -9   4    0.06    0.10 
   8  -8   4    0.19    0.09 
   8  -8   4    0.02    0.09 
   8  -7   4   -0.02    0.07 
   8  -7   4   -0.02    0.05 
   8  -6   4    0.65    0.10 
   8  -6   4    0.55    0.12 
   8  -5   4    0.68    0.13 
   8  -5   4    0.56    0.09 
   8  -4   4    0.34    0.06 
   8  -4   4    0.26    0.08 
   8  -3   4    0.16    0.08 
   8  -3   4    0.26    0.05 
  -8   2  -4    7.07    0.43 
   8  -2   4    7.06    0.40 
  -8   1  -4   -0.08    0.08 
   8  -1   4    0.06    0.06 
  -8   0  -4    5.54    0.34 
   8   0   4    5.30    0.33 
  -8  -1  -4    0.15    0.08 
   8   1   4    0.03    0.06 
  -8  -2  -4    7.75    0.41 
   8   2   4    6.88    0.42 
  -8  -3  -4    0.36    0.09 
   8   3   4    0.19    0.09 
  -8  -4  -4    0.17    0.09 
   8   4   4    0.32    0.11 
  -8  -5  -4    0.70    0.11 
  -8  -5  -4    0.57    0.12 
   8   5   4    0.48    0.12 
  -8  -6  -4    0.53    0.12 
  -8  -6  -4    0.40    0.10 
   8   6   4    0.57    0.13 
  -8  -7  -4   -0.02    0.09 
   8   7   4    0.02    0.08 
  -8  -8  -4    0.12    0.11 
   8   8   4    0.20    0.11 
  -8  -9  -4    0.17    0.11 
   8   9   4    0.20    0.15 
  -8 -10  -4    1.93    0.22 
  -8 -11  -4   -0.08    0.12 
  -8 -12  -4    0.08    0.14 
  -8 -13  -4    0.07    0.14 
  -8 -15  -4    0.39    0.23 
  -8 -16  -4   -0.44    0.25 
   8 -15   5    0.05    0.21 
   8 -14   5    0.17    0.18 
   8 -14   5    0.01    0.17 
   8 -13   5   -0.17    0.12 
   8 -13   5   -0.08    0.15 
   8 -12   5    0.49    0.15 
   8 -12   5    0.85    0.18 
   8 -11   5    0.01    0.12 
   8 -11   5    0.09    0.11 
   8 -10   5    0.09    0.10 
   8 -10   5   -0.07    0.11 
   8  -9   5    0.38    0.12 
   8  -9   5    0.20    0.11 
   8  -7   5    0.81    0.15 
   8  -7   5    0.87    0.12 
   8  -6   5   -0.08    0.06 
   8  -6   5   -0.03    0.06 
   8  -5   5    0.17    0.07 
   8  -5   5    0.17    0.09 
   8  -4   5    1.41    0.11 
   8  -4   5    1.75    0.19 
   8  -3   5    0.50    0.12 
  -8   2  -5    0.38    0.13 
   8  -2   5    0.28    0.09 
  -8   1  -5    0.90    0.16 
   8  -1   5    0.77    0.13 
  -8   0  -5    0.04    0.08 
   8   0   5   -0.03    0.06 
  -8  -1  -5    0.71    0.14 
   8   1   5    0.82    0.14 
  -8  -2  -5    0.29    0.10 
   8   2   5    0.18    0.08 
  -8  -3  -5    0.50    0.11 
   8   3   5    0.35    0.10 
  -8  -4  -5    1.68    0.18 
  -8  -4  -5    1.44    0.12 
   8   4   5    1.73    0.19 
  -8  -5  -5    0.05    0.09 
  -8  -5  -5    0.21    0.08 
   8   5   5    0.10    0.08 
  -8  -6  -5    0.19    0.09 
  -8  -6  -5   -0.03    0.07 
   8   6   5   -0.02    0.08 
  -8  -7  -5    0.89    0.14 
  -8  -7  -5    0.74    0.15 
   8   7   5    0.69    0.14 
  -8  -8  -5    4.71    0.30 
  -8  -8  -5    4.02    0.31 
   8   8   5    5.13    0.35 
  -8  -9  -5    0.21    0.12 
   8   9   5    0.43    0.15 
  -8 -10  -5    0.05    0.11 
  -8 -11  -5   -0.03    0.12 
  -8 -12  -5    0.74    0.18 
  -8 -13  -5    0.14    0.15 
  -8 -14  -5   -0.38    0.16 
  -8 -15  -5   -0.05    0.22 
   8 -15   6    0.32    0.22 
   8 -14   6    0.06    0.19 
   8 -14   6    0.31    0.18 
   8 -13   6    0.19    0.14 
   8 -13   6    0.07    0.17 
   8 -12   6    0.00    0.11 
   8 -12   6    0.07    0.14 
   8 -11   6    0.09    0.12 
   8 -11   6    0.35    0.14 
   8 -10   6    1.68    0.19 
   8 -10   6    1.12    0.19 
   8  -9   6    0.03    0.08 
   8  -9   6    0.31    0.11 
   8  -8   6    0.28    0.11 
   8  -8   6    0.12    0.10 
   8  -7   6    0.73    0.12 
   8  -7   6    0.35    0.12 
   8  -6   6    2.10    0.16 
   8  -6   6    1.93    0.22 
   8  -5   6    0.41    0.11 
   8  -5   6    0.61    0.08 
   8  -4   6    0.51    0.12 
   8  -3   6    0.20    0.08 
  -8   2  -6    2.27    0.25 
   8  -2   6    2.24    0.22 
  -8   1  -6    3.69    0.29 
   8  -1   6    3.23    0.24 
  -8   0  -6    2.32    0.23 
   8   0   6    2.30    0.22 
  -8  -1  -6    3.89    0.28 
   8   1   6    3.61    0.27 
  -8  -2  -6    2.27    0.22 
   8   2   6    2.51    0.24 
  -8  -3  -6    0.09    0.09 
   8   3   6    0.30    0.10 
  -8  -4  -6    0.55    0.13 
   8   4   6    0.58    0.13 
  -8  -5  -6    0.36    0.09 
  -8  -5  -6    0.45    0.12 
   8   5   6    0.56    0.13 
  -8  -6  -6    2.00    0.21 
  -8  -6  -6    1.86    0.16 
  -8  -7  -6    0.58    0.14 
  -8  -7  -6    0.44    0.12 
   8   7   6    0.83    0.16 
  -8  -8  -6    0.29    0.12 
  -8  -8  -6    0.11    0.11 
   8   8   6    0.16    0.11 
  -8  -9  -6    0.02    0.10 
  -8  -9  -6    0.03    0.10 
  -8 -10  -6    1.01    0.17 
  -8 -11  -6    0.12    0.13 
  -8 -12  -6    0.10    0.14 
  -8 -13  -6    0.29    0.17 
  -8 -14  -6    0.09    0.19 
  -8 -15  -6   -0.09    0.24 
   8 -15   7    0.05    0.23 
   8 -14   7    0.11    0.17 
   8 -13   7    0.44    0.17 
   8 -12   7   -0.03    0.12 
   8 -11   7    0.72    0.18 
   8 -11   7    0.37    0.14 
   8 -10   7    0.00    0.11 
   8 -10   7   -0.11    0.10 
   8  -9   7    1.81    0.23 
   8  -9   7    1.76    0.20 
   8  -8   7    1.10    0.14 
   8  -8   7    0.98    0.18 
   8  -7   7    0.18    0.09 
   8  -7   7    0.02    0.09 
   8  -6   7    4.78    0.33 
   8  -5   7    2.87    0.24 
   8  -4   7    1.31    0.18 
  -8   3  -7    0.41    0.15 
   8  -3   7    0.60    0.12 
  -8   2  -7    0.43    0.15 
   8  -2   7    0.55    0.11 
  -8   1  -7    6.40    0.41 
   8  -1   7    5.25    0.35 
  -8   0  -7   -0.06    0.10 
   8   0   7   -0.10    0.06 
  -8  -1  -7    6.76    0.42 
   8   1   7    6.71    0.40 
  -8  -2  -7    0.66    0.14 
   8   2   7    0.42    0.11 
  -8  -3  -7    0.55    0.13 
   8   3   7    0.59    0.12 
  -8  -4  -7    1.26    0.17 
   8   4   7    1.37    0.18 
  -8  -5  -7    2.65    0.19 
  -8  -5  -7    2.88    0.24 
   8   5   7    2.82    0.26 
  -8  -6  -7    4.83    0.30 
  -8  -6  -7    5.22    0.35 
   8   6   7    4.81    0.33 
  -8  -7  -7    0.01    0.10 
  -8  -7  -7    0.08    0.11 
   8   7   7    0.11    0.10 
  -8  -8  -7    0.77    0.15 
  -8  -8  -7    0.92    0.17 
  -8  -9  -7    1.67    0.20 
  -8  -9  -7    1.51    0.22 
  -8 -10  -7   -0.03    0.11 
  -8 -10  -7    0.08    0.13 
  -8 -11  -7    0.60    0.17 
  -8 -11  -7    0.67    0.17 
  -8 -12  -7    0.04    0.16 
  -8 -12  -7    0.19    0.14 
   8 -14   8    0.15    0.21 
   8 -13   8    0.14    0.16 
   8 -12   8   -0.13    0.12 
   8 -11   8   -0.03    0.11 
   8 -10   8    0.03    0.11 
   8  -9   8    0.33    0.13 
   8  -8   8    0.23    0.11 
   8  -7   8    0.08    0.09 
   8  -6   8    0.16    0.10 
   8  -5   8    0.57    0.13 
   8  -4   8    2.20    0.23 
  -8   3  -8    0.76    0.19 
   8  -3   8    0.60    0.13 
  -8   2  -8    1.13    0.21 
   8  -2   8    0.95    0.16 
  -8   1  -8    0.08    0.12 
   8  -1   8    0.16    0.09 
  -8   0  -8    3.95    0.31 
   8   0   8    3.69    0.27 
  -8  -1  -8    0.10    0.11 
   8   1   8    0.18    0.09 
  -8  -2  -8    0.82    0.17 
   8   2   8    0.77    0.14 
  -8  -3  -8    0.76    0.16 
   8   3   8    0.69    0.14 
  -8  -4  -8    1.71    0.23 
   8   4   8    2.61    0.24 
  -8  -5  -8    0.64    0.15 
   8   5   8    0.14    0.08 
  -8  -6  -8    0.38    0.13 
   8   6   8    0.35    0.12 
  -8  -7  -8    0.01    0.10 
   8   7   8    0.12    0.10 
  -8  -8  -8    0.03    0.11 
  -8  -9  -8    0.07    0.11 
  -8 -10  -8    0.09    0.13 
  -8 -11  -8   -0.01    0.12 
  -8 -12  -8   -0.06    0.15 
  -8 -13  -8    0.21    0.19 
  -8 -14  -8    0.19    0.25 
   8 -14   9    0.14    0.23 
   8 -13   9    0.13    0.19 
   8 -12   9    0.00    0.14 
   8 -11   9    0.11    0.13 
   8 -10   9    0.15    0.12 
   8  -9   9    0.00    0.09 
   8  -8   9    0.55    0.15 
   8  -7   9    0.03    0.09 
   8  -6   9    2.15    0.25 
   8  -5   9    0.12    0.09 
   8  -4   9    1.60    0.20 
  -8   3  -9    0.22    0.14 
   8  -3   9    0.39    0.11 
  -8   2  -9    2.93    0.33 
   8  -2   9    2.84    0.24 
  -8   1  -9    0.41    0.15 
   8  -1   9    0.05    0.08 
  -8   0  -9    0.00    0.11 
   8   0   9    0.06    0.09 
  -8  -1  -9   -0.02    0.10 
   8   1   9    0.12    0.10 
  -8  -2  -9    2.70    0.28 
   8   2   9    2.93    0.25 
  -8  -3  -9    0.25    0.13 
   8   3   9    0.37    0.11 
  -8  -4  -9    1.61    0.22 
   8   4   9    1.55    0.21 
  -8  -5  -9    0.18    0.12 
   8   5   9    0.00    0.09 
  -8  -6  -9    2.08    0.26 
   8   6   9    2.77    0.26 
  -8  -7  -9   -0.09    0.10 
  -8  -8  -9    0.50    0.15 
  -8  -9  -9    0.07    0.12 
  -8 -10  -9   -0.02    0.13 
  -8 -11  -9   -0.03    0.14 
  -8 -12  -9   -0.21    0.15 
  -8 -13  -9    0.26    0.21 
  -8 -14  -9    0.00    0.25 
   8 -13  10    0.17    0.22 
   8 -12  10    0.17    0.18 
   8 -11  10    0.22    0.16 
   8 -10  10    0.08    0.12 
   8  -9  10    0.05    0.10 
   8  -8  10   -0.03    0.09 
   8  -7  10    0.18    0.11 
   8  -6  10    0.65    0.15 
   8  -5  10    0.04    0.09 
   8  -4  10    2.98    0.28 
  -8   3 -10    0.09    0.14 
   8  -3  10    0.05    0.08 
  -8   2 -10    0.08    0.12 
   8  -2  10   -0.07    0.07 
  -8   1 -10    0.82    0.20 
   8  -1  10    0.75    0.15 
  -8   0 -10    2.00    0.27 
   8   0  10    2.11    0.24 
  -8  -1 -10    0.76    0.18 
   8   1  10    0.88    0.17 
  -8  -2 -10   -0.01    0.12 
   8   2  10   -0.18    0.08 
  -8  -3 -10    0.12    0.12 
   8   3  10    0.17    0.10 
  -8  -4 -10    2.73    0.30 
   8   4  10    3.30    0.27 
  -8  -5 -10    0.25    0.14 
   8   5  10    0.15    0.12 
  -8  -6 -10    0.61    0.16 
  -8  -7 -10    0.23    0.14 
  -8  -8 -10    0.05    0.13 
  -8  -9 -10   -0.02    0.13 
  -8 -10 -10    0.13    0.16 
  -8 -11 -10    0.04    0.18 
  -8 -12 -10    0.05    0.21 
  -8 -13 -10   -0.22    0.23 
   8 -13  11    0.02    0.24 
   8 -12  11    0.18    0.21 
   8 -11  11    0.14    0.17 
   8 -10  11   -0.07    0.13 
   8  -9  11    0.14    0.14 
   8  -8  11   -0.01    0.11 
   8  -7  11   -0.03    0.10 
   8  -6  11    0.28    0.13 
   8  -5  11    0.48    0.14 
   8  -4  11    0.78    0.15 
  -8   3 -11    0.06    0.15 
   8  -3  11    0.17    0.11 
  -8   2 -11    0.78    0.21 
   8  -2  11    0.94    0.18 
  -8   1 -11    0.71    0.20 
   8  -1  11    0.88    0.16 
  -8   0 -11    0.19    0.14 
   8   0  11    0.04    0.09 
  -8  -1 -11    1.07    0.21 
   8   1  11    1.09    0.18 
  -8  -2 -11    0.38    0.17 
   8   2  11    0.80    0.16 
  -8  -3 -11    0.13    0.13 
   8   3  11    0.30    0.13 
  -8  -4 -11    0.95    0.20 
   8   4  11    0.87    0.18 
  -8  -5 -11    0.48    0.17 
  -8  -6 -11    0.41    0.16 
  -8  -7 -11    0.06    0.13 
  -8  -8 -11    0.12    0.15 
  -8  -9 -11    0.15    0.16 
  -8 -10 -11   -0.06    0.17 
  -8 -11 -11   -0.10    0.21 
  -8 -12 -11   -0.07    0.23 
  -8 -13 -11   -0.21    0.25 
   8 -12  12    0.16    0.24 
   8 -11  12    0.15    0.21 
   8 -10  12    0.09    0.18 
   8  -9  12    0.26    0.17 
   8  -8  12    0.02    0.14 
   8  -7  12   -0.05    0.10 
   8  -6  12    0.00    0.11 
   8  -5  12    1.57    0.23 
   8  -4  12    0.01    0.09 
  -8   3 -12    0.20    0.17 
   8  -3  12   -0.12    0.09 
  -8   2 -12    0.27    0.16 
   8  -2  12    0.07    0.10 
  -8   1 -12    0.07    0.15 
   8  -1  12   -0.01    0.09 
  -8   0 -12   -0.06    0.13 
   8   0  12    0.01    0.11 
  -8  -1 -12    0.03    0.13 
   8   1  12    0.04    0.10 
  -8  -2 -12    0.21    0.14 
   8   2  12    0.30    0.13 
  -8  -3 -12    0.01    0.14 
   8   3  12    0.06    0.12 
  -8  -4 -12    0.14    0.14 
   8   4  12    0.15    0.12 
  -8  -5 -12    1.62    0.26 
  -8  -6 -12   -0.12    0.14 
  -8  -7 -12    0.13    0.15 
  -8  -8 -12   -0.03    0.16 
  -8  -9 -12    0.31    0.20 
  -8 -10 -12    0.03    0.21 
  -8 -11 -12    0.05    0.24 
  -8 -12 -12    0.34    0.28 
   8 -11  13    0.07    0.23 
   8 -10  13    0.10    0.21 
   8  -9  13    0.01    0.17 
   8  -8  13    0.42    0.16 
   8  -7  13    0.37    0.16 
   8  -6  13    0.64    0.19 
   8  -5  13    0.09    0.12 
   8  -4  13    1.70    0.24 
  -8   3 -13    0.35    0.18 
   8  -3  13    0.36    0.14 
  -8   2 -13    0.35    0.18 
   8  -2  13    0.39    0.14 
  -8   1 -13    0.07    0.14 
   8  -1  13    0.00    0.10 
  -8   0 -13   -0.05    0.14 
   8   0  13    0.00    0.11 
  -8  -1 -13   -0.01    0.15 
   8   1  13    0.20    0.12 
  -8  -2 -13    0.28    0.18 
   8   2  13    0.74    0.17 
  -8  -3 -13    0.37    0.18 
   8   3  13    0.48    0.15 
  -8  -4 -13    0.96    0.23 
  -8  -5 -13    0.23    0.17 
  -8  -6 -13    0.68    0.22 
  -8  -7 -13    0.09    0.19 
  -8  -8 -13    0.35    0.23 
  -8  -9 -13    0.12    0.21 
  -8 -10 -13   -0.10    0.26 
  -8 -11 -13   -0.03    0.27 
   8 -10  14    0.38    0.24 
   8  -9  14    0.13    0.22 
   8  -8  14    0.00    0.15 
   8  -7  14    0.02    0.15 
   8  -6  14    1.53    0.26 
   8  -5  14    0.24    0.16 
   8  -4  14    0.69    0.18 
  -8   3 -14    0.20    0.19 
   8  -3  14    0.08    0.12 
  -8   2 -14    0.02    0.19 
   8  -2  14    0.09    0.12 
  -8   1 -14    0.13    0.20 
   8  -1  14    0.55    0.16 
  -8   0 -14    0.93    0.26 
   8   0  14    1.78    0.24 
  -8  -1 -14    0.22    0.19 
   8   1  14    0.31    0.15 
  -8  -2 -14    0.01    0.17 
   8   2  14    0.22    0.13 
  -8  -3 -14   -0.26    0.16 
  -8  -4 -14    0.40    0.22 
  -8  -5 -14    0.11    0.20 
  -8  -6 -14    1.36    0.30 
  -8  -7 -14    0.03    0.23 
  -8  -8 -14   -0.08    0.24 
  -8  -9 -14   -0.07    0.27 
  -8 -10 -14    0.12    0.30 
   8  -9  15    0.01    0.17 
   8  -8  15    0.00    0.17 
   8  -7  15   -0.14    0.14 
   8  -6  15    0.04    0.15 
   8  -5  15    0.03    0.15 
   8  -4  15    0.23    0.15 
  -8   3 -15   -0.04    0.19 
   8  -3  15   -0.12    0.13 
  -8   2 -15   -0.07    0.20 
   8  -2  15    0.32    0.15 
  -8   1 -15    0.18    0.21 
   8  -1  15    0.18    0.14 
  -8   0 -15   -0.23    0.17 
   8   0  15    0.13    0.14 
  -8  -1 -15    0.12    0.20 
   8   1  15    0.00    0.13 
  -8  -2 -15    0.29    0.21 
  -8  -3 -15   -0.25    0.18 
  -8  -4 -15    0.25    0.22 
  -8  -5 -15   -0.07    0.22 
  -8  -6 -15   -0.22    0.21 
  -8  -7 -15    0.07    0.21 
  -8  -8 -15   -0.15    0.24 
  -8  -9 -15   -0.25    0.24 
   8  -7  16   -0.19    0.17 
   8  -6  16    0.19    0.19 
   8  -5  16    0.40    0.19 
   8  -4  16    0.04    0.16 
   8  -3  16   -0.09    0.15 
  -8   2 -16   -0.25    0.19 
   8  -2  16    0.15    0.16 
  -8   1 -16   -0.11    0.20 
   8  -1  16    0.13    0.16 
  -8   0 -16    0.21    0.23 
   8   0  16   -0.03    0.16 
  -8  -1 -16   -0.13    0.21 
   8   1  16   -0.15    0.16 
  -8  -2 -16    0.07    0.21 
  -8  -3 -16    0.05    0.23 
  -8  -4 -16   -0.07    0.23 
  -8  -5 -16    0.48    0.27 
  -8  -6 -16    0.47    0.27 
  -8  -7 -16   -0.16    0.23 
   8  -5  17    0.00    0.18 
   8  -4  17   -0.10    0.16 
   8  -3  17   -0.04    0.17 
  -8   2 -17    0.38    0.27 
   8  -2  17    0.11    0.17 
  -8   1 -17   -0.17    0.23 
   8  -1  17    0.09    0.19 
  -8   0 -17    0.06    0.25 
   8   0  17    0.07    0.19 
  -8  -1 -17    0.03    0.25 
  -8  -2 -17    0.17    0.25 
  -8  -3 -17    0.33    0.27 
  -8  -4 -17    0.14    0.26 
  -8  -5 -17   -0.21    0.23 
   9  -4 -17    0.30    0.42 
   9  -3 -17    0.08    0.39 
   9  -2 -17    0.00    0.36 
   9  -1 -17    0.12    0.35 
   9   0 -17    0.14    0.34 
   9   1 -17    0.36    0.36 
  -9  -2  17    0.02    0.15 
   9   2 -17    0.37    0.38 
  -9  -3  17    0.08    0.14 
   9  -6 -16    0.23    0.38 
   9  -5 -16    0.00    0.35 
   9  -4 -16    0.45    0.34 
   9  -3 -16   -0.10    0.29 
   9  -2 -16    0.17    0.28 
   9  -1 -16    0.02    0.26 
   9   0 -16    0.07    0.27 
  -9  -1  16    0.03    0.12 
   9   1 -16    0.22    0.27 
  -9  -2  16    0.13    0.13 
   9   2 -16    0.11    0.29 
  -9  -3  16    0.10    0.13 
   9   3 -16   -0.05    0.28 
  -9  -4  16    0.39    0.15 
  -9  -5  16   -0.07    0.13 
  -9  -6  16    0.29    0.16 
   9  -8 -15    0.08    0.36 
   9  -7 -15    0.08    0.33 
   9  -6 -15    0.19    0.33 
   9  -5 -15   -0.02    0.28 
   9  -4 -15   -0.17    0.24 
   9  -3 -15    0.32    0.27 
   9  -2 -15   -0.10    0.22 
   9  -1 -15   -0.06    0.21 
  -9   0  15   -0.11    0.10 
   9   0 -15    0.16    0.22 
  -9  -1  15    0.02    0.10 
   9   1 -15   -0.15    0.20 
  -9  -2  15    0.06    0.10 
   9   2 -15   -0.20    0.20 
  -9  -3  15    0.17    0.13 
   9   3 -15    0.04    0.23 
  -9  -4  15   -0.07    0.10 
  -9  -5  15    0.10    0.13 
  -9  -6  15    0.11    0.13 
  -9  -7  15    0.20    0.15 
  -9  -8  15    0.03    0.14 
   9  -9 -14    0.22    0.33 
   9  -8 -14    0.18    0.30 
   9  -7 -14    0.04    0.26 
   9  -6 -14    0.14    0.24 
   9  -5 -14    0.05    0.23 
   9  -4 -14    0.14    0.21 
   9  -3 -14   -0.15    0.19 
   9  -2 -14    0.03    0.17 
   9  -1 -14   -0.05    0.18 
  -9   0  14   -0.12    0.08 
   9   0 -14   -0.11    0.17 
  -9  -1  14    0.02    0.08 
   9   1 -14    0.01    0.18 
  -9  -2  14    0.03    0.09 
   9   2 -14    0.09    0.19 
  -9  -3  14    0.06    0.09 
   9   3 -14    0.32    0.21 
  -9  -4  14    0.03    0.10 
  -9  -5  14    0.00    0.11 
  -9  -6  14    0.07    0.12 
  -9  -7  14   -0.04    0.12 
  -9  -8  14    0.01    0.12 
  -9  -9  14    0.18    0.15 
   9 -10 -13   -0.01    0.28 
   9  -9 -13   -0.18    0.26 
   9  -8 -13    0.04    0.24 
   9  -7 -13    0.20    0.22 
   9  -6 -13   -0.01    0.19 
   9  -5 -13    0.22    0.19 
   9  -4 -13    0.16    0.17 
   9  -3 -13    0.09    0.17 
   9  -2 -13    0.39    0.18 
  -9   1  13    0.10    0.08 
   9  -1 -13   -0.07    0.15 
  -9   0  13    0.05    0.07 
   9   0 -13   -0.02    0.15 
  -9  -1  13   -0.04    0.07 
   9   1 -13   -0.02    0.15 
  -9  -2  13    0.24    0.10 
   9   2 -13    0.35    0.18 
  -9  -3  13    0.01    0.08 
   9   3 -13   -0.03    0.15 
  -9  -4  13    0.28    0.11 
   9   4 -13    0.19    0.20 
  -9  -5  13    0.05    0.10 
  -9  -6  13    0.25    0.11 
  -9  -7  13   -0.10    0.10 
  -9  -8  13    0.08    0.13 
  -9  -9  13    0.07    0.12 
  -9 -10  13    0.01    0.15 
   9 -11 -12    0.45    0.30 
   9 -10 -12    0.11    0.25 
   9  -9 -12    0.05    0.20 
   9  -8 -12    0.12    0.18 
   9  -7 -12    0.01    0.17 
   9  -6 -12    1.10    0.25 
   9  -5 -12    0.09    0.16 
   9  -4 -12    1.71    0.28 
   9  -3 -12    0.22    0.16 
  -9   2  12    0.08    0.07 
   9  -2 -12    0.06    0.14 
  -9   1  12    0.03    0.07 
   9  -1 -12   -0.11    0.12 
  -9   0  12    0.84    0.13 
   9   0 -12    0.79    0.20 
  -9  -1  12    0.16    0.08 
   9   1 -12   -0.02    0.14 
  -9  -2  12    0.11    0.08 
   9   2 -12    0.04    0.15 
  -9  -3  12    0.05    0.08 
   9   3 -12    0.00    0.15 
  -9  -4  12    1.55    0.19 
   9   4 -12    1.47    0.30 
  -9  -5  12    0.19    0.10 
  -9  -6  12    1.23    0.19 
  -9  -7  12   -0.01    0.10 
  -9  -8  12   -0.04    0.10 
  -9  -9  12   -0.03    0.10 
  -9 -10  12    0.05    0.15 
  -9 -11  12    0.02    0.17 
   9 -12 -11    0.03    0.26 
   9 -11 -11    0.26    0.24 
   9 -10 -11    0.05    0.19 
   9  -9 -11   -0.08    0.17 
   9  -8 -11    0.16    0.16 
   9  -7 -11    0.46    0.19 
   9  -6 -11    0.07    0.14 
   9  -5 -11    0.42    0.17 
   9  -4 -11    0.11    0.13 
  -9   3  11    0.58    0.11 
   9  -3 -11    0.49    0.18 
  -9   2  11    0.82    0.12 
   9  -2 -11    0.95    0.23 
  -9   1  11    0.14    0.07 
   9  -1 -11    0.01    0.15 
  -9   0  11   -0.02    0.06 
   9   0 -11   -0.21    0.13 
  -9  -1  11    0.21    0.09 
   9   1 -11   -0.16    0.12 
  -9  -2  11    1.00    0.15 
   9   2 -11    1.02    0.24 
  -9  -3  11    0.44    0.11 
   9   3 -11    0.39    0.19 
  -9  -4  11    0.28    0.10 
   9   4 -11    0.08    0.16 
  -9  -5  11    0.05    0.08 
  -9  -6  11    0.11    0.09 
  -9  -7  11    0.93    0.17 
  -9  -8  11    0.15    0.11 
  -9  -9  11    0.23    0.12 
  -9 -10  11   -0.07    0.11 
  -9 -11  11    0.09    0.16 
  -9 -12  11    0.05    0.18 
   9 -13 -10    0.41    0.28 
   9 -12 -10    0.14    0.24 
   9 -11 -10    0.17    0.21 
   9 -10 -10    0.08    0.18 
   9  -9 -10    0.07    0.16 
   9  -8 -10   -0.05    0.13 
   9  -7 -10    0.19    0.15 
   9  -6 -10    0.67    0.18 
   9  -5 -10    0.12    0.13 
   9  -4 -10    0.29    0.15 
  -9   3  10    0.19    0.08 
   9  -3 -10    0.00    0.13 
  -9   2  10    0.35    0.09 
   9  -2 -10    0.21    0.15 
  -9   1  10    0.01    0.06 
   9  -1 -10   -0.02    0.13 
  -9   0  10    0.30    0.09 
   9   0 -10    0.24    0.17 
  -9  -1  10   -0.03    0.06 
   9   1 -10   -0.05    0.13 
  -9  -2  10    0.33    0.09 
   9   2 -10    0.24    0.15 
  -9  -3  10    0.26    0.09 
   9   3 -10    0.11    0.14 
  -9  -4  10    0.14    0.08 
   9   4 -10    0.37    0.19 
  -9  -5  10   -0.03    0.07 
  -9  -6  10    0.87    0.15 
  -9  -7  10    0.26    0.11 
  -9  -8  10   -0.02    0.09 
  -9  -9  10   -0.02    0.09 
  -9 -10  10    0.01    0.11 
  -9 -11  10    0.07    0.13 
  -9 -12  10    0.00    0.15 
  -9 -13  10    0.10    0.19 
   9 -13  -9    0.25    0.26 
   9 -12  -9    0.11    0.21 
   9 -11  -9   -0.07    0.16 
   9 -10  -9    0.08    0.15 
   9  -9  -9   -0.08    0.12 
   9  -8  -9    0.05    0.13 
   9  -7  -9    0.31    0.14 
   9  -6  -9    0.71    0.17 
   9  -5  -9   -0.04    0.12 
  -9   4   9    0.71    0.11 
   9  -4  -9    0.46    0.16 
  -9   3   9   -0.01    0.05 
   9  -3  -9   -0.14    0.11 
  -9   2   9    0.24    0.07 
   9  -2  -9   -0.04    0.12 
  -9   1   9    0.60    0.11 
   9  -1  -9    0.49    0.17 
  -9   0   9   -0.01    0.06 
   9   0  -9   -0.10    0.10 
  -9  -1   9    0.49    0.10 
   9   1  -9    0.25    0.14 
  -9  -2   9    0.15    0.07 
   9   2  -9    0.10    0.14 
  -9  -3   9   -0.05    0.05 
   9   3  -9   -0.03    0.12 
  -9  -4   9    0.53    0.12 
   9   4  -9    0.48    0.19 
  -9  -5   9    0.09    0.07 
  -9  -6   9    0.63    0.13 
  -9  -7   9    0.25    0.10 
  -9  -8   9    0.15    0.10 
  -9  -9   9   -0.05    0.08 
  -9 -10   9    0.05    0.10 
  -9 -11   9   -0.08    0.11 
  -9 -12   9    0.15    0.15 
  -9 -13   9    0.25    0.18 
   9 -14  -8    0.29    0.22 
   9 -13  -8    0.11    0.19 
   9 -12  -8   -0.06    0.17 
   9 -11  -8   -0.01    0.17 
   9 -10  -8    0.27    0.17 
   9  -9  -8    0.07    0.15 
   9  -8  -8    0.11    0.14 
   9  -7  -8   -0.04    0.13 
   9  -6  -8    2.89    0.29 
  -9   5   8    0.10    0.06 
   9  -5  -8    0.06    0.13 
  -9   4   8    3.21    0.22 
   9  -4  -8    3.23    0.31 
  -9   3   8   -0.02    0.04 
   9  -3  -8    0.25    0.15 
  -9   2   8    0.00    0.06 
   9  -2  -8    0.00    0.12 
  -9   1   8   -0.01    0.06 
   9  -1  -8    0.00    0.12 
  -9   0   8    3.06    0.22 
   9   0  -8    2.55    0.31 
  -9  -1   8    0.05    0.06 
   9   1  -8   -0.03    0.13 
  -9  -2   8    0.03    0.05 
   9   2  -8    0.07    0.14 
  -9  -3   8    0.60    0.12 
   9   3  -8    0.47    0.19 
  -9  -4   8    3.04    0.23 
   9   4  -8    2.86    0.37 
  -9  -5   8    0.03    0.07 
  -9  -6   8    2.93    0.24 
  -9  -7   8    0.07    0.07 
  -9  -8   8   -0.08    0.07 
  -9  -9   8    0.03    0.08 
  -9 -10   8    0.17    0.11 
  -9 -11   8   -0.06    0.10 
  -9 -12   8   -0.07    0.12 
  -9 -13   8    0.25    0.16 
  -9 -14   8    0.05    0.19 
   9 -14  -7    0.22    0.22 
   9 -13  -7    0.03    0.19 
   9 -12  -7    0.63    0.20 
   9 -11  -7   -0.10    0.15 
   9 -10  -7    0.07    0.14 
   9  -9  -7    0.32    0.16 
   9  -8  -7    0.15    0.14 
   9  -7  -7    1.26    0.21 
   9  -6  -7    0.98    0.20 
   9  -5  -7    0.37    0.15 
   9  -5  -7    0.77    0.16 
   9  -4  -7    1.63    0.22 
   9  -4  -7    1.65    0.21 
   9  -3  -7    0.24    0.14 
   9  -3  -7    0.40    0.13 
   9  -2  -7    3.43    0.29 
   9  -2  -7    3.79    0.32 
   9  -1  -7    2.42    0.27 
   9  -1  -7    2.12    0.27 
  -9   0   7    0.03    0.05 
   9   0  -7   -0.01    0.11 
  -9  -1   7    2.03    0.19 
   9   1  -7    2.07    0.27 
  -9  -2   7    3.51    0.25 
   9   2  -7    3.67    0.36 
  -9  -3   7    0.43    0.10 
   9   3  -7    0.23    0.15 
  -9  -4   7    1.60    0.18 
   9   4  -7    1.95    0.30 
  -9  -5   7    0.71    0.13 
  -9  -6   7    1.15    0.18 
  -9  -7   7    0.99    0.16 
  -9  -8   7    0.24    0.10 
  -9  -9   7    0.21    0.10 
  -9 -10   7    0.04    0.09 
  -9 -11   7   -0.05    0.09 
  -9 -12   7    0.65    0.17 
  -9 -13   7    0.04    0.12 
  -9 -14   7   -0.01    0.15 
   9 -15  -6   -0.03    0.22 
   9 -14  -6    0.18    0.21 
   9 -13  -6    0.14    0.19 
   9 -12  -6   -0.22    0.15 
   9 -11  -6    0.16    0.17 
   9 -10  -6    1.12    0.20 
   9  -9  -6    0.07    0.13 
   9  -8  -6   -0.07    0.12 
   9  -7  -6    1.50    0.22 
   9  -6  -6    4.79    0.33 
   9  -6  -6    4.54    0.34 
   9  -5  -6    0.01    0.09 
   9  -5  -6   -0.07    0.11 
   9  -4  -6    3.47    0.28 
   9  -4  -6    3.76    0.28 
   9  -3  -6    0.34    0.12 
   9  -3  -6    0.54    0.14 
   9  -2  -6    0.60    0.16 
   9  -2  -6    0.76    0.15 
   9  -1  -6   -0.07    0.10 
   9  -1  -6    0.10    0.10 
   9   0  -6    3.07    0.30 
   9   0  -6    2.71    0.29 
   9   1  -6    0.17    0.12 
   9   1  -6    0.13    0.13 
  -9  -2   6    0.52    0.11 
   9   2  -6    0.69    0.18 
  -9  -3   6    0.24    0.08 
   9   3  -6    0.52    0.17 
  -9  -4   6    3.86    0.28 
   9   4  -6    4.47    0.41 
  -9  -5   6    0.04    0.06 
  -9  -6   6    6.07    0.38 
  -9  -7   6    1.54    0.20 
  -9  -8   6    0.00    0.08 
  -9  -9   6    0.05    0.09 
  -9 -10   6    1.09    0.18 
  -9 -11   6    0.13    0.10 
  -9 -12   6    0.03    0.10 
  -9 -13   6   -0.02    0.12 
  -9 -14   6    0.07    0.14 
  -9 -15   6   -0.03    0.18 
   9 -15  -5   -0.22    0.18 
   9 -14  -5    0.11    0.20 
   9 -13  -5    0.20    0.18 
   9 -12  -5    0.00    0.16 
   9 -11  -5    0.05    0.14 
   9 -10  -5    0.06    0.13 
   9  -9  -5    0.10    0.12 
   9  -8  -5    0.04    0.12 
   9  -7  -5    2.16    0.23 
   9  -7  -5    1.83    0.22 
   9  -6  -5    0.42    0.14 
   9  -6  -5    0.50    0.13 
   9  -5  -5    0.11    0.11 
   9  -5  -5    0.38    0.11 
   9  -4  -5    0.11    0.10 
   9  -4  -5    0.02    0.09 
   9  -3  -5    0.68    0.15 
   9  -3  -5    0.57    0.14 
   9  -2  -5    0.16    0.10 
   9  -2  -5    0.16    0.11 
   9  -1  -5    0.27    0.12 
   9  -1  -5    0.52    0.14 
   9   0  -5   -0.03    0.10 
   9   0  -5    0.04    0.09 
   9   1  -5    0.34    0.13 
   9   1  -5    0.48    0.15 
   9   2  -5    0.18    0.12 
   9   2  -5    0.09    0.11 
   9   3  -5    0.58    0.17 
   9   3  -5    0.53    0.16 
  -9  -4   5    0.01    0.06 
  -9  -5   5    0.33    0.10 
  -9  -6   5    0.47    0.12 
  -9  -7   5    2.66    0.26 
  -9  -8   5    0.25    0.10 
  -9  -9   5    0.35    0.11 
  -9 -10   5    0.01    0.08 
  -9 -11   5    0.07    0.10 
  -9 -12   5   -0.13    0.09 
  -9 -13   5    0.23    0.13 
  -9 -14   5    0.06    0.13 
  -9 -15   5    0.00    0.16 
   9 -15  -4   -0.11    0.19 
   9 -14  -4   -0.02    0.17 
   9 -13  -4   -0.04    0.17 
   9 -12  -4    0.02    0.14 
   9 -11  -4    0.15    0.14 
   9 -10  -4    0.07    0.13 
   9  -9  -4   -0.10    0.11 
   9  -8  -4    0.16    0.11 
   9  -8  -4   -0.05    0.11 
   9  -7  -4    0.12    0.10 
   9  -7  -4    0.08    0.10 
   9  -6  -4    1.77    0.20 
   9  -6  -4    1.76    0.21 
   9  -5  -4    1.54    0.19 
   9  -5  -4    1.74    0.21 
   9  -4  -4    3.22    0.28 
   9  -4  -4    2.88    0.24 
   9  -3  -4    0.15    0.10 
   9  -3  -4    0.13    0.10 
   9  -2  -4    0.22    0.11 
   9  -2  -4    0.27    0.11 
   9  -1  -4   -0.03    0.08 
   9  -1  -4    0.04    0.09 
   9   0  -4    5.90    0.40 
   9   0  -4    5.69    0.39 
   9   1  -4   -0.03    0.08 
   9   1  -4   -0.07    0.09 
   9   2  -4    0.10    0.10 
   9   2  -4    0.24    0.12 
   9   3  -4    0.16    0.12 
   9   3  -4    0.12    0.12 
   9   4  -4    2.86    0.32 
  -9  -5   4    1.75    0.19 
  -9  -6   4    1.70    0.19 
  -9  -7   4    0.12    0.08 
  -9  -8   4    0.00    0.07 
  -9  -9   4    0.07    0.08 
  -9 -10   4    0.01    0.09 
  -9 -11   4   -0.07    0.08 
  -9 -12   4    0.13    0.10 
  -9 -13   4    0.38    0.13 
  -9 -14   4    0.14    0.13 
   9 -15  -3    0.25    0.21 
   9 -14  -3    0.01    0.18 
   9 -13  -3   -0.08    0.15 
   9 -12  -3    0.66    0.19 
   9 -11  -3    0.19    0.14 
   9 -10  -3    0.60    0.15 
   9  -9  -3    0.80    0.16 
   9  -8  -3    0.10    0.12 
   9  -8  -3    0.25    0.11 
   9  -7  -3    0.34    0.11 
   9  -7  -3    0.32    0.13 
   9  -6  -3    1.23    0.17 
   9  -6  -3    1.63    0.20 
   9  -5  -3    1.16    0.18 
   9  -5  -3    1.16    0.16 
   9  -4  -3    2.32    0.24 
   9  -4  -3    2.63    0.21 
   9  -3  -3    0.60    0.14 
   9  -3  -3    0.91    0.14 
   9  -2  -3    7.67    0.47 
   9  -2  -3    8.42    0.46 
   9  -1  -3   13.32    0.72 
   9  -1  -3   14.77    0.75 
   9   0  -3   -0.05    0.09 
   9   0  -3   -0.07    0.07 
   9   1  -3   15.21    0.79 
   9   1  -3   13.87    0.77 
   9   2  -3    9.55    0.56 
   9   2  -3    9.05    0.56 
   9   3  -3    0.32    0.13 
   9   3  -3    0.60    0.16 
   9   4  -3    2.70    0.30 
   9   5  -3    1.36    0.23 
  -9  -7   3    0.45    0.11 
  -9  -8   3    0.16    0.09 
  -9  -9   3    0.95    0.16 
  -9 -10   3    0.47    0.13 
  -9 -11   3    0.33    0.11 
  -9 -12   3    0.72    0.15 
  -9 -13   3    0.00    0.10 
  -9 -14   3   -0.07    0.12 
  -9 -16   3    0.20    0.31 
   9 -16  -2   -0.05    0.22 
   9 -15  -2   -0.09    0.19 
   9 -14  -2    0.03    0.17 
   9 -13  -2    0.07    0.16 
   9 -12  -2    0.01    0.14 
   9 -11  -2    0.42    0.15 
   9 -10  -2    3.09    0.26 
   9  -9  -2    0.12    0.11 
   9  -9  -2    0.04    0.10 
   9  -8  -2    0.06    0.11 
   9  -8  -2    0.21    0.12 
   9  -7  -2    0.04    0.09 
   9  -7  -2    0.06    0.10 
   9  -6  -2   10.16    0.56 
   9  -6  -2   11.74    0.59 
   9  -5  -2    1.20    0.17 
   9  -5  -2    1.13    0.15 
   9  -4  -2   14.39    0.71 
   9  -4  -2   12.99    0.68 
   9  -3  -2    1.83    0.18 
   9  -3  -2    1.89    0.21 
   9  -2  -2    3.37    0.23 
   9  -2  -2    2.64    0.26 
   9  -1  -2    0.37    0.11 
   9  -1  -2    0.41    0.11 
   9   0  -2   17.92    0.91 
   9   0  -2   18.30    0.92 
   9   1  -2    0.39    0.14 
   9   1  -2    0.15    0.10 
   9   2  -2    2.84    0.29 
   9   2  -2    3.07    0.27 
   9   3  -2    1.79    0.23 
   9   3  -2    1.93    0.23 
   9   4  -2   15.00    0.82 
   9   5  -2    1.26    0.21 
   9   6  -2   14.02    0.79 
  -9  -8   2    0.13    0.08 
  -9  -9   2    0.11    0.08 
  -9 -10   2    4.18    0.31 
  -9 -11   2    0.18    0.10 
  -9 -12   2    0.04    0.09 
  -9 -13   2    0.18    0.12 
  -9 -15   2   -0.12    0.24 
  -9 -16   2    0.23    0.30 
   9 -16  -1   -0.14    0.21 
   9 -15  -1   -0.03    0.19 
   9 -14  -1    0.01    0.18 
   9 -13  -1    0.05    0.16 
   9 -12  -1    0.32    0.16 
   9 -11  -1    1.32    0.20 
   9 -10  -1    0.37    0.13 
   9 -10  -1    0.55    0.15 
   9  -9  -1   -0.09    0.10 
   9  -9  -1    0.02    0.10 
   9  -8  -1    0.31    0.11 
   9  -8  -1    0.24    0.11 
   9  -7  -1    1.04    0.16 
   9  -7  -1    0.79    0.14 
   9  -6  -1    0.03    0.08 
   9  -6  -1    0.21    0.09 
   9  -5  -1    1.06    0.13 
   9  -5  -1    0.82    0.15 
   9  -4  -1    0.55    0.12 
   9  -4  -1    0.79    0.12 
   9  -3  -1   -0.03    0.07 
   9  -3  -1    0.04    0.07 
   9  -2  -1    4.57    0.32 
   9  -2  -1    5.10    0.30 
   9  -1  -1    0.25    0.10 
   9  -1  -1    0.40    0.11 
   9   0  -1   -0.02    0.07 
   9   0  -1    0.02    0.09 
   9   1  -1    0.28    0.11 
   9   1  -1    0.50    0.12 
   9   2  -1    5.21    0.35 
   9   2  -1    5.01    0.35 
   9   3  -1    0.02    0.07 
   9   4  -1    0.74    0.16 
   9   5  -1    1.08    0.19 
   9   6  -1    0.09    0.10 
   9   7  -1    0.95    0.21 
  -9  -8   1    0.17    0.10 
  -9  -9   1    0.05    0.08 
  -9 -10   1    0.60    0.13 
  -9 -11   1    1.62    0.21 
  -9 -12   1    0.27    0.11 
  -9 -13   1    0.10    0.11 
  -9 -14   1    0.03    0.19 
  -9 -15   1    0.11    0.23 
  -9 -16   1   -0.16    0.29 
   9 -16   0    0.11    0.23 
   9 -15   0   -0.16    0.18 
   9 -14   0   -0.01    0.18 
   9 -13   0    0.89    0.21 
   9 -12   0   -0.08    0.13 
   9 -11   0    0.09    0.12 
   9 -10   0    0.08    0.10 
   9 -10   0    0.06    0.10 
   9  -9   0    0.09    0.11 
   9  -9   0    0.12    0.10 
   9  -8   0   -0.04    0.09 
   9  -8   0    0.04    0.09 
   9  -7   0    0.14    0.09 
   9  -7   0    0.21    0.09 
   9  -6   0    0.09    0.08 
   9  -6   0    0.02    0.07 
   9  -5   0    0.39    0.10 
   9  -5   0    0.48    0.11 
   9  -4   0    0.03    0.07 
   9  -4   0   -0.02    0.07 
   9  -3   0   -0.10    0.06 
   9  -3   0    0.03    0.07 
   9  -2   0   -0.04    0.06 
   9  -2   0    0.22    0.07 
   9  -1   0    0.01    0.06 
   9  -1   0   -0.03    0.06 
  -9   0   0    0.08    0.06 
   9   0   0    0.09    0.07 
   9   0   0   -0.01    0.07 
   9   1   0    0.05    0.06 
   9   1   0    0.07    0.06 
  -9  -2   0    0.12    0.05 
   9   2   0   -0.03    0.06 
   9   2   0   -0.05    0.06 
  -9  -3   0    0.02    0.04 
   9   3   0    0.15    0.08 
  -9  -4   0    0.08    0.05 
   9   4   0   -0.01    0.07 
   9   5   0    0.36    0.12 
   9   6   0   -0.07    0.08 
   9   7   0    0.11    0.12 
   9   8   0   -0.13    0.12 
  -9  -9   0    0.03    0.07 
  -9 -10   0    0.02    0.09 
  -9 -11   0    0.03    0.09 
  -9 -12   0    0.04    0.09 
  -9 -13   0    1.42    0.26 
  -9 -14   0    0.11    0.18 
  -9 -15   0   -0.15    0.23 
  -9 -16   0   -0.25    0.28 
   9 -16   1   -0.15    0.20 
   9 -15   1   -0.09    0.20 
   9 -14   1   -0.12    0.17 
   9 -13   1    0.03    0.15 
   9 -12   1    0.43    0.16 
   9 -11   1    1.54    0.22 
   9 -11   1    1.24    0.19 
   9 -10   1    0.65    0.15 
   9 -10   1    0.58    0.14 
   9  -9   1    0.04    0.10 
   9  -9   1    0.05    0.10 
   9  -8   1    0.24    0.11 
   9  -8   1    0.29    0.11 
   9  -7   1    0.84    0.13 
   9  -7   1    1.00    0.16 
   9  -6   1    0.07    0.08 
   9  -6   1    0.13    0.09 
   9  -5   1    1.06    0.12 
   9  -5   1    1.04    0.16 
   9  -4   1    0.69    0.13 
   9  -3   1    0.06    0.07 
   9  -3   1    0.04    0.06 
   9  -2   1    4.58    0.26 
   9  -2   1    4.38    0.30 
   9  -1   1    0.63    0.11 
   9  -1   1    0.48    0.12 
  -9   0  -1    0.07    0.07 
   9   0   1    0.00    0.06 
   9   0   1    0.05    0.08 
  -9  -1  -1    0.47    0.09 
   9   1   1    0.51    0.12 
   9   1   1    0.52    0.11 
  -9  -2  -1    4.57    0.26 
   9   2   1    5.04    0.33 
  -9  -3  -1   -0.06    0.05 
   9   3   1    0.04    0.07 
  -9  -4  -1    0.58    0.09 
   9   4   1    0.54    0.14 
   9   5   1    0.96    0.17 
   9   6   1    0.06    0.10 
   9   7   1    0.91    0.18 
   9   8   1    0.34    0.16 
   9   9   1   -0.04    0.13 
  -9 -10  -1    0.46    0.12 
  -9 -11  -1    1.69    0.20 
  -9 -12  -1    0.48    0.13 
  -9 -12  -1    0.40    0.17 
  -9 -13  -1    0.07    0.15 
  -9 -14  -1    0.08    0.19 
  -9 -15  -1    0.11    0.23 
  -9 -16  -1   -0.43    0.27 
   9 -16   2    0.11    0.23 
   9 -15   2    0.05    0.19 
   9 -14   2    0.03    0.18 
   9 -13   2    0.02    0.15 
   9 -12   2    0.12    0.14 
   9 -12   2   -0.02    0.12 
   9 -11   2    0.31    0.13 
   9 -11   2    0.36    0.14 
   9 -10   2    3.93    0.29 
   9 -10   2    3.69    0.28 
   9  -9   2    0.14    0.11 
   9  -9   2    0.14    0.10 
   9  -8   2    0.00    0.09 
   9  -8   2    0.13    0.09 
   9  -7   2    0.01    0.08 
   9  -7   2    0.19    0.08 
   9  -6   2    9.48    0.51 
   9  -6   2   11.16    0.56 
   9  -5   2    0.76    0.10 
   9  -5   2    1.16    0.16 
   9  -4   2   12.98    0.65 
   9  -4   2   14.60    0.70 
   9  -3   2    1.73    0.19 
   9  -3   2    1.63    0.14 
   9  -2   2    2.78    0.22 
   9  -2   2    2.79    0.18 
  -9   1  -2    0.37    0.11 
   9  -1   2    0.29    0.10 
   9  -1   2    0.41    0.09 
  -9   0  -2   17.75    0.83 
   9   0   2   16.94    0.86 
   9   0   2   16.87    0.83 
  -9  -1  -2    0.18    0.08 
   9   1   2    0.16    0.09 
  -9  -2  -2    2.69    0.19 
   9   2   2    3.02    0.24 
  -9  -3  -2    1.81    0.15 
   9   3   2    1.98    0.22 
  -9  -4  -2   14.40    0.68 
   9   4   2   13.14    0.73 
  -9  -5  -2    1.41    0.15 
   9   5   2    1.49    0.20 
   9   6   2   13.00    0.71 
   9   7   2    0.04    0.11 
   9   8   2    0.03    0.11 
   9   9   2    0.16    0.15 
  -9 -10  -2    4.13    0.30 
  -9 -10  -2    4.31    0.33 
  -9 -11  -2    0.35    0.15 
  -9 -11  -2    0.48    0.12 
  -9 -12  -2    0.22    0.15 
  -9 -13  -2    0.03    0.17 
  -9 -14  -2    0.36    0.19 
  -9 -15  -2   -0.20    0.22 
  -9 -16  -2    0.21    0.30 
   9 -15   3    0.12    0.20 
   9 -14   3    0.05    0.18 
   9 -13   3   -0.13    0.15 
   9 -12   3    0.95    0.19 
   9 -12   3    0.77    0.19 
   9 -11   3    0.56    0.15 
   9 -11   3    0.27    0.14 
   9 -10   3    0.43    0.14 
   9 -10   3    0.44    0.14 
   9  -9   3    1.12    0.16 
   9  -9   3    1.42    0.20 
   9  -8   3    0.25    0.11 
   9  -8   3    0.16    0.09 
   9  -7   3    0.21    0.08 
   9  -7   3    0.34    0.11 
   9  -6   3    1.29    0.18 
   9  -6   3    1.83    0.15 
   9  -5   3    1.07    0.12 
   9  -5   3    1.12    0.16 
   9  -4   3    2.65    0.22 
   9  -4   3    2.64    0.17 
   9  -3   3    0.49    0.11 
   9  -3   3    0.68    0.09 
   9  -2   3    8.56    0.43 
   9  -2   3    9.44    0.50 
  -9   1  -3   14.48    0.74 
   9  -1   3   14.71    0.74 
  -9   0  -3    0.01    0.08 
   9   0   3    0.04    0.06 
  -9  -1  -3   14.34    0.71 
   9   1   3   14.32    0.74 
  -9  -2  -3    8.57    0.45 
   9   2   3    8.41    0.49 
  -9  -3  -3    0.58    0.11 
   9   3   3    0.75    0.14 
  -9  -4  -3    2.25    0.19 
   9   4   3    3.08    0.24 
  -9  -5  -3    1.25    0.15 
   9   5   3    1.15    0.18 
  -9  -6  -3    1.58    0.17 
   9   6   3    1.61    0.21 
   9   7   3    0.63    0.14 
   9   8   3    0.32    0.13 
  -9  -9  -3    1.16    0.19 
   9   9   3    1.39    0.25 
  -9 -10  -3    0.47    0.15 
   9  10   3   -0.07    0.14 
  -9 -11  -3    0.27    0.15 
  -9 -12  -3    1.27    0.22 
  -9 -13  -3   -0.26    0.14 
  -9 -14  -3    0.33    0.19 
  -9 -15  -3   -0.68    0.19 
   9 -15   4    0.13    0.22 
   9 -14   4    0.18    0.18 
   9 -13   4    0.39    0.17 
   9 -13   4    0.09    0.15 
   9 -12   4    0.14    0.14 
   9 -12   4    0.15    0.14 
   9 -11   4    0.10    0.12 
   9 -11   4    0.08    0.13 
   9 -10   4    0.22    0.13 
   9 -10   4    0.14    0.12 
   9  -9   4    0.00    0.10 
   9  -9   4    0.12    0.11 
   9  -8   4    0.02    0.09 
   9  -8   4    0.09    0.08 
   9  -7   4    0.19    0.09 
   9  -7   4    0.16    0.10 
   9  -6   4    1.65    0.15 
   9  -6   4    1.63    0.20 
   9  -5   4    1.64    0.19 
   9  -5   4    1.90    0.14 
   9  -4   4    2.78    0.17 
   9  -4   4    2.46    0.24 
   9  -3   4    0.14    0.08 
   9  -3   4    0.30    0.06 
  -9   2  -4    0.28    0.11 
   9  -2   4    0.38    0.11 
  -9   1  -4    0.13    0.09 
   9  -1   4    0.02    0.07 
  -9   0  -4    5.28    0.33 
   9   0   4    5.17    0.34 
  -9  -1  -4    0.02    0.08 
   9   1   4    0.02    0.07 
  -9  -2  -4    0.19    0.09 
   9   2   4    0.16    0.09 
  -9  -3  -4    0.16    0.09 
   9   3   4    0.19    0.09 
  -9  -4  -4    2.99    0.22 
   9   4   4    2.76    0.24 
  -9  -5  -4    1.84    0.19 
   9   5   4    2.11    0.23 
  -9  -6  -4    1.69    0.19 
  -9  -6  -4    1.90    0.18 
   9   6   4    1.79    0.22 
  -9  -7  -4   -0.02    0.10 
  -9  -7  -4    0.01    0.09 
   9   7   4    0.06    0.10 
  -9  -8  -4   -0.02    0.11 
   9   8   4    0.06    0.12 
  -9  -9  -4   -0.07    0.11 
   9   9   4   -0.04    0.12 
  -9 -10  -4    0.16    0.12 
   9  10   4    0.11    0.18 
  -9 -11  -4   -0.04    0.12 
  -9 -12  -4    0.16    0.14 
  -9 -13  -4    0.16    0.16 
  -9 -14  -4   -0.05    0.17 
  -9 -15  -4    0.02    0.23 
   9 -15   5   -0.06    0.20 
   9 -14   5   -0.02    0.19 
   9 -13   5    0.44    0.17 
   9 -13   5    0.34    0.18 
   9 -12   5    0.02    0.14 
   9 -12   5   -0.12    0.11 
   9 -11   5    0.02    0.12 
   9 -11   5    0.09    0.12 
   9 -10   5    0.03    0.11 
   9 -10   5    0.02    0.10 
   9  -9   5    0.53    0.15 
   9  -9   5    0.25    0.10 
   9  -8   5    0.18    0.10 
   9  -8   5    0.09    0.10 
   9  -7   5    2.30    0.18 
   9  -7   5    2.41    0.25 
   9  -6   5    0.46    0.10 
   9  -6   5    0.48    0.12 
   9  -5   5    0.47    0.08 
   9  -5   5    0.18    0.09 
   9  -4   5    0.04    0.05 
   9  -4   5   -0.01    0.06 
   9  -3   5    0.43    0.11 
  -9   2  -5    0.17    0.11 
   9  -2   5    0.09    0.08 
  -9   1  -5    0.65    0.15 
   9  -1   5    0.43    0.12 
  -9   0  -5    0.02    0.09 
   9   0   5   -0.06    0.06 
  -9  -1  -5    0.45    0.12 
   9   1   5    0.43    0.11 
  -9  -2  -5    0.30    0.10 
   9   2   5    0.26    0.10 
  -9  -3  -5    0.52    0.12 
   9   3   5    0.60    0.13 
  -9  -4  -5   -0.07    0.06 
  -9  -4  -5    0.00    0.09 
   9   4   5    0.04    0.07 
  -9  -5  -5    0.30    0.09 
  -9  -5  -5    0.14    0.10 
   9   5   5    0.38    0.11 
  -9  -6  -5    0.24    0.10 
  -9  -6  -5    0.40    0.13 
   9   6   5    0.60    0.13 
  -9  -7  -5    2.57    0.24 
  -9  -7  -5    2.39    0.21 
   9   7   5    2.64    0.28 
  -9  -8  -5    0.10    0.11 
  -9  -8  -5    0.16    0.11 
   9   8   5    0.27    0.12 
  -9  -9  -5    0.36    0.13 
  -9  -9  -5    0.46    0.14 
   9   9   5    0.60    0.16 
  -9 -10  -5   -0.01    0.12 
  -9 -11  -5    0.12    0.13 
  -9 -12  -5   -0.06    0.13 
  -9 -13  -5    0.32    0.17 
  -9 -14  -5   -0.12    0.18 
  -9 -15  -5   -0.17    0.24 
   9 -14   6   -0.08    0.17 
   9 -13   6    0.29    0.16 
   9 -12   6   -0.01    0.12 
   9 -11   6    0.21    0.15 
   9 -11   6    0.25    0.14 
   9 -10   6    0.47    0.14 
   9 -10   6    1.30    0.21 
   9  -9   6    0.02    0.09 
   9  -9   6    0.21    0.12 
   9  -8   6    0.03    0.10 
   9  -8   6    0.04    0.08 
   9  -7   6    1.71    0.16 
   9  -7   6    1.79    0.23 
   9  -6   6    4.62    0.27 
   9  -6   6    5.10    0.34 
   9  -5   6   -0.06    0.06 
   9  -4   6    3.22    0.26 
   9  -3   6    0.51    0.12 
  -9   2  -6    0.71    0.17 
   9  -2   6    0.65    0.13 
  -9   1  -6    0.22    0.12 
   9  -1   6    0.14    0.08 
  -9   0  -6    2.78    0.26 
   9   0   6    2.66    0.23 
  -9  -1  -6    0.23    0.11 
   9   1   6    0.19    0.09 
  -9  -2  -6    0.58    0.13 
   9   2   6    0.91    0.15 
  -9  -3  -6    0.69    0.14 
   9   3   6    0.87    0.15 
  -9  -4  -6    3.57    0.27 
   9   4   6    3.93    0.29 
  -9  -5  -6   -0.06    0.07 
  -9  -5  -6    0.06    0.09 
   9   5   6   -0.07    0.08 
  -9  -6  -6    5.77    0.37 
  -9  -6  -6    5.32    0.32 
   9   6   6    5.56    0.37 
  -9  -7  -6    1.72    0.18 
  -9  -7  -6    1.57    0.21 
  -9  -8  -6    0.00    0.11 
  -9  -8  -6   -0.05    0.09 
   9   8   6    0.25    0.12 
  -9  -9  -6    0.09    0.12 
  -9  -9  -6   -0.04    0.10 
  -9 -10  -6    1.23    0.20 
  -9 -10  -6    1.25    0.19 
  -9 -11  -6   -0.11    0.13 
  -9 -11  -6    0.18    0.13 
  -9 -12  -6   -0.18    0.15 
   9 -14   7    0.18    0.20 
   9 -13   7   -0.17    0.14 
   9 -12   7    0.63    0.18 
   9 -11   7    0.01    0.12 
   9 -10   7    0.10    0.12 
   9  -9   7    0.19    0.12 
   9  -8   7    0.18    0.11 
   9  -7   7    1.64    0.23 
   9  -6   7    1.15    0.19 
   9  -5   7    0.76    0.16 
   9  -4   7    1.56    0.20 
  -9   3  -7    0.54    0.16 
   9  -3   7    0.55    0.13 
  -9   2  -7    3.75    0.32 
   9  -2   7    3.73    0.27 
  -9   1  -7    2.18    0.27 
   9  -1   7    2.39    0.24 
  -9   0  -7   -0.02    0.10 
   9   0   7    0.09    0.09 
  -9  -1  -7    2.29    0.25 
   9   1   7    2.36    0.25 
  -9  -2  -7    4.31    0.30 
   9   2   7    3.35    0.28 
  -9  -3  -7    0.34    0.13 
   9   3   7    0.52    0.12 
  -9  -4  -7    2.14    0.23 
   9   4   7    2.31    0.25 
  -9  -5  -7    0.42    0.14 
   9   5   7    0.50    0.13 
  -9  -6  -7    0.94    0.18 
   9   6   7    0.86    0.17 
  -9  -7  -7    1.26    0.20 
   9   7   7    1.58    0.21 
  -9  -8  -7    0.28    0.14 
  -9  -9  -7   -0.02    0.11 
  -9 -10  -7    0.16    0.10 
  -9 -11  -7    0.18    0.12 
  -9 -12  -7    0.40    0.17 
  -9 -13  -7   -0.03    0.17 
  -9 -14  -7    0.10    0.22 
   9 -14   8    0.10    0.22 
   9 -13   8    0.39    0.22 
   9 -12   8   -0.03    0.14 
   9 -11   8    0.05    0.12 
   9 -10   8    0.24    0.13 
   9  -9   8    0.13    0.11 
   9  -8   8    0.08    0.11 
   9  -7   8    0.10    0.10 
   9  -6   8    3.43    0.28 
   9  -5   8   -0.08    0.08 
   9  -4   8    3.04    0.25 
  -9   3  -8    0.28    0.16 
   9  -3   8    0.40    0.11 
  -9   2  -8    0.04    0.10 
   9  -2   8    0.13    0.08 
  -9   1  -8    0.02    0.13 
   9  -1   8    0.07    0.08 
  -9   0  -8    3.20    0.31 
   9   0   8    3.17    0.26 
  -9  -1  -8   -0.02    0.11 
   9   1   8    0.20    0.10 
  -9  -2  -8   -0.03    0.10 
   9   2   8    0.10    0.09 
  -9  -3  -8    0.47    0.15 
   9   3   8    0.64    0.14 
  -9  -4  -8    3.17    0.28 
   9   4   8    3.24    0.27 
  -9  -5  -8    0.06    0.11 
   9   5   8    0.14    0.11 
  -9  -6  -8    3.61    0.30 
  -9  -7  -8    0.12    0.12 
   9   7   8    0.17    0.11 
  -9  -8  -8    0.11    0.13 
  -9  -9  -8    0.25    0.14 
  -9 -10  -8    0.16    0.14 
  -9 -11  -8    0.23    0.15 
  -9 -12  -8    0.10    0.16 
  -9 -13  -8    0.15    0.20 
  -9 -14  -8    0.21    0.26 
   9 -13   9    0.30    0.22 
   9 -12   9    0.07    0.16 
   9 -11   9    0.02    0.13 
   9 -10   9    0.05    0.12 
   9  -9   9    0.01    0.11 
   9  -8   9   -0.05    0.09 
   9  -7   9    0.14    0.10 
   9  -6   9    0.66    0.16 
   9  -5   9   -0.10    0.07 
   9  -4   9    0.50    0.14 
  -9   3  -9    0.09    0.14 
   9  -3   9   -0.06    0.07 
  -9   2  -9    0.07    0.13 
   9  -2   9    0.09    0.09 
  -9   1  -9    0.50    0.17 
   9  -1   9    0.68    0.15 
  -9   0  -9    0.15    0.12 
   9   0   9   -0.05    0.08 
  -9  -1  -9    0.39    0.15 
   9   1   9    0.51    0.14 
  -9  -2  -9   -0.07    0.11 
   9   2   9    0.15    0.11 
  -9  -3  -9   -0.03    0.12 
   9   3   9    0.06    0.11 
  -9  -4  -9    0.68    0.17 
   9   4   9    0.67    0.16 
  -9  -5  -9   -0.12    0.10 
   9   5   9   -0.01    0.11 
  -9  -6  -9    0.45    0.15 
   9   6   9    0.76    0.18 
  -9  -7  -9    0.31    0.14 
  -9  -8  -9   -0.04    0.10 
  -9  -9  -9   -0.03    0.12 
  -9 -10  -9   -0.15    0.13 
  -9 -11  -9    0.06    0.16 
  -9 -12  -9    0.09    0.20 
  -9 -13  -9   -0.09    0.23 
   9 -13  10    0.09    0.23 
   9 -12  10    0.13    0.20 
   9 -11  10    0.03    0.16 
   9 -10  10   -0.04    0.13 
   9  -9  10    0.11    0.12 
   9  -8  10    0.14    0.12 
   9  -7  10    0.03    0.10 
   9  -6  10    0.80    0.17 
   9  -5  10    0.14    0.10 
   9  -4  10    0.25    0.12 
  -9   3 -10    0.09    0.14 
   9  -3  10    0.23    0.11 
  -9   2 -10    0.07    0.15 
   9  -2  10    0.20    0.11 
  -9   1 -10    0.19    0.15 
   9  -1  10    0.13    0.10 
  -9   0 -10    0.26    0.16 
   9   0  10    0.54    0.14 
  -9  -1 -10   -0.06    0.12 
   9   1  10    0.19    0.11 
  -9  -2 -10    0.26    0.16 
   9   2  10    0.51    0.14 
  -9  -3 -10    0.23    0.14 
   9   3  10    0.17    0.12 
  -9  -4 -10    0.43    0.16 
   9   4  10    0.47    0.14 
  -9  -5 -10    0.00    0.14 
   9   5  10   -0.05    0.11 
  -9  -6 -10    0.86    0.18 
  -9  -7 -10    0.19    0.14 
  -9  -8 -10    0.01    0.12 
  -9  -9 -10    0.05    0.13 
  -9 -10 -10    0.08    0.17 
  -9 -11 -10    0.10    0.20 
  -9 -12 -10   -0.05    0.22 
  -9 -13 -10   -0.12    0.25 
   9 -12  11    0.16    0.23 
   9 -11  11    0.16    0.19 
   9 -10  11    0.01    0.15 
   9  -9  11    0.26    0.16 
   9  -8  11    0.29    0.14 
   9  -7  11    0.90    0.19 
   9  -6  11   -0.02    0.10 
   9  -5  11    0.20    0.12 
   9  -4  11    0.51    0.15 
  -9   3 -11    0.39    0.18 
   9  -3  11    0.45    0.13 
  -9   2 -11    0.89    0.24 
   9  -2  11    1.08    0.19 
  -9   1 -11    0.16    0.16 
   9  -1  11    0.20    0.12 
  -9   0 -11    0.14    0.15 
   9   0  11    0.10    0.10 
  -9  -1 -11   -0.10    0.13 
   9   1  11    0.26    0.12 
  -9  -2 -11    1.06    0.23 
   9   2  11    1.26    0.20 
  -9  -3 -11    0.67    0.19 
   9   3  11    0.53    0.15 
  -9  -4 -11    0.42    0.16 
   9   4  11    0.36    0.15 
  -9  -5 -11    0.42    0.17 
   9   5  11    0.01    0.12 
  -9  -6 -11    0.20    0.14 
  -9  -7 -11    0.97    0.22 
  -9  -8 -11    0.21    0.17 
  -9  -9 -11    0.19    0.18 
  -9 -10 -11   -0.04    0.19 
  -9 -11 -11    0.22    0.24 
  -9 -12 -11    0.21    0.27 
   9 -11  12   -0.05    0.21 
   9 -10  12    0.12    0.19 
   9  -9  12    0.05    0.17 
   9  -8  12    0.00    0.14 
   9  -7  12    0.02    0.12 
   9  -6  12    1.06    0.21 
   9  -5  12    0.05    0.11 
   9  -4  12    2.13    0.28 
  -9   3 -12   -0.10    0.14 
   9  -3  12    0.17    0.11 
  -9   2 -12    0.18    0.16 
   9  -2  12    0.03    0.10 
  -9   1 -12    0.17    0.15 
   9  -1  12    0.14    0.11 
  -9   0 -12    1.06    0.25 
   9   0  12    0.95    0.18 
  -9  -1 -12    0.11    0.14 
   9   1  12   -0.02    0.10 
  -9  -2 -12    0.22    0.15 
   9   2  12    0.09    0.12 
  -9  -3 -12    0.11    0.15 
   9   3  12    0.04    0.12 
  -9  -4 -12    1.55    0.27 
   9   4  12    1.86    0.26 
  -9  -5 -12    0.02    0.16 
  -9  -6 -12    1.34    0.25 
  -9  -7 -12   -0.09    0.16 
  -9  -8 -12    0.19    0.20 
  -9  -9 -12    0.05    0.20 
  -9 -10 -12    0.15    0.23 
  -9 -11 -12   -0.08    0.26 
   9 -10  13    0.07    0.23 
   9  -9  13    0.02    0.20 
   9  -8  13   -0.08    0.13 
   9  -7  13    0.10    0.13 
   9  -6  13    0.20    0.15 
   9  -5  13    0.05    0.13 
   9  -4  13    0.25    0.15 
  -9   3 -13   -0.07    0.16 
   9  -3  13    0.12    0.13 
  -9   2 -13    0.27    0.20 
   9  -2  13    0.27    0.14 
  -9   1 -13    0.00    0.17 
   9  -1  13   -0.01    0.11 
  -9   0 -13   -0.12    0.15 
   9   0  13    0.19    0.12 
  -9  -1 -13   -0.18    0.16 
   9   1  13    0.09    0.13 
  -9  -2 -13    0.20    0.20 
   9   2  13    0.41    0.16 
  -9  -3 -13   -0.08    0.17 
   9   3  13    0.09    0.14 
  -9  -4 -13   -0.03    0.18 
  -9  -5 -13    0.04    0.18 
  -9  -6 -13    0.17    0.19 
  -9  -7 -13    0.02    0.20 
  -9  -8 -13    0.07    0.23 
  -9  -9 -13   -0.04    0.24 
  -9 -10 -13   -0.03    0.27 
   9  -9  14    0.18    0.24 
   9  -8  14    0.14    0.16 
   9  -7  14   -0.03    0.13 
   9  -6  14    0.01    0.15 
   9  -5  14   -0.04    0.13 
   9  -4  14   -0.12    0.13 
  -9   3 -14   -0.19    0.19 
   9  -3  14    0.00    0.13 
  -9   2 -14   -0.08    0.18 
   9  -2  14    0.10    0.13 
  -9   1 -14    0.32    0.21 
   9  -1  14    0.02    0.14 
  -9   0 -14    0.12    0.18 
   9   0  14    0.18    0.13 
  -9  -1 -14   -0.07    0.17 
   9   1  14    0.00    0.13 
  -9  -2 -14   -0.01    0.17 
   9   2  14   -0.13    0.14 
  -9  -3 -14    0.07    0.21 
  -9  -4 -14    0.01    0.20 
  -9  -5 -14   -0.18    0.20 
  -9  -6 -14    0.43    0.25 
  -9  -7 -14    0.12    0.26 
  -9  -8 -14    0.08    0.27 
  -9  -9 -14    0.18    0.30 
   9  -8  15    0.33    0.20 
   9  -7  15    0.04    0.17 
   9  -6  15    0.12    0.17 
   9  -5  15   -0.06    0.15 
   9  -4  15    0.03    0.15 
  -9   3 -15    0.11    0.23 
   9  -3  15    0.36    0.17 
  -9   2 -15    0.09    0.24 
   9  -2  15   -0.04    0.15 
  -9   1 -15    0.05    0.23 
   9  -1  15    0.03    0.15 
  -9   0 -15   -0.11    0.21 
   9   0  15   -0.08    0.14 
  -9  -1 -15   -0.22    0.22 
   9   1  15    0.07    0.15 
  -9  -2 -15    0.18    0.25 
  -9  -3 -15    0.19    0.25 
  -9  -4 -15   -0.03    0.25 
  -9  -5 -15    0.06    0.27 
  -9  -6 -15    0.03    0.29 
  -9  -7 -15    0.18    0.31 
  -9  -8 -15   -0.02    0.31 
   9  -6  16    0.11    0.18 
   9  -5  16    0.23    0.19 
   9  -4  16    0.43    0.20 
   9  -3  16    0.23    0.18 
  -9   2 -16   -0.06    0.22 
   9  -2  16    0.43    0.19 
  -9   1 -16   -0.06    0.22 
   9  -1  16    0.03    0.17 
  -9   0 -16    0.09    0.22 
   9   0  16    0.15    0.18 
  -9  -1 -16    0.11    0.23 
   9   1  16    0.09    0.19 
  -9  -2 -16    0.30    0.26 
  -9  -3 -16   -0.02    0.24 
  -9  -4 -16    0.21    0.28 
  -9  -5 -16   -0.16    0.29 
  -9  -6 -16    0.27    0.36 
   9  -3  17    0.01    0.18 
  -9   2 -17    0.24    0.26 
   9  -2  17    0.22    0.19 
  -9   1 -17   -0.01    0.24 
   9  -1  17    0.15    0.20 
  -9   0 -17   -0.16    0.21 
   9   0  17   -0.30    0.17 
  -9  -1 -17    0.04    0.23 
  -9  -2 -17    0.03    0.23 
  -9  -3 -17    0.33    0.26 
  10  -2 -17    0.32    0.40 
  10  -1 -17    0.03    0.38 
  10   0 -17   -0.10    0.37 
  10   1 -17    0.10    0.39 
  10   2 -17    0.18    0.40 
  10  -5 -16    0.12    0.40 
  10  -4 -16   -0.20    0.35 
  10  -3 -16   -0.22    0.34 
  10  -2 -16   -0.04    0.31 
  10  -1 -16    0.01    0.30 
  10   0 -16   -0.11    0.28 
  10   1 -16    0.16    0.30 
 -10  -2  16   -0.08    0.12 
  10   2 -16    0.10    0.32 
 -10  -3  16   -0.02    0.13 
  10   3 -16    0.13    0.36 
 -10  -4  16    0.02    0.13 
 -10  -5  16   -0.17    0.13 
  10  -7 -15    0.11    0.36 
  10  -6 -15    0.23    0.37 
  10  -5 -15    0.10    0.31 
  10  -4 -15    0.09    0.30 
  10  -3 -15    0.03    0.27 
  10  -2 -15    0.27    0.28 
  10  -1 -15   -0.15    0.22 
  10   0 -15   -0.11    0.23 
 -10  -1  15    0.01    0.10 
  10   1 -15   -0.06    0.24 
 -10  -2  15    0.47    0.14 
  10   2 -15    0.56    0.30 
 -10  -3  15    0.27    0.13 
  10   3 -15    0.33    0.31 
 -10  -4  15    0.02    0.12 
 -10  -5  15   -0.02    0.11 
 -10  -6  15    0.03    0.13 
 -10  -7  15    0.11    0.15 
  10  -9 -14    0.12    0.34 
  10  -8 -14    0.18    0.33 
  10  -7 -14    0.05    0.29 
  10  -6 -14    0.80    0.34 
  10  -5 -14   -0.05    0.24 
  10  -4 -14    0.41    0.26 
  10  -3 -14   -0.10    0.21 
  10  -2 -14   -0.01    0.20 
  10  -1 -14    0.05    0.20 
 -10   0  14    0.48    0.13 
  10   0 -14    0.21    0.21 
 -10  -1  14   -0.14    0.08 
  10   1 -14   -0.17    0.18 
 -10  -2  14    0.03    0.09 
  10   2 -14   -0.10    0.19 
 -10  -3  14    0.04    0.10 
  10   3 -14    0.16    0.21 
 -10  -4  14    0.42    0.14 
 -10  -5  14    0.03    0.11 
 -10  -6  14    0.93    0.19 
 -10  -7  14    0.07    0.13 
 -10  -8  14    0.00    0.13 
 -10  -9  14   -0.07    0.14 
  10 -10 -13   -0.04    0.31 
  10  -9 -13   -0.09    0.29 
  10  -8 -13    0.41    0.29 
  10  -7 -13    0.59    0.27 
  10  -6 -13    0.21    0.22 
  10  -5 -13    0.21    0.21 
  10  -4 -13    0.46    0.24 
  10  -3 -13    0.42    0.21 
  10  -2 -13    0.91    0.26 
 -10   1  13   -0.01    0.08 
  10  -1 -13   -0.13    0.15 
 -10   0  13   -0.05    0.07 
  10   0 -13   -0.04    0.15 
 -10  -1  13    0.11    0.09 
  10   1 -13   -0.01    0.16 
 -10  -2  13    1.38    0.19 
  10   2 -13    0.97    0.28 
 -10  -3  13    0.59    0.14 
  10   3 -13    0.59    0.23 
 -10  -4  13   -0.01    0.10 
  10   4 -13    0.04    0.21 
 -10  -5  13    0.27    0.12 
 -10  -6  13   -0.08    0.09 
 -10  -7  13    0.49    0.15 
 -10  -8  13    0.41    0.14 
 -10  -9  13   -0.10    0.12 
 -10 -10  13    0.26    0.16 
  10 -11 -12    0.14    0.29 
  10 -10 -12   -0.11    0.26 
  10  -9 -12    0.27    0.25 
  10  -8 -12    0.07    0.22 
  10  -7 -12    0.25    0.22 
  10  -6 -12    0.63    0.22 
  10  -5 -12    0.15    0.17 
  10  -4 -12    0.00    0.15 
  10  -3 -12   -0.11    0.15 
 -10   2  12    0.16    0.09 
  10  -2 -12    0.07    0.16 
 -10   1  12    0.06    0.07 
  10  -1 -12    0.04    0.15 
 -10   0  12   -0.01    0.07 
  10   0 -12   -0.14    0.14 
 -10  -1  12    0.13    0.08 
  10   1 -12   -0.16    0.13 
 -10  -2  12    0.15    0.09 
  10   2 -12    0.19    0.15 
 -10  -3  12   -0.02    0.07 
  10   3 -12    0.07    0.17 
 -10  -4  12    0.35    0.11 
  10   4 -12    0.07    0.17 
 -10  -5  12    0.09    0.10 
 -10  -6  12    0.33    0.12 
 -10  -7  12   -0.02    0.10 
 -10  -8  12    0.03    0.11 
 -10  -9  12    0.12    0.12 
 -10 -10  12   -0.07    0.16 
 -10 -11  12    0.02    0.18 
  10 -12 -11    0.15    0.28 
  10 -11 -11   -0.03    0.27 
  10 -10 -11    0.06    0.22 
  10  -9 -11    0.12    0.20 
  10  -8 -11    0.20    0.19 
  10  -7 -11    0.07    0.16 
  10  -6 -11    0.08    0.16 
  10  -5 -11    0.12    0.15 
  10  -4 -11   -0.05    0.13 
 -10   3  11   -0.02    0.07 
  10  -3 -11   -0.07    0.14 
 -10   2  11    0.50    0.10 
  10  -2 -11    0.27    0.17 
 -10   1  11    0.15    0.08 
  10  -1 -11    0.26    0.18 
 -10   0  11    0.04    0.07 
  10   0 -11   -0.09    0.15 
 -10  -1  11    0.25    0.10 
  10   1 -11    0.14    0.17 
 -10  -2  11    0.38    0.11 
  10   2 -11    0.38    0.19 
 -10  -3  11    0.02    0.08 
  10   3 -11    0.05    0.15 
 -10  -4  11   -0.03    0.07 
  10   4 -11   -0.03    0.17 
 -10  -5  11    0.13    0.10 
 -10  -6  11    0.07    0.09 
 -10  -7  11   -0.04    0.09 
 -10  -8  11    0.05    0.10 
 -10  -9  11    0.08    0.13 
 -10 -10  11    0.03    0.14 
 -10 -11  11    0.09    0.17 
 -10 -12  11    0.01    0.19 
  10 -12 -10    0.02    0.25 
  10 -11 -10    0.06    0.22 
  10 -10 -10    0.33    0.21 
  10  -9 -10    0.08    0.16 
  10  -8 -10    0.05    0.16 
  10  -7 -10    0.06    0.15 
  10  -6 -10    0.96    0.21 
  10  -5 -10    0.23    0.15 
  10  -4 -10    1.89    0.29 
 -10   3  10    0.01    0.06 
  10  -3 -10    0.13    0.14 
 -10   2  10    0.16    0.07 
  10  -2 -10    0.05    0.14 
 -10   1  10    0.06    0.07 
  10  -1 -10   -0.05    0.14 
 -10   0  10    2.54    0.20 
  10   0 -10    2.50    0.34 
 -10  -1  10    0.01    0.07 
  10   1 -10   -0.05    0.14 
 -10  -2  10    0.03    0.07 
  10   2 -10    0.10    0.14 
 -10  -3  10    0.10    0.08 
  10   3 -10    0.06    0.14 
 -10  -4  10    1.66    0.20 
  10   4 -10    1.42    0.29 
 -10  -5  10   -0.05    0.07 
 -10  -6  10    1.07    0.18 
 -10  -7  10    0.02    0.09 
 -10  -8  10    0.14    0.11 
 -10  -9  10   -0.12    0.10 
 -10 -10  10    0.19    0.14 
 -10 -11  10    0.14    0.15 
 -10 -12  10    0.08    0.18 
  10 -13  -9    0.04    0.22 
  10 -12  -9    0.57    0.23 
  10 -11  -9   -0.24    0.18 
  10 -10  -9   -0.24    0.17 
  10  -9  -9    0.07    0.17 
  10  -8  -9    0.21    0.17 
  10  -7  -9   -0.01    0.15 
  10  -6  -9    0.08    0.15 
  10  -5  -9   -0.02    0.14 
 -10   4   9    0.00    0.07 
  10  -4  -9    0.05    0.15 
 -10   3   9    0.86    0.13 
  10  -3  -9    2.00    0.28 
 -10   2   9    8.47    0.45 
  10  -2  -9    7.23    0.55 
 -10   1   9    0.08    0.07 
  10  -1  -9   -0.20    0.14 
 -10   0   9    0.04    0.06 
  10   0  -9   -0.07    0.14 
 -10  -1   9    0.15    0.08 
  10   1  -9   -0.20    0.13 
 -10  -2   9    8.85    0.47 
  10   2  -9    7.26    0.58 
 -10  -3   9    2.20    0.23 
  10   3  -9    2.22    0.35 
 -10  -4   9    0.25    0.10 
  10   4  -9   -0.02    0.17 
 -10  -5   9   -0.04    0.07 
 -10  -6   9    0.04    0.08 
 -10  -7   9    0.02    0.08 
 -10  -8   9    0.16    0.11 
 -10  -9   9    0.16    0.12 
 -10 -10   9   -0.08    0.10 
 -10 -11   9    0.03    0.13 
 -10 -12   9    0.52    0.18 
 -10 -13   9    0.08    0.19 
  10 -13  -8    0.17    0.22 
  10 -12  -8    0.06    0.19 
  10 -11  -8    0.09    0.18 
  10 -10  -8   -0.01    0.17 
  10  -9  -8   -0.01    0.16 
  10  -8  -8    0.28    0.17 
  10  -7  -8    0.05    0.15 
  10  -6  -8    1.29    0.23 
  10  -5  -8    2.85    0.31 
  10  -4  -8    4.10    0.35 
 -10   3   8    1.56    0.17 
  10  -3  -8    1.06    0.22 
 -10   2   8    0.17    0.08 
  10  -2  -8    0.12    0.15 
 -10   1   8    0.05    0.06 
  10  -1  -8   -0.11    0.13 
 -10   0   8    2.55    0.20 
  10   0  -8    1.75    0.29 
 -10  -1   8    0.12    0.06 
  10   1  -8   -0.14    0.13 
 -10  -2   8    0.11    0.08 
  10   2  -8    0.04    0.16 
 -10  -3   8    1.39    0.18 
  10   3  -8    1.49    0.28 
 -10  -4   8    4.21    0.30 
  10   4  -8    4.53    0.46 
 -10  -5   8    2.83    0.24 
 -10  -6   8    1.38    0.19 
 -10  -7   8    0.06    0.08 
 -10  -8   8    0.14    0.09 
 -10  -9   8    0.05    0.09 
 -10 -10   8    0.06    0.10 
 -10 -11   8    0.06    0.12 
 -10 -12   8    0.02    0.14 
 -10 -13   8    0.05    0.17 
  10 -14  -7   -0.10    0.20 
  10 -13  -7    0.01    0.18 
  10 -12  -7   -0.01    0.17 
  10 -11  -7   -0.01    0.18 
  10 -10  -7    0.02    0.17 
  10  -9  -7   -0.02    0.14 
  10  -8  -7    0.44    0.17 
  10  -7  -7   -0.08    0.13 
  10  -6  -7    0.03    0.14 
  10  -5  -7    0.50    0.17 
  10  -5  -7    0.70    0.16 
  10  -4  -7    0.27    0.15 
  10  -4  -7    0.18    0.12 
  10  -3  -7   -0.02    0.10 
  10  -3  -7   -0.07    0.13 
  10  -2  -7    1.18    0.22 
  10  -2  -7    1.02    0.19 
  10  -1  -7    0.59    0.16 
  10  -1  -7    0.46    0.17 
  10   0  -7   -0.04    0.12 
  10   0  -7   -0.07    0.10 
 -10  -1   7    0.43    0.10 
  10   1  -7    0.45    0.17 
 -10  -2   7    1.18    0.16 
  10   2  -7    0.81    0.22 
 -10  -3   7    0.04    0.06 
  10   3  -7   -0.02    0.14 
 -10  -4   7    0.09    0.07 
  10   4  -7    0.22    0.16 
 -10  -5   7    1.02    0.16 
 -10  -6   7    0.03    0.07 
 -10  -7   7    0.02    0.07 
 -10  -8   7    0.13    0.09 
 -10  -9   7    0.14    0.10 
 -10 -10   7   -0.07    0.09 
 -10 -11   7    0.06    0.10 
 -10 -12   7   -0.06    0.12 
 -10 -13   7   -0.08    0.14 
 -10 -14   7   -0.02    0.16 
  10 -14  -6    0.25    0.21 
  10 -13  -6    0.02    0.19 
  10 -12  -6    0.00    0.17 
  10 -11  -6    0.09    0.16 
  10 -10  -6    0.10    0.15 
  10  -9  -6    0.06    0.14 
  10  -8  -6   -0.04    0.12 
  10  -7  -6    0.20    0.14 
  10  -6  -6    2.67    0.27 
  10  -6  -6    2.82    0.28 
  10  -5  -6    0.05    0.13 
  10  -5  -6   -0.07    0.11 
  10  -4  -6    0.18    0.11 
  10  -4  -6    0.02    0.12 
  10  -3  -6    3.33    0.31 
  10  -3  -6    3.18    0.30 
  10  -2  -6    0.77    0.17 
  10  -2  -6    0.92    0.20 
  10  -1  -6   -0.07    0.11 
  10  -1  -6    0.11    0.11 
  10   0  -6   -0.01    0.10 
  10   0  -6    0.01    0.11 
  10   1  -6    0.11    0.11 
  10   1  -6    0.12    0.13 
  10   2  -6    0.74    0.19 
  10   2  -6    0.78    0.19 
 -10  -3   6    2.62    0.22 
  10   3  -6    3.13    0.35 
 -10  -4   6    0.16    0.08 
  10   4  -6    0.08    0.15 
 -10  -5   6    0.06    0.07 
 -10  -6   6    2.88    0.24 
 -10  -7   6    0.16    0.09 
 -10  -8   6   -0.02    0.07 
 -10  -9   6   -0.06    0.08 
 -10 -10   6    0.48    0.14 
 -10 -11   6    0.18    0.12 
 -10 -12   6    0.01    0.11 
 -10 -13   6    0.02    0.13 
 -10 -14   6    0.11    0.17 
  10 -15  -5   -0.12    0.21 
  10 -14  -5   -0.01    0.19 
  10 -13  -5    0.12    0.19 
  10 -12  -5    1.37    0.25 
  10 -11  -5    0.03    0.14 
  10 -10  -5    0.14    0.15 
  10  -9  -5    0.42    0.16 
  10  -8  -5    1.09    0.19 
  10  -7  -5    0.09    0.12 
  10  -7  -5    0.07    0.11 
  10  -6  -5   -0.05    0.11 
  10  -6  -5    0.08    0.12 
  10  -5  -5   -0.12    0.11 
  10  -5  -5    0.09    0.11 
  10  -4  -5    1.17    0.18 
  10  -4  -5    0.89    0.18 
  10  -3  -5    5.60    0.38 
  10  -3  -5    5.67    0.39 
  10  -2  -5    5.53    0.38 
  10  -2  -5    4.72    0.36 
  10  -1  -5   -0.04    0.11 
  10  -1  -5   -0.04    0.10 
  10   0  -5   -0.06    0.09 
  10   0  -5   -0.05    0.10 
  10   1  -5    0.01    0.10 
  10   1  -5    0.03    0.11 
  10   2  -5    5.09    0.40 
  10   2  -5    5.71    0.43 
  10   3  -5    6.08    0.44 
  10   3  -5    4.76    0.40 
  10   4  -5    1.53    0.26 
 -10  -5   5    0.04    0.07 
 -10  -6   5   -0.03    0.07 
 -10  -7   5   -0.04    0.07 
 -10  -8   5    1.40    0.20 
 -10  -9   5    0.42    0.13 
 -10 -10   5   -0.01    0.08 
 -10 -11   5   -0.03    0.09 
 -10 -12   5    1.55    0.23 
 -10 -13   5    0.16    0.13 
 -10 -14   5    0.01    0.14 
 -10 -15   5    0.11    0.18 
  10 -15  -4    0.13    0.21 
  10 -14  -4    0.46    0.22 
  10 -13  -4   -0.09    0.17 
  10 -12  -4    0.05    0.16 
  10 -11  -4   -0.06    0.14 
  10 -10  -4    0.23    0.15 
  10  -9  -4    0.00    0.12 
  10  -8  -4    1.00    0.18 
  10  -7  -4    0.11    0.11 
  10  -7  -4    0.01    0.10 
  10  -6  -4   13.34    0.69 
  10  -6  -4   12.51    0.68 
  10  -5  -4    1.99    0.22 
  10  -5  -4    2.20    0.24 
  10  -4  -4    2.78    0.24 
  10  -4  -4    3.24    0.27 
  10  -3  -4    1.42    0.19 
  10  -3  -4    1.19    0.19 
  10  -2  -4    3.56    0.29 
  10  -2  -4    3.17    0.28 
  10  -1  -4   -0.01    0.10 
  10  -1  -4    0.03    0.10 
  10   0  -4    1.99    0.26 
  10   0  -4    1.85    0.24 
  10   1  -4    0.22    0.12 
  10   1  -4    0.14    0.11 
  10   2  -4    3.03    0.33 
  10   2  -4    3.86    0.34 
  10   3  -4    1.25    0.22 
  10   3  -4    1.26    0.22 
  10   4  -4    3.66    0.38 
  10   5  -4    1.93    0.28 
 -10  -6   4   14.00    0.73 
 -10  -7   4    0.05    0.08 
 -10  -8   4    1.21    0.18 
 -10  -9   4    0.05    0.09 
 -10 -10   4    0.48    0.13 
 -10 -11   4    0.03    0.09 
 -10 -12   4    0.04    0.09 
 -10 -13   4    0.04    0.12 
 -10 -14   4    0.61    0.18 
 -10 -15   4   -0.05    0.18 
  10 -15  -3    0.18    0.21 
  10 -14  -3   -0.03    0.18 
  10 -13  -3   -0.07    0.15 
  10 -12  -3    0.11    0.15 
  10 -11  -3   -0.10    0.12 
  10 -10  -3    0.07    0.13 
  10  -9  -3    1.05    0.18 
  10  -8  -3    0.67    0.15 
  10  -8  -3    0.44    0.15 
  10  -7  -3    0.48    0.15 
  10  -7  -3    0.61    0.14 
  10  -6  -3    0.07    0.10 
  10  -6  -3    0.14    0.11 
  10  -5  -3    0.03    0.09 
  10  -5  -3    0.06    0.11 
  10  -4  -3    3.40    0.28 
  10  -4  -3    3.08    0.24 
  10  -3  -3    0.00    0.08 
  10  -3  -3    0.08    0.10 
  10  -2  -3    0.09    0.11 
  10  -2  -3    0.05    0.09 
  10  -1  -3    4.68    0.35 
  10  -1  -3    5.50    0.38 
  10   0  -3    0.02    0.09 
  10   0  -3   -0.14    0.09 
  10   1  -3    5.85    0.40 
  10   1  -3    5.23    0.39 
  10   2  -3    0.05    0.11 
  10   2  -3   -0.02    0.10 
  10   3  -3   -0.07    0.10 
  10   3  -3    0.11    0.12 
  10   4  -3    3.47    0.36 
  10   5  -3    0.09    0.13 
  10   6  -3   -0.11    0.12 
 -10  -7   3    0.73    0.14 
 -10  -8   3    0.56    0.14 
 -10  -9   3    1.28    0.19 
 -10 -10   3   -0.07    0.08 
 -10 -11   3    0.10    0.10 
 -10 -12   3    0.29    0.12 
 -10 -13   3   -0.06    0.10 
 -10 -14   3    0.04    0.12 
  10 -15  -2   -0.20    0.19 
  10 -14  -2   -0.07    0.18 
  10 -13  -2   -0.08    0.15 
  10 -12  -2   -0.03    0.14 
  10 -11  -2    0.10    0.13 
  10 -10  -2    0.11    0.12 
  10  -9  -2    0.22    0.13 
  10  -9  -2    0.19    0.14 
  10  -8  -2    0.27    0.12 
  10  -8  -2    0.31    0.13 
  10  -7  -2    0.89    0.16 
  10  -7  -2    1.10    0.18 
  10  -6  -2    0.11    0.10 
  10  -6  -2    0.29    0.12 
  10  -5  -2    0.03    0.09 
  10  -5  -2   -0.04    0.10 
  10  -4  -2    0.63    0.13 
  10  -4  -2    0.70    0.15 
  10  -3  -2    3.15    0.28 
  10  -3  -2    3.93    0.26 
  10  -2  -2    0.14    0.10 
  10  -1  -2    1.10    0.19 
  10  -1  -2    1.08    0.17 
  10   0  -2    4.46    0.33 
  10   0  -2    4.61    0.34 
  10   1  -2    1.06    0.19 
  10   1  -2    1.00    0.18 
  10   2  -2    0.20    0.12 
  10   2  -2    0.31    0.12 
  10   3  -2    4.37    0.34 
  10   3  -2    3.97    0.33 
  10   4  -2    0.47    0.15 
  10   5  -2    0.01    0.10 
  10   6  -2    0.01    0.12 
  10   7  -2    0.86    0.21 
 -10  -8   2    0.29    0.10 
 -10  -9   2    0.24    0.11 
 -10 -10   2    0.05    0.08 
 -10 -11   2    0.19    0.10 
 -10 -12   2    0.02    0.10 
 -10 -13   2    0.06    0.10 
 -10 -15   2    0.15    0.28 
  10 -15  -1   -0.24    0.19 
  10 -14  -1   -0.04    0.18 
  10 -13  -1    0.00    0.16 
  10 -12  -1    0.52    0.17 
  10 -11  -1   -0.07    0.13 
  10 -10  -1    0.38    0.14 
  10 -10  -1    0.53    0.17 
  10  -9  -1    1.80    0.20 
  10  -9  -1    1.98    0.23 
  10  -8  -1    0.14    0.11 
  10  -8  -1    0.21    0.12 
  10  -7  -1    0.89    0.16 
  10  -7  -1    0.88    0.15 
  10  -6  -1    0.28    0.12 
  10  -5  -1    0.20    0.10 
  10  -5  -1    0.39    0.11 
  10  -4  -1    0.15    0.10 
  10  -4  -1    0.50    0.11 
  10  -3  -1    2.59    0.21 
  10  -3  -1    2.81    0.26 
  10  -2  -1   16.75    0.89 
  10  -2  -1   18.14    0.87 
  10  -1  -1    3.19    0.30 
  10  -1  -1    3.44    0.26 
  10   0  -1    0.06    0.09 
  10   0  -1   -0.04    0.07 
  10   1  -1    3.26    0.31 
  10   1  -1    3.22    0.27 
  10   2  -1   18.65    0.95 
  10   2  -1   18.20    0.95 
  10   3  -1    3.30    0.28 
 -10  -4   1    0.12    0.06 
  10   4  -1    0.10    0.10 
  10   5  -1    0.10    0.11 
  10   6  -1   -0.07    0.10 
  10   7  -1    0.71    0.19 
  10   8  -1    0.04    0.14 
 -10  -9   1    1.94    0.22 
 -10 -10   1    0.55    0.13 
 -10 -11   1    0.09    0.10 
 -10 -12   1    0.85    0.17 
 -10 -13   1   -0.17    0.09 
 -10 -14   1    0.26    0.21 
 -10 -15   1    0.03    0.25 
  10 -15   0   -0.08    0.20 
  10 -14   0    0.33    0.21 
  10 -13   0   -0.04    0.15 
  10 -12   0    0.02    0.14 
  10 -11   0   -0.01    0.12 
  10 -10   0    0.10    0.11 
  10 -10   0    0.21    0.13 
  10  -9   0   -0.08    0.10 
  10  -9   0    0.12    0.11 
  10  -8   0    0.52    0.14 
  10  -8   0    0.42    0.12 
  10  -7   0    0.08    0.10 
  10  -7   0    0.19    0.10 
  10  -6   0   10.29    0.54 
  10  -6   0    8.86    0.50 
  10  -5   0   -0.03    0.07 
  10  -5   0    0.03    0.09 
  10  -4   0    8.27    0.48 
  10  -4   0    8.21    0.44 
  10  -3   0    0.11    0.09 
  10  -3   0    0.03    0.08 
  10  -2   0    0.85    0.16 
  10  -1   0   -0.05    0.07 
  10  -1   0    0.00    0.07 
  10   0   0    0.23    0.08 
  10   0   0    0.37    0.12 
  10   1   0    0.05    0.08 
  10   1   0    0.13    0.08 
  10   2   0    0.69    0.15 
  10   2   0    0.06    0.08 
 -10  -3   0    0.08    0.05 
  10   3   0    0.07    0.08 
 -10  -4   0    8.35    0.43 
  10   4   0    8.80    0.53 
 -10  -5   0    0.02    0.06 
  10   5   0   -0.07    0.09 
  10   6   0   10.88    0.66 
  10   7   0    0.03    0.12 
  10   8   0    0.55    0.19 
 -10 -10   0    0.43    0.12 
 -10 -11   0    0.24    0.10 
 -10 -12   0    0.12    0.10 
 -10 -13   0    0.05    0.17 
 -10 -14   0    0.47    0.23 
 -10 -15   0   -0.14    0.24 
  10 -15   1   -0.07    0.20 
  10 -14   1    0.17    0.19 
  10 -13   1   -0.14    0.14 
  10 -12   1    0.72    0.18 
  10 -11   1   -0.07    0.12 
  10 -11   1    0.03    0.12 
  10 -10   1    0.35    0.14 
  10 -10   1    0.43    0.13 
  10  -9   1    2.15    0.24 
  10  -9   1    1.77    0.20 
  10  -8   1    0.18    0.11 
  10  -8   1    0.12    0.10 
  10  -7   1    0.84    0.13 
  10  -7   1    0.70    0.15 
  10  -6   1    0.67    0.12 
  10  -6   1    0.11    0.09 
  10  -5   1    0.17    0.10 
  10  -5   1    0.17    0.09 
  10  -4   1    0.06    0.08 
  10  -4   1    0.17    0.06 
  10  -3   1    2.73    0.23 
  10  -3   1    2.66    0.20 
  10  -2   1   18.23    0.88 
  10  -2   1   16.76    0.84 
  10  -1   1    2.93    0.25 
  10  -1   1    2.99    0.23 
 -10   0  -1    0.01    0.06 
  10   0   1    0.09    0.08 
  10   0   1    0.06    0.07 
 -10  -1  -1    2.97    0.20 
  10   1   1    3.26    0.25 
  10   1   1    3.23    0.29 
 -10  -2  -1   16.45    0.79 
  10   2   1   17.01    0.87 
 -10  -3  -1    2.51    0.18 
  10   3   1    2.62    0.27 
 -10  -4  -1    0.19    0.07 
  10   4   1    0.12    0.08 
 -10  -5  -1    0.18    0.08 
  10   5   1    0.18    0.12 
  10   6   1   -0.03    0.11 
  10   7   1    0.67    0.19 
  10   8   1    0.11    0.15 
  10   9   1    2.01    0.30 
 -10 -10  -1    0.48    0.12 
 -10 -11  -1   -0.09    0.09 
 -10 -12  -1    1.06    0.18 
 -10 -12  -1    1.09    0.22 
 -10 -13  -1    0.05    0.17 
 -10 -14  -1    0.17    0.20 
 -10 -15  -1   -0.07    0.24 
  10 -15   2   -0.07    0.19 
  10 -14   2    0.13    0.18 
  10 -13   2   -0.09    0.15 
  10 -12   2    0.14    0.15 
  10 -12   2    0.07    0.14 
  10 -11   2    0.07    0.12 
  10 -11   2    0.03    0.12 
  10 -10   2   -0.07    0.10 
  10 -10   2   -0.11    0.10 
  10  -9   2    0.10    0.12 
  10  -9   2    0.23    0.12 
  10  -8   2    0.16    0.10 
  10  -8   2    0.25    0.11 
  10  -7   2    0.98    0.13 
  10  -7   2    0.91    0.16 
  10  -6   2    0.11    0.06 
  10  -6   2    0.15    0.10 
  10  -5   2    0.01    0.08 
  10  -5   2   -0.03    0.08 
  10  -4   2    0.64    0.10 
  10  -4   2    0.53    0.13 
  10  -3   2    3.44    0.27 
  10  -3   2    3.86    0.23 
  10  -2   2    0.25    0.09 
  10  -2   2    0.32    0.09 
 -10   1  -2    1.11    0.15 
  10  -1   2    1.02    0.14 
  10  -1   2    0.93    0.16 
 -10   0  -2    4.90    0.31 
  10   0   2    5.16    0.34 
  10   0   2    5.10    0.31 
 -10  -1  -2    0.87    0.12 
  10   1   2    0.76    0.15 
 -10  -2  -2    0.49    0.09 
  10   2   2    0.34    0.10 
 -10  -3  -2    3.65    0.24 
  10   3   2    4.02    0.30 
 -10  -4  -2    0.67    0.11 
  10   4   2    0.66    0.15 
 -10  -5  -2   -0.03    0.08 
  10   5   2    0.05    0.10 
 -10  -6  -2    0.13    0.09 
  10   6   2    0.03    0.11 
  10   7   2    1.07    0.21 
  10   8   2    0.19    0.15 
  10   9   2    0.32    0.16 
 -10 -11  -2    0.24    0.15 
 -10 -11  -2    0.17    0.10 
 -10 -12  -2    0.18    0.15 
 -10 -13  -2   -0.09    0.16 
 -10 -14  -2    0.16    0.19 
 -10 -15  -2   -0.33    0.23 
  10 -15   3    0.09    0.21 
  10 -14   3   -0.21    0.17 
  10 -13   3   -0.14    0.15 
  10 -12   3    0.46    0.16 
  10 -12   3    0.04    0.15 
  10 -11   3    0.09    0.12 
  10 -11   3   -0.04    0.13 
  10 -10   3    0.07    0.10 
  10 -10   3    0.06    0.11 
  10  -9   3    1.27    0.20 
  10  -9   3    1.18    0.16 
  10  -8   3    0.70    0.13 
  10  -8   3    0.80    0.16 
  10  -7   3    0.14    0.07 
  10  -7   3    0.54    0.13 
  10  -6   3    0.00    0.08 
  10  -6   3    0.02    0.08 
  10  -5   3    0.18    0.08 
  10  -5   3    0.12    0.09 
  10  -4   3    3.20    0.21 
  10  -4   3    2.79    0.27 
  10  -3   3   -0.04    0.07 
  10  -3   3    0.00    0.06 
  10  -2   3    0.13    0.09 
  10  -2   3    0.10    0.07 
 -10   1  -3    5.23    0.34 
  10  -1   3    4.83    0.34 
  10  -1   3    5.51    0.31 
 -10   0  -3   -0.08    0.08 
  10   0   3    0.06    0.07 
 -10  -1  -3    5.17    0.32 
  10   1   3    5.39    0.36 
 -10  -2  -3   -0.02    0.07 
  10   2   3    0.13    0.08 
 -10  -3  -3    0.04    0.08 
  10   3   3   -0.01    0.07 
 -10  -4  -3    2.79    0.21 
  10   4   3    3.01    0.29 
 -10  -5  -3    0.10    0.09 
  10   5   3    0.10    0.09 
 -10  -6  -3   -0.01    0.09 
  10   6   3    0.13    0.11 
 -10  -7  -3    0.62    0.14 
  10   7   3    0.47    0.17 
  10   8   3    0.76    0.20 
 -10  -9  -3    1.53    0.21 
  10   9   3    1.47    0.25 
 -10 -10  -3    0.13    0.13 
  10  10   3    0.07    0.17 
 -10 -11  -3   -0.06    0.13 
 -10 -12  -3    0.29    0.16 
 -10 -13  -3    0.01    0.16 
 -10 -14  -3   -0.05    0.18 
 -10 -15  -3   -0.09    0.25 
  10 -15   4   -0.36    0.20 
  10 -14   4    0.33    0.21 
  10 -13   4    0.03    0.15 
  10 -13   4   -0.02    0.15 
  10 -12   4    0.01    0.14 
  10 -12   4    0.01    0.13 
  10 -11   4   -0.02    0.11 
  10 -11   4   -0.15    0.12 
  10 -10   4    0.32    0.13 
  10 -10   4    0.25    0.13 
  10  -9   4   -0.13    0.09 
  10  -9   4    0.08    0.10 
  10  -8   4    1.02    0.17 
  10  -8   4    0.70    0.12 
  10  -7   4   -0.03    0.08 
  10  -7   4    0.11    0.09 
  10  -6   4   12.98    0.67 
  10  -6   4   11.96    0.61 
  10  -5   4    2.30    0.24 
  10  -5   4    1.89    0.16 
  10  -4   4    3.42    0.21 
  10  -4   4    3.18    0.26 
  10  -3   4    1.37    0.12 
  10  -3   4    1.16    0.18 
 -10   2  -4    3.45    0.28 
  10  -2   4    3.53    0.27 
 -10   1  -4    0.18    0.10 
  10  -1   4    0.07    0.07 
 -10   0  -4    2.08    0.21 
  10   0   4    2.11    0.23 
 -10  -1  -4   -0.05    0.08 
  10   1   4    0.06    0.08 
 -10  -2  -4    3.21    0.24 
  10   2   4    3.80    0.28 
 -10  -3  -4    1.47    0.17 
  10   3   4    1.70    0.22 
 -10  -4  -4    3.13    0.23 
  10   4   4    2.74    0.28 
 -10  -5  -4    2.30    0.21 
  10   5   4    1.78    0.23 
 -10  -6  -4   13.47    0.69 
  10   6   4   13.27    0.73 
 -10  -7  -4    0.04    0.11 
 -10  -7  -4    0.19    0.10 
  10   7   4    0.00    0.12 
 -10  -8  -4    1.60    0.19 
 -10  -8  -4    1.14    0.18 
  10   8   4    0.94    0.21 
 -10  -9  -4   -0.06    0.11 
 -10  -9  -4    0.10    0.11 
  10   9   4    0.16    0.15 
 -10 -10  -4    0.39    0.14 
  10  10   4    0.14    0.18 
 -10 -11  -4   -0.03    0.13 
 -10 -12  -4   -0.02    0.14 
 -10 -13  -4    0.19    0.17 
 -10 -14  -4    0.38    0.21 
 -10 -15  -4   -0.40    0.23 
  10 -13   5    0.34    0.17 
  10 -12   5    1.04    0.21 
  10 -12   5    1.41    0.22 
  10 -11   5    0.06    0.13 
  10 -11   5    0.21    0.13 
  10 -10   5    0.06    0.12 
  10 -10   5    0.17    0.12 
  10  -9   5    0.73    0.16 
  10  -9   5    0.29    0.12 
  10  -8   5    1.17    0.19 
  10  -8   5    1.20    0.14 
  10  -7   5    0.07    0.08 
  10  -7   5   -0.02    0.09 
  10  -6   5    0.01    0.08 
  10  -6   5    0.01    0.09 
  10  -5   5    0.11    0.07 
  10  -5   5    0.12    0.09 
  10  -4   5    0.93    0.16 
  10  -3   5    4.97    0.34 
 -10   2  -5    5.90    0.39 
  10  -2   5    4.80    0.34 
 -10   1  -5    0.00    0.10 
  10  -1   5   -0.02    0.07 
 -10   0  -5    0.07    0.09 
  10   0   5    0.02    0.07 
 -10  -1  -5    0.03    0.09 
  10   1   5   -0.03    0.06 
 -10  -2  -5    5.25    0.33 
  10   2   5    4.17    0.32 
 -10  -3  -5    6.06    0.36 
  10   3   5    5.36    0.38 
 -10  -4  -5    1.23    0.17 
 -10  -4  -5    1.06    0.12 
  10   4   5    1.17    0.20 
 -10  -5  -5    0.16    0.09 
 -10  -5  -5    0.09    0.10 
  10   5   5    0.12    0.11 
 -10  -6  -5    0.01    0.09 
 -10  -6  -5    0.18    0.10 
  10   6   5   -0.04    0.09 
 -10  -7  -5   -0.02    0.10 
 -10  -7  -5   -0.10    0.10 
  10   7   5    0.10    0.13 
 -10  -8  -5    1.42    0.19 
 -10  -8  -5    1.16    0.17 
  10   8   5    0.90    0.21 
 -10  -9  -5    0.53    0.13 
 -10  -9  -5    0.42    0.14 
  10   9   5    0.05    0.15 
 -10 -10  -5    0.27    0.13 
 -10 -10  -5    0.18    0.13 
 -10 -11  -5   -0.01    0.14 
 -10 -12  -5    1.50    0.23 
  10 -14   6    0.01    0.21 
  10 -13   6   -0.18    0.14 
  10 -12   6   -0.03    0.13 
  10 -11   6    0.14    0.13 
  10 -10   6    0.35    0.15 
  10  -9   6   -0.07    0.10 
  10  -8   6   -0.10    0.08 
  10  -7   6    0.09    0.11 
  10  -6   6    2.73    0.28 
  10  -5   6    0.11    0.10 
  10  -4   6    0.15    0.09 
  10  -3   6    2.94    0.28 
 -10   2  -6    0.78    0.18 
  10  -2   6    0.72    0.14 
 -10   1  -6    0.16    0.12 
  10  -1   6    0.13    0.08 
 -10   0  -6    0.20    0.12 
  10   0   6    0.10    0.09 
 -10  -1  -6   -0.05    0.10 
  10   1   6    0.02    0.07 
 -10  -2  -6    0.92    0.17 
  10   2   6    0.94    0.17 
 -10  -3  -6    3.20    0.26 
  10   3   6    3.16    0.30 
 -10  -4  -6    0.08    0.10 
  10   4   6    0.17    0.11 
 -10  -5  -6    0.21    0.12 
  10   5   6    0.20    0.11 
 -10  -6  -6    2.86    0.25 
  10   6   6    3.18    0.31 
 -10  -7  -6    0.04    0.11 
  10   7   6    0.55    0.17 
 -10  -8  -6   -0.01    0.10 
  10   8   6    0.11    0.14 
 -10  -9  -6    0.07    0.11 
 -10 -10  -6    0.55    0.15 
 -10 -11  -6    0.17    0.14 
 -10 -12  -6    0.03    0.14 
 -10 -13  -6    0.09    0.17 
  10 -14   7    0.25    0.23 
  10 -13   7   -0.11    0.17 
  10 -12   7    0.02    0.15 
  10 -11   7    0.04    0.13 
  10 -10   7   -0.04    0.11 
  10  -9   7   -0.05    0.10 
  10  -8   7    0.37    0.14 
  10  -7   7   -0.02    0.09 
  10  -6   7   -0.05    0.08 
  10  -5   7    0.71    0.15 
  10  -4   7    0.11    0.10 
  10  -3   7    0.06    0.08 
 -10   2  -7    1.63    0.25 
  10  -2   7    1.26    0.19 
 -10   1  -7    0.33    0.14 
  10  -1   7    0.54    0.13 
 -10   0  -7    0.05    0.11 
  10   0   7    0.05    0.08 
 -10  -1  -7    0.46    0.15 
  10   1   7    0.46    0.14 
 -10  -2  -7    1.18    0.19 
  10   2   7    1.41    0.21 
 -10  -3  -7   -0.10    0.10 
  10   3   7    0.03    0.10 
 -10  -4  -7    0.21    0.12 
  10   4   7    0.32    0.13 
 -10  -5  -7    0.40    0.14 
  10   5   7    0.90    0.18 
 -10  -6  -7    0.13    0.11 
  10   6   7    0.12    0.12 
 -10  -7  -7    0.00    0.10 
  10   7   7    0.00    0.11 
 -10  -8  -7    0.36    0.14 
  10   8   7    0.42    0.18 
 -10  -9  -7   -0.13    0.11 
 -10 -10  -7   -0.13    0.11 
 -10 -11  -7   -0.12    0.12 
 -10 -12  -7   -0.03    0.14 
 -10 -13  -7    0.11    0.19 
 -10 -14  -7   -0.21    0.22 
  10 -14   8    0.17    0.25 
  10 -13   8    0.03    0.20 
  10 -12   8   -0.14    0.15 
  10 -11   8    0.17    0.15 
  10 -10   8   -0.01    0.12 
  10  -9   8    0.02    0.11 
  10  -8   8    0.34    0.14 
  10  -7   8    0.08    0.10 
  10  -6   8    1.12    0.20 
  10  -5   8    2.47    0.27 
  10  -4   8    3.70    0.30 
 -10   3  -8    1.33    0.26 
  10  -3   8    1.33    0.20 
 -10   2  -8    0.26    0.16 
  10  -2   8    0.04    0.08 
 -10   1  -8    0.00    0.12 
  10  -1   8    0.05    0.08 
 -10   0  -8    2.51    0.29 
  10   0   8    2.30    0.27 
 -10  -1  -8   -0.03    0.11 
  10   1   8    0.03    0.09 
 -10  -2  -8    0.03    0.12 
  10   2   8    0.12    0.10 
 -10  -3  -8    1.39    0.22 
  10   3   8    1.31    0.22 
 -10  -4  -8    4.31    0.33 
  10   4   8    4.04    0.33 
 -10  -5  -8    2.97    0.30 
  10   5   8    3.43    0.32 
 -10  -6  -8    1.60    0.23 
  10   6   8    1.72    0.25 
 -10  -7  -8    0.09    0.12 
  10   7   8    0.04    0.14 
 -10  -8  -8    0.27    0.14 
 -10  -9  -8   -0.16    0.12 
 -10 -10  -8   -0.15    0.13 
 -10 -11  -8   -0.04    0.15 
 -10 -12  -8    0.03    0.18 
 -10 -13  -8   -0.01    0.21 
 -10 -14  -8   -0.14    0.24 
  10 -13   9    0.13    0.23 
  10 -12   9    0.64    0.23 
  10 -11   9   -0.10    0.15 
  10 -10   9    0.05    0.14 
  10  -9   9   -0.04    0.11 
  10  -8   9    0.28    0.13 
  10  -7   9    0.16    0.12 
  10  -6   9    0.12    0.11 
  10  -5   9    0.01    0.08 
  10  -4   9    0.03    0.09 
 -10   3  -9    2.04    0.30 
  10  -3   9    1.91    0.25 
 -10   2  -9    8.93    0.60 
  10  -2   9    8.69    0.53 
 -10   1  -9   -0.02    0.14 
  10  -1   9    0.03    0.09 
 -10   0  -9   -0.04    0.12 
  10   0   9    0.09    0.09 
 -10  -1  -9    0.00    0.13 
  10   1   9    0.10    0.10 
 -10  -2  -9    8.95    0.58 
  10   2   9    9.58    0.56 
 -10  -3  -9    2.62    0.29 
  10   3   9    2.39    0.28 
 -10  -4  -9    0.23    0.14 
  10   4   9    0.18    0.12 
 -10  -5  -9   -0.03    0.12 
  10   5   9    0.11    0.12 
 -10  -6  -9    0.04    0.13 
  10   6   9    0.33    0.15 
 -10  -7  -9    0.10    0.14 
 -10  -8  -9    0.33    0.15 
 -10  -9  -9    0.13    0.15 
 -10 -10  -9    0.03    0.15 
 -10 -11  -9   -0.23    0.16 
 -10 -12  -9    0.39    0.24 
 -10 -13  -9   -0.20    0.24 
  10 -12  10   -0.01    0.22 
  10 -11  10   -0.08    0.18 
  10 -10  10    0.11    0.16 
  10  -9  10    0.06    0.14 
  10  -8  10    0.06    0.11 
  10  -7  10   -0.06    0.11 
  10  -6  10    0.90    0.19 
  10  -5  10    0.30    0.12 
  10  -4  10    1.89    0.25 
 -10   3 -10   -0.04    0.14 
  10  -3  10    0.08    0.10 
 -10   2 -10    0.20    0.16 
  10  -2  10    0.19    0.12 
 -10   1 -10    0.02    0.14 
  10  -1  10    0.17    0.11 
 -10   0 -10    2.97    0.34 
  10   0  10    2.88    0.30 
 -10  -1 -10   -0.04    0.13 
  10   1  10    0.01    0.10 
 -10  -2 -10    0.20    0.15 
  10   2  10    0.20    0.12 
 -10  -3 -10    0.33    0.15 
  10   3  10    0.22    0.14 
 -10  -4 -10    2.05    0.27 
  10   4  10    2.26    0.28 
 -10  -5 -10    0.24    0.15 
  10   5  10    0.27    0.14 
 -10  -6 -10    1.07    0.21 
 -10  -7 -10    0.04    0.12 
 -10  -8 -10    0.03    0.13 
 -10  -9 -10   -0.13    0.14 
 -10 -10 -10    0.08    0.18 
 -10 -11 -10    0.02    0.20 
 -10 -12 -10    0.11    0.25 
  10 -12  11    0.03    0.24 
  10 -11  11   -0.03    0.21 
  10 -10  11   -0.08    0.17 
  10  -9  11   -0.03    0.14 
  10  -8  11    0.23    0.16 
  10  -7  11    0.09    0.13 
  10  -6  11    0.17    0.13 
  10  -5  11    0.09    0.11 
  10  -4  11    0.03    0.10 
 -10   3 -11    0.07    0.16 
  10  -3  11    0.03    0.11 
 -10   2 -11    0.66    0.22 
  10  -2  11    0.41    0.13 
 -10   1 -11    0.14    0.17 
  10  -1  11    0.57    0.15 
 -10   0 -11   -0.11    0.14 
  10   0  11    0.07    0.10 
 -10  -1 -11    0.23    0.16 
  10   1  11    0.40    0.15 
 -10  -2 -11    0.58    0.19 
  10   2  11    0.46    0.15 
 -10  -3 -11    0.08    0.14 
  10   3  11   -0.10    0.11 
 -10  -4 -11    0.11    0.14 
  10   4  11    0.09    0.13 
 -10  -5 -11   -0.12    0.15 
  10   5  11   -0.03    0.15 
 -10  -6 -11   -0.10    0.13 
 -10  -7 -11   -0.18    0.13 
 -10  -8 -11    0.35    0.18 
 -10  -9 -11    0.10    0.20 
 -10 -10 -11    0.00    0.20 
 -10 -11 -11   -0.15    0.24 
 -10 -12 -11   -0.21    0.26 
  10 -11  12   -0.09    0.22 
  10 -10  12   -0.08    0.21 
  10  -9  12   -0.02    0.18 
  10  -8  12   -0.04    0.15 
  10  -7  12   -0.05    0.13 
  10  -6  12    0.45    0.18 
  10  -5  12    0.11    0.13 
  10  -4  12    0.23    0.14 
 -10   3 -12   -0.05    0.16 
  10  -3  12    0.11    0.13 
 -10   2 -12   -0.05    0.16 
  10  -2  12    0.21    0.13 
 -10   1 -12   -0.01    0.14 
  10  -1  12    0.09    0.12 
 -10   0 -12    0.09    0.15 
  10   0  12    0.06    0.12 
 -10  -1 -12    0.04    0.15 
  10   1  12    0.11    0.13 
 -10  -2 -12   -0.16    0.13 
  10   2  12    0.12    0.13 
 -10  -3 -12   -0.07    0.16 
  10   3  12   -0.05    0.14 
 -10  -4 -12    0.57    0.19 
  10   4  12    0.44    0.18 
 -10  -5 -12    0.32    0.17 
 -10  -6 -12    0.31    0.19 
 -10  -7 -12   -0.02    0.19 
 -10  -8 -12    0.06    0.20 
 -10  -9 -12   -0.01    0.22 
 -10 -10 -12    0.04    0.25 
 -10 -11 -12   -0.05    0.28 
  10 -10  13    0.17    0.25 
  10  -9  13    0.08    0.23 
  10  -8  13    0.36    0.21 
  10  -7  13    0.84    0.22 
  10  -6  13   -0.07    0.13 
  10  -5  13    0.03    0.16 
  10  -4  13    0.05    0.14 
 -10   3 -13    0.67    0.26 
  10  -3  13    0.57    0.18 
 -10   2 -13    1.29    0.30 
  10  -2  13    1.20    0.22 
 -10   1 -13    0.04    0.19 
  10  -1  13    0.02    0.13 
 -10   0 -13   -0.11    0.19 
  10   0  13    0.01    0.14 
 -10  -1 -13   -0.11    0.19 
  10   1  13    0.02    0.13 
 -10  -2 -13    1.12    0.29 
  10   2  13    1.48    0.25 
 -10  -3 -13    0.53    0.23 
  10   3  13    0.64    0.20 
 -10  -4 -13    0.05    0.20 
 -10  -5 -13    0.32    0.21 
 -10  -6 -13    0.14    0.21 
 -10  -7 -13    0.60    0.26 
 -10  -8 -13    0.28    0.27 
 -10  -9 -13   -0.09    0.27 
 -10 -10 -13    0.12    0.30 
  10  -9  14   -0.14    0.23 
  10  -8  14    0.00    0.17 
  10  -7  14    0.09    0.16 
  10  -6  14    0.96    0.24 
  10  -5  14   -0.23    0.13 
  10  -4  14    0.74    0.21 
 -10   3 -14    0.37    0.25 
  10  -3  14   -0.10    0.14 
 -10   2 -14   -0.03    0.20 
  10  -2  14    0.07    0.15 
 -10   1 -14    0.00    0.20 
  10  -1  14    0.16    0.14 
 -10   0 -14    0.42    0.24 
  10   0  14    0.62    0.19 
 -10  -1 -14    0.05    0.20 
  10   1  14    0.19    0.16 
 -10  -2 -14    0.12    0.22 
  10   2  14    0.29    0.16 
 -10  -3 -14    0.13    0.23 
 -10  -4 -14    0.84    0.29 
 -10  -5 -14    0.09    0.25 
 -10  -6 -14    0.66    0.30 
 -10  -7 -14   -0.15    0.28 
 -10  -8 -14    0.21    0.31 
 -10  -9 -14    0.01    0.32 
  10  -7  15    0.21    0.19 
  10  -6  15    0.01    0.17 
  10  -5  15   -0.08    0.16 
  10  -4  15    0.08    0.17 
  10  -3  15    0.19    0.18 
 -10   2 -15    0.44    0.30 
  10  -2  15    0.46    0.19 
 -10   1 -15    0.26    0.26 
  10  -1  15    0.02    0.15 
 -10   0 -15    0.28    0.26 
  10   0  15    0.06    0.15 
 -10  -1 -15    0.13    0.24 
  10   1  15   -0.12    0.15 
 -10  -2 -15    0.48    0.27 
  10   2  15    0.64    0.24 
 -10  -3 -15    0.22    0.26 
 -10  -4 -15   -0.14    0.27 
 -10  -5 -15   -0.09    0.30 
 -10  -6 -15   -0.14    0.32 
 -10  -7 -15   -0.15    0.31 
  10  -5  16   -0.09    0.18 
  10  -4  16   -0.01    0.17 
  10  -3  16   -0.05    0.17 
 -10   2 -16    0.17    0.34 
  10  -2  16    0.08    0.18 
 -10   1 -16    0.07    0.34 
  10  -1  16   -0.03    0.17 
 -10   0 -16    0.05    0.31 
  10   0  16   -0.21    0.17 
 -10  -1 -16    0.25    0.33 
  10   1  16    0.18    0.21 
 -10  -2 -16   -0.13    0.32 
 -10  -3 -16    0.14    0.33 
 -10  -4 -16    0.09    0.34 
 -10  -5 -16    0.17    0.35 
 -10   1 -17    0.22    0.35 
  10  -1  17   -0.01    0.21 
 -10   0 -17    0.10    0.35 
  10   0  17    0.05    0.22 
 -10  -1 -17   -0.02    0.34 
  11  -4 -16   -0.01    0.41 
  11  -3 -16    0.32    0.41 
  11  -2 -16   -0.06    0.38 
  11  -1 -16    0.07    0.37 
  11   0 -16    0.31    0.38 
  11   1 -16    0.03    0.37 
 -11  -2  16    0.01    0.12 
  11   2 -16    0.05    0.38 
 -11  -3  16    0.14    0.14 
  11   3 -16    0.07    0.39 
  11  -6 -15    0.48    0.41 
  11  -5 -15    0.03    0.37 
  11  -4 -15    0.40    0.37 
  11  -3 -15   -0.17    0.31 
  11  -2 -15    0.02    0.33 
  11  -1 -15   -0.08    0.28 
  11   0 -15    0.05    0.27 
 -11  -1  15    0.01    0.11 
  11   1 -15    0.02    0.29 
 -11  -2  15    0.05    0.11 
  11   2 -15    0.00    0.30 
 -11  -3  15   -0.08    0.11 
  11   3 -15   -0.35    0.28 
 -11  -4  15   -0.08    0.11 
 -11  -5  15    0.15    0.13 
 -11  -6  15    0.01    0.13 
  11  -8 -14    0.17    0.36 
  11  -7 -14   -0.07    0.35 
  11  -6 -14    0.05    0.33 
  11  -5 -14    0.12    0.30 
  11  -4 -14   -0.01    0.26 
  11  -3 -14    0.05    0.26 
  11  -2 -14    0.31    0.25 
  11  -1 -14    0.05    0.21 
 -11   0  14   -0.09    0.10 
  11   0 -14    0.05    0.21 
 -11  -1  14   -0.02    0.09 
  11   1 -14   -0.09    0.21 
 -11  -2  14    0.14    0.11 
  11   2 -14    0.40    0.26 
 -11  -3  14    0.18    0.12 
  11   3 -14    0.40    0.27 
 -11  -4  14   -0.16    0.10 
 -11  -5  14    0.15    0.13 
 -11  -6  14    0.00    0.12 
 -11  -7  14   -0.08    0.13 
 -11  -8  14    0.04    0.15 
  11  -9 -13    0.21    0.33 
  11  -8 -13    0.05    0.30 
  11  -7 -13    0.36    0.30 
  11  -6 -13    0.33    0.28 
  11  -5 -13   -0.07    0.24 
  11  -4 -13    0.54    0.27 
  11  -3 -13    0.31    0.24 
  11  -2 -13    0.17    0.21 
 -11   1  13    0.08    0.09 
  11  -1 -13   -0.04    0.19 
 -11   0  13    0.07    0.08 
  11   0 -13   -0.04    0.18 
 -11  -1  13    0.02    0.09 
  11   1 -13    0.09    0.20 
 -11  -2  13    0.04    0.09 
  11   2 -13    0.19    0.21 
 -11  -3  13    0.20    0.12 
  11   3 -13    0.14    0.22 
 -11  -4  13    0.64    0.15 
  11   4 -13    0.32    0.28 
 -11  -5  13    0.13    0.12 
 -11  -6  13    0.42    0.15 
 -11  -7  13   -0.04    0.12 
 -11  -8  13   -0.03    0.13 
 -11  -9  13   -0.03    0.13 
  11 -10 -12   -0.27    0.27 
  11  -9 -12   -0.01    0.27 
  11  -8 -12    0.31    0.27 
  11  -7 -12    0.37    0.25 
  11  -6 -12    0.73    0.26 
  11  -5 -12    0.26    0.21 
  11  -4 -12    0.34    0.21 
  11  -3 -12    0.28    0.20 
 -11   2  12    0.56    0.12 
  11  -2 -12    0.42    0.21 
 -11   1  12   -0.03    0.08 
  11  -1 -12   -0.03    0.17 
 -11   0  12    0.39    0.10 
  11   0 -12    0.47    0.21 
 -11  -1  12    0.09    0.08 
  11   1 -12   -0.12    0.16 
 -11  -2  12    0.69    0.15 
  11   2 -12    0.75    0.24 
 -11  -3  12    0.07    0.09 
  11   3 -12   -0.09    0.19 
 -11  -4  12    0.37    0.12 
  11   4 -12    0.13    0.21 
 -11  -5  12    0.35    0.12 
 -11  -6  12    0.50    0.15 
 -11  -7  12    0.28    0.13 
 -11  -8  12    0.13    0.13 
 -11  -9  12   -0.01    0.12 
 -11 -10  12   -0.07    0.17 
  11 -11 -11   -0.01    0.27 
  11 -10 -11   -0.02    0.25 
  11  -9 -11    0.05    0.22 
  11  -8 -11    0.45    0.23 
  11  -7 -11    0.00    0.18 
  11  -6 -11    0.49    0.22 
  11  -5 -11    0.03    0.16 
  11  -4 -11    0.69    0.23 
  11  -3 -11   -0.10    0.14 
 -11   2  11    0.72    0.12 
  11  -2 -11    0.40    0.19 
 -11   1  11    0.06    0.07 
  11  -1 -11    0.04    0.15 
 -11   0  11    0.02    0.08 
  11   0 -11    0.19    0.17 
 -11  -1  11   -0.08    0.07 
  11   1 -11   -0.08    0.15 
 -11  -2  11    0.71    0.14 
  11   2 -11    0.40    0.20 
 -11  -3  11    0.04    0.08 
  11   3 -11    0.01    0.15 
 -11  -4  11    0.62    0.14 
  11   4 -11    0.80    0.26 
 -11  -5  11   -0.09    0.09 
 -11  -6  11    0.32    0.13 
 -11  -7  11    0.03    0.11 
 -11  -8  11    0.21    0.13 
 -11  -9  11    0.02    0.14 
 -11 -10  11   -0.01    0.16 
 -11 -11  11    0.08    0.18 
  11 -12 -10    0.06    0.23 
  11 -11 -10    0.29    0.22 
  11 -10 -10   -0.08    0.20 
  11  -9 -10    0.12    0.20 
  11  -8 -10    0.00    0.19 
  11  -7 -10   -0.09    0.18 
  11  -6 -10    0.50    0.21 
  11  -5 -10    0.16    0.18 
  11  -4 -10    0.34    0.20 
 -11   3  10    0.40    0.09 
  11  -3 -10    0.29    0.20 
 -11   2  10    0.02    0.07 
  11  -2 -10    0.12    0.17 
 -11   1  10   -0.04    0.07 
  11  -1 -10   -0.05    0.16 
 -11   0  10    0.00    0.08 
  11   0 -10    0.12    0.18 
 -11  -1  10    0.09    0.08 
  11   1 -10   -0.15    0.16 
 -11  -2  10   -0.04    0.07 
  11   2 -10    0.05    0.18 
 -11  -3  10    0.45    0.13 
  11   3 -10    0.24    0.21 
 -11  -4  10    0.46    0.13 
  11   4 -10    0.10    0.20 
 -11  -5  10    0.02    0.08 
 -11  -6  10    0.14    0.10 
 -11  -7  10   -0.03    0.09 
 -11  -8  10    0.08    0.10 
 -11  -9  10    0.00    0.12 
 -11 -10  10   -0.02    0.13 
 -11 -11  10   -0.10    0.16 
 -11 -12  10    0.15    0.19 
  11 -12  -9   -0.03    0.21 
  11 -11  -9    0.18    0.22 
  11 -10  -9    0.20    0.20 
  11  -9  -9   -0.07    0.19 
  11  -8  -9    0.02    0.18 
  11  -7  -9    0.07    0.17 
  11  -6  -9   -0.18    0.15 
  11  -5  -9   -0.04    0.16 
 -11   4   9   -0.03    0.08 
  11  -4  -9   -0.01    0.15 
 -11   3   9    0.89    0.14 
  11  -3  -9    0.51    0.20 
 -11   2   9    0.95    0.15 
  11  -2  -9    0.61    0.22 
 -11   1   9    0.07    0.08 
  11  -1  -9   -0.11    0.16 
 -11   0   9   -0.01    0.07 
  11   0  -9    0.06    0.17 
 -11  -1   9    0.01    0.07 
  11   1  -9   -0.25    0.14 
 -11  -2   9    0.80    0.14 
  11   2  -9    0.80    0.24 
 -11  -3   9    0.86    0.15 
  11   3  -9    0.90    0.26 
 -11  -4   9   -0.04    0.07 
  11   4  -9   -0.02    0.17 
 -11  -5   9    0.15    0.09 
 -11  -6   9   -0.01    0.08 
 -11  -7   9    0.01    0.09 
 -11  -8   9    0.11    0.10 
 -11  -9   9   -0.05    0.10 
 -11 -10   9    0.11    0.13 
 -11 -11   9   -0.16    0.13 
 -11 -12   9   -0.02    0.17 
  11 -13  -8   -0.07    0.21 
  11 -12  -8    0.08    0.20 
  11 -11  -8   -0.02    0.19 
  11 -10  -8    0.64    0.23 
  11  -9  -8    0.07    0.17 
  11  -8  -8   -0.01    0.16 
  11  -7  -8    0.32    0.18 
  11  -6  -8    0.22    0.16 
  11  -5  -8    1.75    0.27 
  11  -5  -8    1.84    0.25 
  11  -4  -8    1.95    0.27 
  11  -4  -8    1.86    0.28 
  11  -3  -8    1.10    0.21 
  11  -3  -8    0.58    0.20 
  11  -2  -8    0.36    0.20 
 -11   1   8    0.11    0.08 
  11  -1  -8   -0.01    0.16 
 -11   0   8    3.38    0.25 
  11   0  -8    2.83    0.36 
 -11  -1   8    0.06    0.07 
  11   1  -8    0.06    0.16 
 -11  -2   8    0.87    0.15 
  11   2  -8    0.54    0.21 
 -11  -3   8    1.03    0.16 
  11   3  -8    0.88    0.25 
 -11  -4   8    2.10    0.23 
  11   4  -8    2.06    0.35 
 -11  -5   8    2.11    0.24 
 -11  -6   8    0.15    0.09 
 -11  -7   8    0.27    0.11 
 -11  -8   8   -0.07    0.08 
 -11  -9   8    0.12    0.10 
 -11 -10   8    0.39    0.15 
 -11 -11   8    0.07    0.13 
 -11 -12   8    0.00    0.15 
 -11 -13   8   -0.10    0.17 
  11 -13  -7   -0.02    0.21 
  11 -12  -7    0.31    0.22 
  11 -11  -7    0.08    0.18 
  11 -10  -7    0.13    0.17 
  11  -9  -7    0.03    0.15 
  11  -8  -7    2.34    0.28 
  11  -7  -7    0.13    0.16 
  11  -6  -7    0.33    0.15 
  11  -5  -7    0.37    0.15 
  11  -5  -7    0.29    0.16 
  11  -4  -7   -0.05    0.14 
  11  -4  -7    0.21    0.12 
  11  -3  -7    0.08    0.16 
  11  -3  -7   -0.04    0.11 
  11  -2  -7    6.88    0.50 
  11  -2  -7    7.31    0.48 
  11  -1  -7    0.99    0.23 
  11  -1  -7    1.13    0.20 
  11   0  -7    0.05    0.12 
  11   0  -7   -0.35    0.12 
  11   1  -7    1.05    0.24 
  11   1  -7    0.91    0.22 
 -11  -2   7    8.15    0.46 
  11   2  -7    7.86    0.57 
 -11  -3   7    0.14    0.08 
  11   3  -7    0.01    0.15 
 -11  -4   7    0.11    0.08 
  11   4  -7    0.17    0.16 
 -11  -5   7    0.16    0.09 
 -11  -6   7    0.37    0.12 
 -11  -7   7    0.00    0.08 
 -11  -8   7    2.61    0.27 
 -11  -9   7   -0.01    0.09 
 -11 -10   7    0.10    0.11 
 -11 -11   7   -0.05    0.11 
 -11 -12   7    0.18    0.15 
 -11 -13   7    0.07    0.17 
  11 -14  -6    0.29    0.22 
  11 -13  -6    0.03    0.19 
  11 -12  -6   -0.13    0.17 
  11 -11  -6   -0.01    0.18 
  11 -10  -6    0.31    0.18 
  11  -9  -6    0.28    0.16 
  11  -8  -6    0.28    0.16 
  11  -7  -6    0.49    0.18 
  11  -6  -6    1.06    0.20 
  11  -6  -6    0.75    0.19 
  11  -5  -6    0.23    0.15 
  11  -5  -6    0.09    0.12 
  11  -4  -6    1.59    0.24 
  11  -4  -6    1.68    0.24 
  11  -3  -6   -0.08    0.10 
  11  -3  -6   -0.09    0.13 
  11  -2  -6    0.27    0.16 
  11  -2  -6    0.12    0.13 
  11  -1  -6    0.06    0.11 
  11  -1  -6   -0.06    0.13 
  11   0  -6    2.74    0.32 
  11   0  -6    2.47    0.30 
  11   1  -6    0.01    0.14 
  11   1  -6    0.01    0.12 
  11   2  -6    0.32    0.16 
  11   2  -6    0.05    0.14 
  11   3  -6   -0.11    0.11 
  11   3  -6   -0.04    0.12 
 -11  -4   6    1.87    0.21 
  11   4  -6    1.79    0.31 
 -11  -5   6    0.08    0.09 
 -11  -6   6    0.78    0.16 
 -11  -7   6    0.66    0.15 
 -11  -8   6    0.18    0.10 
 -11  -9   6    0.34    0.12 
 -11 -10   6    0.45    0.14 
 -11 -11   6   -0.01    0.10 
 -11 -12   6   -0.05    0.12 
 -11 -13   6   -0.04    0.15 
 -11 -14   6    0.04    0.18 
  11 -14  -5   -0.02    0.19 
  11 -13  -5   -0.01    0.19 
  11 -12  -5    0.02    0.17 
  11 -11  -5    0.02    0.16 
  11 -10  -5    0.31    0.16 
  11  -9  -5   -0.06    0.14 
  11  -8  -5    0.95    0.19 
  11  -7  -5    0.12    0.14 
  11  -7  -5    0.08    0.13 
  11  -6  -5    0.02    0.12 
  11  -6  -5    0.01    0.13 
  11  -5  -5    0.23    0.13 
  11  -5  -5    0.27    0.13 
  11  -4  -5    0.16    0.14 
  11  -4  -5    0.05    0.11 
  11  -3  -5    0.41    0.15 
  11  -3  -5    0.31    0.16 
  11  -2  -5   -0.05    0.11 
  11  -2  -5   -0.07    0.12 
  11  -1  -5    1.50    0.24 
  11  -1  -5    1.27    0.23 
  11   0  -5   -0.08    0.12 
  11   0  -5    0.06    0.11 
  11   1  -5    1.61    0.25 
  11   1  -5    1.27    0.22 
  11   2  -5   -0.06    0.11 
  11   2  -5    0.07    0.13 
  11   3  -5    0.20    0.17 
  11   3  -5    0.28    0.15 
  11   4  -5    0.27    0.16 
 -11  -5   5    0.17    0.10 
 -11  -6   5    0.00    0.08 
 -11  -7   5    0.02    0.08 
 -11  -8   5    0.82    0.16 
 -11  -9   5   -0.08    0.08 
 -11 -10   5    0.16    0.11 
 -11 -11   5    0.00    0.10 
 -11 -12   5   -0.05    0.12 
 -11 -13   5   -0.05    0.13 
 -11 -14   5   -0.03    0.16 
  11 -14  -4    0.33    0.21 
  11 -13  -4    0.01    0.18 
  11 -12  -4    0.03    0.17 
  11 -11  -4    0.13    0.16 
  11 -10  -4    0.01    0.13 
  11  -9  -4    0.09    0.13 
  11  -8  -4    0.25    0.14 
  11  -7  -4    3.90    0.34 
  11  -7  -4    3.43    0.29 
  11  -6  -4    0.01    0.12 
  11  -6  -4    0.03    0.11 
  11  -5  -4    3.54    0.29 
  11  -5  -4    3.69    0.31 
  11  -4  -4    3.53    0.33 
  11  -4  -4    3.17    0.28 
  11  -3  -4    0.64    0.17 
  11  -3  -4    0.74    0.17 
  11  -2  -4    1.54    0.22 
  11  -2  -4    1.39    0.22 
  11  -1  -4   -0.05    0.12 
  11  -1  -4    0.04    0.11 
  11   0  -4    1.63    0.24 
  11   0  -4    1.74    0.25 
  11   1  -4   -0.05    0.11 
  11   1  -4    0.01    0.10 
  11   2  -4    1.38    0.24 
  11   2  -4    1.67    0.26 
  11   3  -4    0.68    0.18 
  11   3  -4    0.66    0.19 
  11   4  -4    3.30    0.38 
  11   5  -4    3.89    0.41 
 -11  -7   4    3.68    0.29 
 -11  -8   4    0.10    0.09 
 -11  -9   4   -0.05    0.08 
 -11 -10   4    0.04    0.10 
 -11 -11   4    0.11    0.11 
 -11 -12   4    0.02    0.10 
 -11 -13   4    0.00    0.12 
 -11 -14   4    0.22    0.17 
  11 -15  -3   -0.07    0.20 
  11 -14  -3    0.08    0.19 
  11 -13  -3    0.08    0.18 
  11 -12  -3    0.20    0.17 
  11 -11  -3    0.13    0.15 
  11 -10  -3    0.03    0.14 
  11  -9  -3    0.09    0.13 
  11  -8  -3    4.48    0.34 
  11  -8  -3    5.78    0.39 
  11  -7  -3    0.06    0.11 
  11  -7  -3    0.11    0.12 
  11  -6  -3    2.39    0.24 
  11  -6  -3    2.29    0.27 
  11  -5  -3    0.11    0.12 
  11  -5  -3    0.09    0.12 
  11  -4  -3    1.28    0.21 
  11  -4  -3    1.18    0.18 
  11  -3  -3    0.06    0.11 
  11  -3  -3   -0.08    0.10 
  11  -2  -3   11.90    0.66 
  11  -2  -3   11.34    0.64 
  11  -1  -3   -0.03    0.11 
  11  -1  -3    0.13    0.12 
  11   0  -3   -0.07    0.09 
  11   0  -3    0.11    0.12 
  11   1  -3   -0.04    0.12 
  11   1  -3   -0.01    0.10 
  11   2  -3   12.08    0.74 
  11   2  -3   13.75    0.75 
  11   3  -3    0.06    0.12 
  11   3  -3    0.17    0.12 
  11   4  -3    1.28    0.22 
  11   5  -3    0.15    0.14 
  11   6  -3    2.19    0.32 
 -11  -8   3    6.09    0.40 
 -11  -9   3    0.02    0.09 
 -11 -10   3    0.07    0.10 
 -11 -11   3   -0.03    0.09 
 -11 -12   3    0.30    0.12 
 -11 -13   3    0.18    0.13 
 -11 -14   3    0.04    0.14 
  11 -15  -2    0.02    0.21 
  11 -14  -2    0.31    0.21 
  11 -13  -2    0.13    0.18 
  11 -12  -2    0.16    0.15 
  11 -11  -2    0.23    0.15 
  11 -10  -2    0.10    0.14 
  11  -9  -2    0.05    0.12 
  11  -9  -2   -0.06    0.13 
  11  -8  -2    0.38    0.15 
  11  -8  -2    0.72    0.15 
  11  -7  -2    0.11    0.12 
  11  -7  -2    0.07    0.11 
  11  -6  -2    3.12    0.30 
  11  -6  -2    3.51    0.27 
  11  -5  -2    0.17    0.12 
  11  -5  -2    0.02    0.09 
  11  -4  -2    5.01    0.33 
  11  -4  -2    5.35    0.37 
  11  -3  -2    1.00    0.18 
  11  -3  -2    1.18    0.17 
  11  -2  -2    0.96    0.16 
  11  -2  -2    0.37    0.14 
  11  -1  -2    0.14    0.12 
  11  -1  -2    0.14    0.11 
  11   0  -2    3.71    0.30 
  11   0  -2    3.47    0.34 
  11   1  -2    0.47    0.14 
  11   1  -2    0.22    0.12 
  11   2  -2    0.29    0.13 
  11   2  -2    0.40    0.15 
  11   3  -2    1.21    0.21 
  11   3  -2    0.81    0.18 
  11   4  -2    5.29    0.41 
  11   5  -2   -0.02    0.12 
  11   6  -2    3.46    0.39 
  11   7  -2   -0.07    0.12 
 -11  -8   2    0.33    0.12 
 -11  -9   2    0.01    0.09 
 -11 -10   2    0.36    0.12 
 -11 -11   2    0.12    0.10 
 -11 -12   2    0.16    0.12 
 -11 -13   2    0.01    0.11 
 -11 -15   2   -0.05    0.31 
  11 -15  -1   -0.12    0.19 
  11 -14  -1   -0.42    0.16 
  11 -13  -1    0.09    0.16 
  11 -12  -1    0.17    0.15 
  11 -11  -1    0.08    0.13 
  11 -10  -1    0.08    0.12 
  11  -9  -1    0.43    0.16 
  11  -9  -1    0.35    0.14 
  11  -8  -1    4.07    0.30 
  11  -8  -1    4.53    0.34 
  11  -7  -1    0.39    0.14 
  11  -7  -1    0.43    0.13 
  11  -6  -1    1.51    0.22 
  11  -6  -1    1.19    0.18 
  11  -5  -1    0.16    0.11 
  11  -5  -1    0.45    0.13 
  11  -4  -1    1.54    0.18 
  11  -4  -1    1.71    0.23 
  11  -3  -1    0.17    0.11 
  11  -3  -1    0.57    0.13 
  11  -2  -1    4.96    0.33 
  11  -2  -1    4.68    0.35 
  11  -1  -1    0.36    0.14 
  11  -1  -1    0.41    0.13 
  11   0  -1   -0.02    0.09 
  11   0  -1   -0.13    0.09 
  11   1  -1    0.65    0.16 
  11   1  -1    0.36    0.13 
  11   2  -1    5.60    0.38 
  11   2  -1    4.31    0.36 
  11   3  -1    0.18    0.11 
  11   4  -1    1.49    0.24 
 -11  -5   1    0.16    0.08 
  11   5  -1    0.04    0.12 
  11   6  -1    0.93    0.21 
  11   7  -1    0.08    0.14 
  11   8  -1    5.02    0.49 
 -11  -9   1    0.37    0.13 
 -11 -10   1    0.02    0.09 
 -11 -11   1    0.18    0.11 
 -11 -12   1    0.05    0.11 
 -11 -13   1    0.25    0.13 
 -11 -15   1   -0.08    0.29 
  11 -15   0    0.01    0.21 
  11 -14   0   -0.05    0.18 
  11 -13   0   -0.01    0.16 
  11 -12   0    0.00    0.14 
  11 -11   0    0.03    0.13 
  11 -10   0   -0.07    0.11 
  11 -10   0    0.13    0.13 
  11  -9   0    0.25    0.13 
  11  -9   0    0.29    0.13 
  11  -8   0    0.02    0.11 
  11  -8   0    0.30    0.12 
  11  -7   0    2.49    0.23 
  11  -7   0    2.62    0.27 
  11  -6   0    0.14    0.11 
  11  -6   0    0.04    0.10 
  11  -5   0    3.30    0.29 
  11  -5   0    4.06    0.27 
  11  -4   0    0.11    0.10 
  11  -4   0    0.01    0.09 
  11  -3   0    4.68    0.31 
  11  -3   0    6.20    0.38 
  11  -2   0    0.02    0.08 
  11  -2   0    0.12    0.07 
  11  -1   0    1.08    0.19 
  11  -1   0    0.42    0.12 
  11   0   0    0.03    0.09 
  11   0   0    0.10    0.10 
  11   1   0    0.69    0.16 
  11   1   0    0.54    0.13 
  11   2   0    0.05    0.09 
  11   2   0    0.06    0.08 
 -11  -3   0    6.10    0.32 
  11   3   0    5.94    0.42 
 -11  -4   0    0.04    0.06 
  11   4   0   -0.02    0.09 
 -11  -5   0    3.78    0.24 
  11   5   0    3.70    0.37 
 -11  -6   0   -0.04    0.08 
  11   6   0    0.03    0.11 
  11   7   0    3.05    0.36 
  11   8   0    0.16    0.16 
  11   9   0    0.08    0.17 
 -11 -10   0   -0.01    0.09 
 -11 -11   0    0.18    0.11 
 -11 -12   0    0.04    0.10 
 -11 -14   0    0.12    0.23 
 -11 -15   0   -0.04    0.27 
  11 -15   1   -0.14    0.20 
  11 -14   1   -0.05    0.17 
  11 -13   1    0.27    0.17 
  11 -12   1   -0.04    0.13 
  11 -11   1    0.23    0.14 
  11 -11   1    0.16    0.14 
  11 -10   1    0.06    0.13 
  11 -10   1   -0.06    0.11 
  11  -9   1    0.21    0.12 
  11  -9   1    0.39    0.13 
  11  -8   1    4.07    0.29 
  11  -8   1    4.83    0.34 
  11  -7   1    0.48    0.12 
  11  -7   1    0.22    0.13 
  11  -6   1    1.31    0.16 
  11  -6   1    1.23    0.19 
  11  -5   1    0.16    0.10 
  11  -5   1    0.28    0.08 
  11  -4   1    2.01    0.23 
  11  -4   1    1.61    0.17 
  11  -3   1    0.07    0.09 
  11  -3   1    0.19    0.10 
  11  -2   1    5.20    0.31 
  11  -2   1    3.97    0.32 
  11  -1   1    0.49    0.13 
  11  -1   1    0.40    0.13 
 -11   0  -1    0.02    0.07 
  11   0   1    0.15    0.10 
  11   0   1   -0.01    0.08 
 -11  -1  -1    0.49    0.10 
  11   1   1    0.67    0.13 
  11   1   1    0.33    0.12 
 -11  -2  -1    4.57    0.28 
  11   2   1    4.69    0.35 
 -11  -3  -1    0.27    0.08 
  11   3   1    0.18    0.11 
 -11  -4  -1    1.63    0.15 
  11   4   1    1.44    0.23 
 -11  -5  -1    0.17    0.09 
  11   5   1    0.13    0.12 
 -11  -6  -1    1.35    0.15 
  11   6   1    1.21    0.23 
  11   7   1    0.33    0.15 
  11   8   1    4.62    0.39 
  11   9   1    0.27    0.17 
 -11 -11  -1   -0.03    0.09 
 -11 -12  -1    0.20    0.11 
 -11 -12  -1    0.03    0.15 
 -11 -13  -1    0.25    0.18 
 -11 -14  -1   -0.26    0.20 
 -11 -15  -1   -0.32    0.25 
  11 -15   2   -0.07    0.21 
  11 -14   2    0.47    0.21 
  11 -13   2   -0.08    0.16 
  11 -12   2    0.13    0.15 
  11 -11   2    0.04    0.13 
  11 -11   2   -0.07    0.12 
  11 -10   2    0.22    0.13 
  11 -10   2    0.34    0.13 
  11  -9   2    0.02    0.11 
  11  -9   2    0.04    0.11 
  11  -8   2    0.68    0.14 
  11  -8   2    0.33    0.13 
  11  -7   2    0.17    0.10 
  11  -7   2    0.01    0.10 
  11  -6   2    3.46    0.29 
  11  -6   2    2.06    0.18 
  11  -5   2    0.05    0.10 
  11  -5   2    0.02    0.10 
  11  -4   2    5.22    0.31 
  11  -4   2    5.24    0.36 
  11  -3   2    1.01    0.14 
  11  -3   2    0.90    0.17 
  11  -2   2    0.33    0.11 
  11  -2   2    0.35    0.12 
  11  -1   2    0.19    0.10 
  11  -1   2    0.32    0.11 
 -11   0  -2    3.38    0.24 
  11   0   2    3.31    0.28 
  11   0   2    3.29    0.25 
 -11  -1  -2    0.17    0.08 
  11   1   2    0.10    0.09 
 -11  -2  -2    0.33    0.10 
  11   2   2    0.29    0.12 
 -11  -3  -2    0.98    0.13 
  11   3   2    0.71    0.16 
 -11  -4  -2    5.00    0.30 
  11   4   2    4.51    0.35 
 -11  -5  -2    0.01    0.08 
  11   5   2   -0.04    0.10 
 -11  -6  -2    3.49    0.25 
  11   6   2    3.72    0.36 
 -11  -7  -2    0.06    0.09 
  11   7   2    0.06    0.13 
  11   8   2    0.25    0.15 
  11   9   2   -0.04    0.15 
  11  10   2    0.44    0.21 
 -11 -11  -2    0.04    0.16 
 -11 -11  -2   -0.07    0.09 
 -11 -12  -2    0.57    0.19 
 -11 -13  -2   -0.07    0.16 
 -11 -14  -2    0.25    0.22 
 -11 -15  -2   -0.08    0.27 
  11 -15   3    0.17    0.23 
  11 -14   3    0.08    0.20 
  11 -13   3    0.12    0.17 
  11 -12   3    0.08    0.15 
  11 -12   3    0.23    0.15 
  11 -11   3    0.09    0.13 
  11 -11   3    0.02    0.13 
  11 -10   3    0.07    0.12 
  11 -10   3    0.09    0.11 
  11  -9   3   -0.03    0.10 
  11  -9   3    0.05    0.11 
  11  -8   3    5.40    0.38 
  11  -7   3    0.12    0.11 
  11  -7   3    0.18    0.10 
  11  -6   3    2.33    0.19 
  11  -6   3    2.25    0.26 
  11  -5   3    0.24    0.12 
  11  -5   3    0.15    0.10 
  11  -4   3    1.29    0.20 
  11  -4   3    1.36    0.14 
  11  -3   3    0.00    0.08 
  11  -3   3   -0.01    0.09 
  11  -2   3   11.92    0.60 
  11  -2   3   11.94    0.65 
 -11   1  -3    0.04    0.10 
  11  -1   3    0.15    0.09 
  11  -1   3    0.02    0.08 
 -11   0  -3   -0.04    0.08 
  11   0   3    0.01    0.08 
  11   0   3    0.08    0.07 
 -11  -1  -3    0.00    0.09 
  11   1   3    0.04    0.08 
 -11  -2  -3   12.97    0.66 
  11   2   3   12.65    0.70 
 -11  -3  -3    0.13    0.09 
  11   3   3   -0.08    0.08 
 -11  -4  -3    1.49    0.17 
  11   4   3    1.46    0.22 
 -11  -5  -3    0.20    0.10 
  11   5   3    0.15    0.11 
 -11  -6  -3    2.34    0.22 
  11   6   3    2.60    0.30 
 -11  -7  -3    0.03    0.10 
  11   7   3    0.07    0.13 
 -11  -8  -3    5.17    0.35 
  11   8   3    5.57    0.43 
 -11  -9  -3    0.06    0.11 
  11   9   3    0.08    0.16 
 -11 -10  -3    0.08    0.14 
  11  10   3    0.31    0.18 
 -11 -11  -3    0.17    0.16 
 -11 -12  -3   -0.06    0.15 
 -11 -13  -3    0.25    0.18 
 -11 -14  -3   -0.32    0.20 
 -11 -15  -3   -0.06    0.28 
  11 -13   4    0.05    0.19 
  11 -12   4    0.04    0.14 
  11 -12   4    0.09    0.16 
  11 -11   4    0.33    0.15 
  11 -11   4    0.22    0.14 
  11 -10   4    0.12    0.12 
  11 -10   4    0.10    0.13 
  11  -9   4    0.20    0.12 
  11  -9   4   -0.01    0.08 
  11  -8   4    0.01    0.11 
  11  -8   4    0.23    0.11 
  11  -7   4    3.94    0.30 
  11  -7   4    3.48    0.24 
  11  -6   4    0.03    0.09 
  11  -6   4    0.12    0.09 
  11  -5   4    3.63    0.29 
  11  -5   4    3.17    0.21 
  11  -4   4    3.18    0.21 
  11  -4   4    3.23    0.27 
  11  -3   4    0.72    0.15 
  11  -2   4    1.69    0.23 
 -11   1  -4   -0.02    0.10 
  11  -1   4    0.03    0.06 
 -11   0  -4    1.92    0.21 
  11   0   4    1.76    0.23 
 -11  -1  -4   -0.04    0.09 
  11   1   4    0.09    0.08 
 -11  -2  -4    1.82    0.20 
  11   2   4    1.92    0.25 
 -11  -3  -4    0.54    0.13 
  11   3   4    0.70    0.17 
 -11  -4  -4    3.86    0.27 
  11   4   4    3.88    0.36 
 -11  -5  -4    3.44    0.26 
  11   5   4    3.72    0.31 
 -11  -6  -4    0.10    0.10 
  11   6   4   -0.10    0.11 
 -11  -7  -4    4.82    0.31 
 -11  -7  -4    3.84    0.30 
  11   7   4    4.20    0.39 
 -11  -8  -4    0.00    0.11 
 -11  -8  -4    0.50    0.15 
  11   8   4    0.15    0.15 
 -11  -9  -4    0.03    0.09 
 -11  -9  -4   -0.19    0.12 
  11   9   4    0.21    0.16 
 -11 -10  -4    0.01    0.11 
 -11 -10  -4    0.01    0.14 
  11  10   4    0.17    0.18 
 -11 -11  -4    0.21    0.15 
 -11 -12  -4   -0.29    0.15 
 -11 -13  -4    0.11    0.19 
  11 -13   5    0.21    0.18 
  11 -12   5    0.19    0.15 
  11 -11   5    0.15    0.14 
  11 -10   5    0.31    0.13 
  11  -9   5    0.10    0.11 
  11  -8   5    0.84    0.17 
  11  -7   5    0.08    0.11 
  11  -6   5    0.01    0.08 
  11  -5   5    0.47    0.14 
  11  -4   5    0.03    0.08 
  11  -3   5    0.35    0.12 
 -11   2  -5    0.06    0.12 
  11  -2   5    0.02    0.07 
 -11   1  -5    1.42    0.22 
  11  -1   5    1.50    0.21 
 -11   0  -5   -0.05    0.10 
  11   0   5   -0.07    0.07 
 -11  -1  -5    1.77    0.21 
  11   1   5    1.60    0.23 
 -11  -2  -5    0.06    0.11 
  11   2   5    0.09    0.09 
 -11  -3  -5    0.40    0.13 
  11   3   5    0.35    0.13 
 -11  -4  -5   -0.15    0.09 
  11   4   5    0.07    0.11 
 -11  -5  -5    0.20    0.12 
  11   5   5    0.25    0.12 
 -11  -6  -5    0.12    0.10 
  11   6   5   -0.10    0.11 
 -11  -7  -5    0.10    0.12 
  11   7   5    0.25    0.14 
 -11  -8  -5    0.74    0.16 
  11   8   5    0.90    0.21 
 -11  -9  -5   -0.07    0.10 
  11   9   5   -0.12    0.15 
 -11 -10  -5    0.11    0.11 
 -11 -11  -5    0.09    0.11 
 -11 -12  -5    0.00    0.14 
 -11 -13  -5    0.08    0.17 
  11 -14   6    0.10    0.23 
  11 -13   6   -0.06    0.17 
  11 -12   6    0.07    0.15 
  11 -11   6    0.15    0.14 
  11 -10   6    0.62    0.17 
  11  -9   6    0.27    0.14 
  11  -8   6    0.08    0.11 
  11  -7   6    0.43    0.13 
  11  -6   6    0.91    0.18 
  11  -5   6    0.02    0.11 
  11  -4   6    1.76    0.24 
  11  -3   6    0.04    0.09 
 -11   2  -6    0.32    0.15 
  11  -2   6    0.21    0.10 
 -11   1  -6    0.43    0.15 
  11  -1   6    0.23    0.11 
 -11   0  -6    3.45    0.31 
  11   0   6    3.33    0.32 
 -11  -1  -6    0.13    0.11 
  11   1   6    0.07    0.08 
 -11  -2  -6    0.15    0.12 
  11   2   6    0.37    0.13 
 -11  -3  -6   -0.04    0.10 
  11   3   6   -0.06    0.08 
 -11  -4  -6    1.83    0.22 
  11   4   6    2.06    0.26 
 -11  -5  -6    0.15    0.11 
  11   5   6    0.16    0.13 
 -11  -6  -6    0.94    0.17 
  11   6   6    0.79    0.18 
 -11  -7  -6    0.64    0.15 
  11   7   6    0.67    0.18 
 -11  -8  -6    0.24    0.12 
  11   8   6    0.35    0.16 
 -11  -9  -6    0.11    0.12 
 -11 -10  -6    0.34    0.14 
 -11 -11  -6    0.03    0.12 
 -11 -12  -6    0.05    0.15 
 -11 -13  -6   -0.05    0.18 
 -11 -14  -6    0.21    0.24 
  11 -13   7   -0.21    0.19 
  11 -12   7    0.73    0.22 
  11 -11   7   -0.15    0.13 
  11 -10   7    0.04    0.13 
  11  -9   7    0.08    0.12 
  11  -8   7    2.74    0.31 
  11  -7   7    0.25    0.12 
  11  -6   7    0.27    0.12 
  11  -5   7    0.33    0.13 
  11  -4   7    0.12    0.10 
  11  -3   7    0.12    0.09 
 -11   2  -7    8.76    0.57 
  11  -2   7    8.37    0.52 
 -11   1  -7    1.39    0.24 
  11  -1   7    1.17    0.19 
 -11   0  -7    0.02    0.12 
  11   0   7    0.02    0.08 
 -11  -1  -7    1.08    0.20 
  11   1   7    1.21    0.21 
 -11  -2  -7    8.14    0.52 
  11   2   7    8.59    0.52 
 -11  -3  -7    0.03    0.12 
  11   3   7    0.09    0.11 
 -11  -4  -7    0.15    0.13 
  11   4   7    0.23    0.13 
 -11  -5  -7    0.44    0.15 
  11   5   7    0.28    0.14 
 -11  -6  -7    0.33    0.14 
  11   6   7    0.21    0.14 
 -11  -7  -7   -0.11    0.10 
  11   7   7    0.17    0.13 
 -11  -8  -7    2.59    0.25 
  11   8   7    0.39    0.17 
 -11  -9  -7    0.01    0.11 
 -11 -10  -7    0.01    0.13 
 -11 -11  -7    0.21    0.15 
 -11 -12  -7    0.39    0.19 
 -11 -13  -7    0.09    0.20 
  11 -13   8   -0.07    0.22 
  11 -12   8    0.10    0.19 
  11 -11   8   -0.15    0.14 
  11 -10   8    0.21    0.14 
  11  -9   8    0.01    0.12 
  11  -8   8    0.07    0.12 
  11  -7   8    0.69    0.17 
  11  -6   8    0.08    0.10 
  11  -5   8    1.49    0.23 
  11  -4   8    2.19    0.27 
  11  -3   8    1.16    0.20 
 -11   2  -8    0.44    0.19 
  11  -2   8    0.78    0.17 
 -11   1  -8    0.25    0.14 
  11  -1   8    0.14    0.11 
 -11   0  -8    3.58    0.35 
  11   0   8    3.53    0.30 
 -11  -1  -8    0.11    0.13 
  11   1   8    0.17    0.11 
 -11  -2  -8    0.70    0.18 
  11   2   8    0.68    0.18 
 -11  -3  -8    1.21    0.21 
  11   3   8    1.06    0.20 
 -11  -4  -8    2.05    0.26 
  11   4   8    2.57    0.30 
 -11  -5  -8    1.76    0.25 
  11   5   8    2.05    0.27 
 -11  -6  -8    0.19    0.13 
  11   6   8    0.07    0.13 
 -11  -7  -8    0.47    0.15 
  11   7   8    0.24    0.15 
 -11  -8  -8   -0.05    0.12 
 -11  -9  -8   -0.06    0.12 
 -11 -10  -8    0.33    0.16 
 -11 -11  -8    0.21    0.18 
 -11 -12  -8   -0.01    0.20 
 -11 -13  -8   -0.08    0.24 
  11 -12   9    0.25    0.22 
  11 -11   9    0.06    0.18 
  11 -10   9    0.07    0.16 
  11  -9   9    0.06    0.13 
  11  -8   9    0.11    0.13 
  11  -7   9   -0.01    0.11 
  11  -6   9    0.02    0.10 
  11  -5   9    0.07    0.10 
  11  -4   9    0.00    0.09 
  11  -3   9    0.72    0.17 
 -11   2  -9    0.62    0.22 
  11  -2   9    0.84    0.18 
 -11   1  -9    0.06    0.13 
  11  -1   9   -0.02    0.09 
 -11   0  -9    0.05    0.14 
  11   0   9    0.07    0.10 
 -11  -1  -9    0.02    0.13 
  11   1   9    0.00    0.10 
 -11  -2  -9    0.71    0.19 
  11   2   9    0.90    0.19 
 -11  -3  -9    0.88    0.21 
  11   3   9    1.34    0.23 
 -11  -4  -9    0.03    0.13 
  11   4   9   -0.03    0.12 
 -11  -5  -9    0.25    0.15 
  11   5   9   -0.04    0.12 
 -11  -6  -9    0.10    0.12 
  11   6   9    0.22    0.14 
 -11  -7  -9    0.13    0.14 
 -11  -8  -9    0.02    0.14 
 -11  -9  -9   -0.15    0.14 
 -11 -10  -9    0.07    0.17 
 -11 -11  -9   -0.07    0.18 
 -11 -12  -9   -0.05    0.23 
  11 -12  10    0.05    0.24 
  11 -11  10   -0.01    0.19 
  11 -10  10   -0.12    0.17 
  11  -9  10   -0.13    0.13 
  11  -8  10    0.00    0.13 
  11  -7  10    0.07    0.12 
  11  -6  10    0.20    0.13 
  11  -5  10    0.14    0.12 
  11  -4  10    0.19    0.12 
 -11   3 -10    0.21    0.17 
  11  -3  10    0.32    0.13 
 -11   2 -10    0.04    0.14 
  11  -2  10   -0.02    0.10 
 -11   1 -10    0.30    0.17 
  11  -1  10   -0.13    0.10 
 -11   0 -10    0.02    0.14 
  11   0  10    0.11    0.12 
 -11  -1 -10    0.16    0.14 
  11   1  10    0.02    0.11 
 -11  -2 -10    0.34    0.16 
  11   2  10    0.21    0.14 
 -11  -3 -10    0.31    0.17 
  11   3  10    0.76    0.18 
 -11  -4 -10    0.39    0.16 
  11   4  10    0.23    0.14 
 -11  -5 -10    0.11    0.16 
  11   5  10    0.41    0.17 
 -11  -6 -10    0.06    0.17 
 -11  -7 -10   -0.04    0.13 
 -11  -8 -10    0.09    0.15 
 -11  -9 -10    0.16    0.19 
 -11 -10 -10    0.02    0.20 
 -11 -11 -10   -0.17    0.21 
 -11 -12 -10   -0.12    0.25 
  11 -11  11   -0.09    0.23 
  11 -10  11   -0.05    0.20 
  11  -9  11    0.02    0.18 
  11  -8  11    0.31    0.18 
  11  -7  11    0.05    0.14 
  11  -6  11    0.20    0.14 
  11  -5  11    0.06    0.12 
  11  -4  11    0.70    0.18 
 -11   3 -11    0.04    0.16 
  11  -3  11    0.12    0.11 
 -11   2 -11    0.78    0.23 
  11  -2  11    0.59    0.17 
 -11   1 -11    0.16    0.16 
  11  -1  11    0.05    0.11 
 -11   0 -11   -0.04    0.16 
  11   0  11    0.24    0.14 
 -11  -1 -11   -0.02    0.16 
  11   1  11    0.16    0.13 
 -11  -2 -11    0.95    0.23 
  11   2  11    0.84    0.20 
 -11  -3 -11   -0.09    0.15 
  11   3  11    0.17    0.13 
 -11  -4 -11    0.73    0.22 
  11   4  11    0.80    0.21 
 -11  -5 -11    0.11    0.16 
  11   5  11    0.03    0.15 
 -11  -6 -11    0.57    0.20 
 -11  -7 -11    0.25    0.20 
 -11  -8 -11    0.36    0.21 
 -11  -9 -11    0.08    0.21 
 -11 -10 -11    0.01    0.23 
 -11 -11 -11   -0.01    0.27 
  11 -10  12    0.05    0.23 
  11  -9  12    0.22    0.22 
  11  -8  12    0.06    0.18 
  11  -7  12    0.34    0.17 
  11  -6  12    1.01    0.22 
  11  -5  12    0.50    0.19 
  11  -4  12    0.52    0.18 
 -11   3 -12    0.06    0.20 
  11  -3  12   -0.01    0.13 
 -11   2 -12    0.55    0.22 
  11  -2  12    0.73    0.20 
 -11   1 -12    0.09    0.16 
  11  -1  12    0.14    0.14 
 -11   0 -12    0.73    0.24 
  11   0  12    0.41    0.16 
 -11  -1 -12    0.08    0.16 
  11   1  12    0.15    0.13 
 -11  -2 -12    0.66    0.22 
  11   2  12    0.68    0.20 
 -11  -3 -12    0.07    0.16 
  11   3  12    0.23    0.16 
 -11  -4 -12    0.44    0.21 
  11   4  12    0.70    0.21 
 -11  -5 -12    0.32    0.20 
 -11  -6 -12    0.38    0.22 
 -11  -7 -12    0.23    0.22 
 -11  -8 -12    0.14    0.23 
 -11  -9 -12    0.08    0.27 
 -11 -10 -12    0.01    0.28 
  11  -9  13    0.05    0.24 
  11  -8  13    0.05    0.23 
  11  -7  13    0.11    0.16 
  11  -6  13    0.37    0.19 
  11  -5  13   -0.03    0.15 
  11  -4  13    0.61    0.19 
  11  -3  13    0.34    0.17 
 -11   2 -13    0.18    0.22 
  11  -2  13    0.31    0.16 
 -11   1 -13    0.47    0.24 
  11  -1  13    0.05    0.13 
 -11   0 -13    0.14    0.20 
  11   0  13    0.05    0.15 
 -11  -1 -13    0.06    0.19 
  11   1  13   -0.05    0.14 
 -11  -2 -13    0.07    0.19 
  11   2  13    0.19    0.16 
 -11  -3 -13    0.36    0.22 
  11   3  13    0.45    0.20 
 -11  -4 -13    0.40    0.24 
 -11  -5 -13    0.10    0.23 
 -11  -6 -13    0.23    0.26 
 -11  -7 -13    0.23    0.27 
 -11  -8 -13    0.14    0.28 
 -11  -9 -13    0.02    0.30 
  11  -8  14    0.01    0.17 
  11  -7  14    0.17    0.19 
  11  -6  14   -0.03    0.16 
  11  -5  14    0.12    0.17 
  11  -4  14    0.26    0.18 
  11  -3  14    0.23    0.16 
 -11   2 -14    0.09    0.25 
  11  -2  14    0.16    0.16 
 -11   1 -14    0.04    0.23 
  11  -1  14    0.03    0.15 
 -11   0 -14    0.22    0.25 
  11   0  14   -0.21    0.14 
 -11  -1 -14   -0.16    0.22 
  11   1  14    0.17    0.16 
 -11  -2 -14    0.37    0.27 
  11   2  14    0.20    0.19 
 -11  -3 -14    0.13    0.25 
 -11  -4 -14    0.20    0.26 
 -11  -5 -14    0.12    0.28 
 -11  -6 -14    0.08    0.31 
 -11  -7 -14    0.21    0.32 
 -11  -8 -14   -0.10    0.32 
  11  -6  15    0.19    0.20 
  11  -5  15    0.08    0.18 
  11  -4  15   -0.04    0.17 
  11  -3  15    0.21    0.18 
 -11   2 -15    0.04    0.30 
  11  -2  15    0.05    0.17 
 -11   1 -15   -0.09    0.28 
  11  -1  15   -0.06    0.16 
 -11   0 -15    0.05    0.29 
  11   0  15   -0.27    0.17 
 -11  -1 -15    0.06    0.30 
  11   1  15    0.03    0.20 
 -11  -2 -15    0.21    0.31 
  11   2  15    0.14    0.22 
 -11  -3 -15    0.04    0.31 
 -11  -4 -15    0.17    0.32 
 -11  -5 -15    0.05    0.33 
 -11  -6 -15   -0.08    0.36 
  11  -4  16    0.23    0.20 
  11  -3  16   -0.02    0.18 
 -11   2 -16    0.16    0.37 
  11  -2  16   -0.12    0.18 
 -11   1 -16    0.13    0.36 
  11  -1  16    0.12    0.21 
 -11   0 -16    0.35    0.37 
  11   0  16    0.49    0.24 
 -11  -1 -16    0.15    0.36 
  11   1  16   -0.02    0.22 
 -11  -2 -16    0.10    0.36 
 -11  -3 -16    0.25    0.37 
 -11  -4 -16    0.30    0.37 
  12  -2 -16    0.05    0.39 
  12  -1 -16    0.09    0.39 
  12   0 -16    0.17    0.40 
  12   1 -16    0.09    0.39 
  12   2 -16    0.01    0.40 
  12  -5 -15    0.52    0.45 
  12  -4 -15    0.19    0.41 
  12  -3 -15   -0.02    0.38 
  12  -2 -15   -0.11    0.37 
  12  -1 -15   -0.15    0.34 
  12   0 -15    0.00    0.34 
 -12  -1  15    0.02    0.13 
  12   1 -15    0.04    0.36 
 -12  -2  15    0.15    0.13 
  12   2 -15    0.06    0.39 
 -12  -3  15    0.07    0.13 
  12   3 -15   -0.08    0.39 
 -12  -4  15    0.13    0.14 
 -12  -5  15   -0.14    0.13 
  12  -7 -14    0.32    0.40 
  12  -6 -14    0.17    0.39 
  12  -5 -14    0.04    0.36 
  12  -4 -14    0.13    0.33 
  12  -3 -14   -0.03    0.29 
  12  -2 -14    0.08    0.30 
  12  -1 -14    0.03    0.29 
 -12   0  14    0.84    0.17 
  12   0 -14    0.59    0.33 
 -12  -1  14   -0.01    0.11 
  12   1 -14    0.10    0.31 
 -12  -2  14   -0.11    0.10 
  12   2 -14    0.08    0.29 
 -12  -3  14    0.16    0.13 
  12   3 -14    0.09    0.30 
 -12  -4  14    0.37    0.15 
 -12  -5  14    0.06    0.13 
 -12  -6  14   -0.02    0.12 
 -12  -7  14    0.14    0.15 
  12  -8 -13    0.22    0.36 
  12  -7 -13    0.22    0.35 
  12  -6 -13    0.33    0.32 
  12  -5 -13    0.06    0.30 
  12  -4 -13    0.47    0.29 
  12  -3 -13   -0.08    0.25 
  12  -2 -13    0.10    0.24 
 -12   1  13    0.09    0.10 
  12  -1 -13   -0.14    0.22 
 -12   0  13    0.02    0.09 
  12   0 -13   -0.04    0.22 
 -12  -1  13    0.10    0.10 
  12   1 -13   -0.23    0.20 
 -12  -2  13    0.14    0.11 
  12   2 -13    0.27    0.27 
 -12  -3  13    0.07    0.11 
  12   3 -13    0.32    0.27 
 -12  -4  13    0.35    0.13 
  12   4 -13    0.31    0.30 
 -12  -5  13   -0.04    0.11 
 -12  -6  13    0.11    0.13 
 -12  -7  13   -0.08    0.13 
 -12  -8  13    0.13    0.15 
  12  -9 -12    0.09    0.32 
  12  -8 -12    0.03    0.29 
  12  -7 -12    0.24    0.28 
  12  -6 -12   -0.04    0.24 
  12  -5 -12    0.01    0.23 
  12  -4 -12    0.09    0.22 
  12  -3 -12    0.05    0.22 
  12  -2 -12   -0.16    0.19 
 -12   1  12   -0.01    0.08 
  12  -1 -12   -0.06    0.19 
 -12   0  12    0.40    0.12 
  12   0 -12    0.55    0.24 
 -12  -1  12   -0.04    0.09 
  12   1 -12   -0.20    0.17 
 -12  -2  12   -0.02    0.09 
  12   2 -12   -0.26    0.17 
 -12  -3  12    0.06    0.10 
  12   3 -12    0.17    0.22 
 -12  -4  12    0.10    0.11 
  12   4 -12    0.10    0.24 
 -12  -5  12    0.33    0.14 
 -12  -6  12    0.06    0.11 
 -12  -7  12   -0.10    0.11 
 -12  -8  12   -0.02    0.13 
 -12  -9  12   -0.02    0.12 
  12 -10 -11   -0.12    0.25 
  12  -9 -11   -0.14    0.23 
  12  -8 -11    0.29    0.25 
  12  -7 -11   -0.27    0.22 
  12  -6 -11    0.17    0.25 
  12  -5 -11    0.13    0.23 
  12  -4 -11    0.13    0.22 
  12  -3 -11    0.46    0.22 
 -12   2  11    0.19    0.10 
  12  -2 -11   -0.09    0.20 
 -12   1  11    0.15    0.09 
  12  -1 -11   -0.16    0.20 
 -12   0  11    0.05    0.08 
  12   0 -11   -0.09    0.20 
 -12  -1  11    0.03    0.09 
  12   1 -11    0.03    0.20 
 -12  -2  11    0.12    0.09 
  12   2 -11   -0.11    0.20 
 -12  -3  11    0.45    0.13 
  12   3 -11    0.01    0.20 
 -12  -4  11    0.14    0.10 
  12   4 -11    0.01    0.23 
 -12  -5  11   -0.01    0.10 
 -12  -6  11    0.29    0.14 
 -12  -7  11    0.24    0.14 
 -12  -8  11    0.30    0.14 
 -12  -9  11   -0.01    0.15 
 -12 -10  11    0.04    0.18 
  12 -11 -10    0.11    0.24 
  12 -10 -10    0.21    0.23 
  12  -9 -10   -0.19    0.20 
  12  -8 -10    0.11    0.21 
  12  -7 -10    0.06    0.22 
  12  -6 -10    0.11    0.21 
  12  -5 -10    1.52    0.31 
  12  -4 -10   -0.10    0.18 
 -12   3  10    0.06    0.08 
  12  -3 -10    0.09    0.21 
 -12   2  10    0.21    0.08 
  12  -2 -10    0.22    0.20 
 -12   1  10    0.31    0.10 
  12  -1 -10   -0.12    0.20 
 -12   0  10    5.01    0.32 
  12   0 -10    4.10    0.47 
 -12  -1  10    0.14    0.09 
  12   1 -10    0.27    0.24 
 -12  -2  10    0.34    0.11 
  12   2 -10    0.39    0.24 
 -12  -3  10    0.04    0.09 
  12   3 -10    0.35    0.23 
 -12  -4  10    0.40    0.13 
  12   4 -10    0.79    0.28 
 -12  -5  10    1.58    0.22 
 -12  -6  10    0.09    0.10 
 -12  -7  10    0.11    0.11 
 -12  -8  10    0.13    0.12 
 -12  -9  10    0.07    0.13 
 -12 -10  10    0.26    0.18 
 -12 -11  10   -0.07    0.18 
  12 -12  -9   -0.18    0.22 
  12 -11  -9    0.11    0.22 
  12 -10  -9    0.09    0.22 
  12  -9  -9   -0.13    0.19 
  12  -8  -9    0.16    0.21 
  12  -7  -9   -0.09    0.19 
  12  -6  -9    1.11    0.26 
  12  -5  -9   -0.07    0.16 
  12  -4  -9    1.34    0.29 
 -12   3   9    0.01    0.07 
  12  -3  -9    0.10    0.18 
 -12   2   9    2.00    0.21 
  12  -2  -9    1.87    0.33 
 -12   1   9   -0.03    0.07 
  12  -1  -9    0.02    0.19 
 -12   0   9    0.02    0.08 
  12   0  -9    0.12    0.19 
 -12  -1   9   -0.05    0.07 
  12   1  -9    0.06    0.19 
 -12  -2   9    1.93    0.22 
  12   2  -9    1.62    0.33 
 -12  -3   9    0.10    0.07 
  12   3  -9   -0.01    0.19 
 -12  -4   9    1.76    0.22 
  12   4  -9    1.38    0.33 
 -12  -5   9    0.03    0.09 
 -12  -6   9    1.14    0.19 
 -12  -7   9    0.03    0.09 
 -12  -8   9    0.13    0.12 
 -12  -9   9    0.11    0.13 
 -12 -10   9    0.02    0.14 
 -12 -11   9    0.02    0.17 
 -12 -12   9    0.20    0.20 
  12 -12  -8    0.27    0.23 
  12 -11  -8   -0.13    0.20 
  12 -10  -8    0.14    0.20 
  12  -9  -8   -0.17    0.17 
  12  -8  -8    0.11    0.18 
  12  -7  -8    0.03    0.17 
  12  -6  -8    0.04    0.16 
  12  -5  -8    0.03    0.16 
  12  -4  -8    1.16    0.22 
  12  -4  -8    1.01    0.24 
  12  -3  -8    0.36    0.20 
  12  -3  -8    0.18    0.14 
  12  -2  -8    0.29    0.16 
  12  -2  -8    0.13    0.18 
  12  -1  -8    0.05    0.13 
  12  -1  -8    0.05    0.17 
 -12   0   8    5.40    0.34 
  12   0  -8    4.29    0.45 
 -12  -1   8    0.06    0.08 
  12   1  -8   -0.03    0.17 
 -12  -2   8    0.02    0.07 
  12   2  -8    0.11    0.19 
 -12  -3   8    0.36    0.11 
  12   3  -8    0.42    0.20 
 -12  -4   8    1.17    0.18 
  12   4  -8    1.24    0.31 
 -12  -5   8    0.16    0.09 
 -12  -6   8    0.05    0.09 
 -12  -7   8    0.07    0.09 
 -12  -8   8    0.03    0.10 
 -12  -9   8   -0.02    0.11 
 -12 -10   8    0.05    0.13 
 -12 -11   8    0.18    0.16 
 -12 -12   8    0.08    0.18 
  12 -13  -7    0.42    0.23 
  12 -12  -7    0.15    0.21 
  12 -11  -7    0.12    0.20 
  12 -10  -7    0.01    0.19 
  12  -9  -7   -0.05    0.16 
  12  -8  -7   -0.11    0.16 
  12  -7  -7    0.08    0.16 
  12  -6  -7    0.10    0.16 
  12  -5  -7    0.18    0.17 
  12  -5  -7   -0.02    0.13 
  12  -4  -7    0.12    0.16 
  12  -4  -7    0.02    0.12 
  12  -3  -7    0.04    0.16 
  12  -3  -7    0.09    0.15 
  12  -2  -7    0.10    0.13 
  12  -2  -7    0.17    0.17 
  12  -1  -7    0.82    0.20 
  12  -1  -7    0.73    0.23 
  12   0  -7   -0.10    0.15 
  12   0  -7   -0.01    0.13 
  12   1  -7    0.63    0.19 
  12   1  -7    0.67    0.23 
  12   2  -7    0.18    0.18 
 -12  -3   7    0.23    0.10 
  12   3  -7    0.37    0.20 
 -12  -4   7    0.08    0.08 
  12   4  -7    0.16    0.20 
 -12  -5   7    0.13    0.09 
 -12  -6   7   -0.08    0.07 
 -12  -7   7    0.00    0.09 
 -12  -8   7   -0.03    0.09 
 -12  -9   7   -0.01    0.10 
 -12 -10   7    0.04    0.12 
 -12 -11   7    0.12    0.15 
 -12 -12   7    0.00    0.15 
 -12 -13   7    0.04    0.19 
  12 -13  -6   -0.05    0.20 
  12 -12  -6    0.07    0.20 
  12 -11  -6    0.14    0.19 
  12 -10  -6    0.50    0.20 
  12  -9  -6    0.05    0.17 
  12  -8  -6    0.13    0.15 
  12  -7  -6    1.68    0.25 
  12  -6  -6    0.35    0.16 
  12  -6  -6    0.23    0.16 
  12  -5  -6    4.65    0.37 
  12  -5  -6    4.07    0.35 
  12  -4  -6   -0.14    0.14 
  12  -4  -6    0.09    0.14 
  12  -3  -6    0.60    0.20 
  12  -3  -6    0.73    0.19 
  12  -2  -6    0.70    0.22 
  12  -2  -6    1.38    0.23 
  12  -1  -6    1.08    0.22 
  12  -1  -6    1.04    0.23 
  12   0  -6    5.28    0.41 
  12   0  -6    4.68    0.41 
  12   1  -6    1.00    0.23 
  12   1  -6    1.02    0.25 
  12   2  -6    0.93    0.24 
  12   2  -6    1.03    0.23 
  12   3  -6    0.51    0.19 
  12   3  -6    0.80    0.24 
 -12  -4   6   -0.08    0.07 
  12   4  -6    0.17    0.18 
 -12  -5   6    4.72    0.34 
 -12  -6   6    0.35    0.13 
 -12  -7   6    1.80    0.23 
 -12  -8   6    0.07    0.10 
 -12  -9   6    0.05    0.10 
 -12 -10   6    0.39    0.14 
 -12 -11   6    0.02    0.12 
 -12 -12   6    0.10    0.15 
 -12 -13   6    0.03    0.17 
  12 -14  -5    0.21    0.23 
  12 -13  -5    0.08    0.18 
  12 -12  -5    0.17    0.19 
  12 -11  -5   -0.09    0.17 
  12 -10  -5    0.15    0.17 
  12  -9  -5    0.20    0.16 
  12  -8  -5    0.47    0.18 
  12  -7  -5    0.16    0.15 
  12  -7  -5    0.18    0.14 
  12  -6  -5    2.89    0.29 
  12  -6  -5    2.18    0.28 
  12  -5  -5    0.00    0.11 
  12  -5  -5   -0.07    0.14 
  12  -4  -5    9.45    0.57 
  12  -4  -5    9.05    0.57 
  12  -3  -5    0.13    0.13 
  12  -3  -5    0.11    0.16 
  12  -2  -5    0.12    0.17 
  12  -2  -5    0.59    0.16 
  12  -1  -5   -0.06    0.13 
  12  -1  -5    0.00    0.12 
  12   0  -5   -0.01    0.14 
  12   0  -5   -0.05    0.11 
  12   1  -5    0.06    0.14 
  12   1  -5    0.05    0.12 
  12   2  -5    0.05    0.15 
  12   2  -5    0.16    0.15 
  12   3  -5    0.31    0.15 
  12   3  -5   -0.05    0.14 
  12   4  -5    8.72    0.61 
  12   5  -5    0.32    0.17 
 -12  -6   5    2.66    0.27 
 -12  -7   5    0.05    0.09 
 -12  -8   5    0.25    0.12 
 -12  -9   5    0.04    0.08 
 -12 -10   5   -0.06    0.09 
 -12 -11   5    0.06    0.11 
 -12 -12   5    0.13    0.14 
 -12 -13   5   -0.01    0.16 
 -12 -14   5    0.09    0.20 
  12 -14  -4    0.31    0.22 
  12 -13  -4    0.10    0.20 
  12 -12  -4    0.04    0.18 
  12 -11  -4    0.00    0.16 
  12 -10  -4    0.65    0.19 
  12  -9  -4   -0.02    0.14 
  12  -8  -4    0.36    0.15 
  12  -7  -4    0.10    0.13 
  12  -7  -4   -0.17    0.13 
  12  -6  -4   -0.10    0.11 
  12  -6  -4    0.05    0.15 
  12  -5  -4    0.16    0.13 
  12  -5  -4    0.42    0.15 
  12  -4  -4    1.09    0.21 
  12  -4  -4    0.89    0.21 
  12  -3  -4   -0.08    0.14 
  12  -3  -4   -0.01    0.11 
  12  -2  -4    0.73    0.18 
  12  -2  -4    0.66    0.19 
  12  -1  -4   -0.11    0.13 
  12  -1  -4    0.00    0.11 
  12   0  -4    4.24    0.39 
  12   0  -4    3.73    0.38 
  12   1  -4    0.07    0.12 
  12   1  -4   -0.18    0.12 
  12   2  -4    0.88    0.21 
  12   2  -4    0.81    0.21 
  12   3  -4    0.19    0.14 
  12   3  -4    0.02    0.14 
  12   4  -4    1.00    0.24 
  12   5  -4    0.68    0.19 
  12   6  -4   -0.03    0.15 
 -12  -7   4   -0.05    0.07 
 -12  -8   4    0.36    0.12 
 -12  -9   4    0.03    0.09 
 -12 -10   4    0.99    0.19 
 -12 -11   4    0.03    0.10 
 -12 -12   4    0.00    0.12 
 -12 -13   4    0.05    0.14 
 -12 -14   4    0.20    0.19 
  12 -14  -3   -0.13    0.20 
  12 -13  -3    0.15    0.19 
  12 -12  -3    0.12    0.18 
  12 -11  -3    0.10    0.16 
  12 -10  -3    0.21    0.15 
  12  -9  -3    0.14    0.15 
  12  -8  -3    0.19    0.14 
  12  -8  -3    0.27    0.15 
  12  -7  -3    0.00    0.13 
  12  -7  -3    0.07    0.12 
  12  -6  -3    0.94    0.19 
  12  -6  -3    1.27    0.22 
  12  -5  -3   -0.10    0.10 
  12  -5  -3    0.33    0.14 
  12  -4  -3    7.56    0.45 
  12  -4  -3    6.11    0.45 
  12  -3  -3    0.66    0.17 
  12  -3  -3    0.87    0.19 
  12  -2  -3   -0.04    0.10 
  12  -2  -3    0.06    0.13 
  12  -1  -3    0.17    0.12 
  12  -1  -3    0.01    0.12 
  12   0  -3    0.04    0.10 
  12   0  -3    0.04    0.12 
  12   1  -3    0.14    0.12 
  12   1  -3    0.24    0.14 
  12   2  -3   -0.07    0.12 
  12   2  -3    0.04    0.12 
  12   3  -3    0.88    0.21 
  12   3  -3    0.82    0.21 
  12   4  -3    6.90    0.51 
  12   5  -3    0.11    0.14 
  12   6  -3    1.41    0.27 
  12   7  -3   -0.04    0.15 
 -12  -8   3    0.48    0.13 
 -12  -9   3    0.23    0.11 
 -12 -10   3    0.19    0.11 
 -12 -11   3    0.03    0.11 
 -12 -12   3   -0.09    0.10 
 -12 -13   3    0.19    0.14 
 -12 -14   3    0.14    0.18 
  12 -14  -2    0.18    0.20 
  12 -13  -2    0.13    0.19 
  12 -12  -2    0.20    0.17 
  12 -11  -2   -0.03    0.14 
  12 -10  -2    0.07    0.14 
  12  -9  -2    0.23    0.15 
  12  -9  -2    0.23    0.14 
  12  -8  -2    0.28    0.14 
  12  -8  -2    0.35    0.15 
  12  -7  -2    3.62    0.33 
  12  -7  -2    3.05    0.28 
  12  -6  -2    0.18    0.13 
  12  -6  -2   -0.08    0.10 
  12  -5  -2   12.11    0.65 
  12  -5  -2   12.30    0.69 
  12  -4  -2    0.79    0.16 
  12  -4  -2    0.08    0.11 
  12  -3  -2    1.45    0.21 
  12  -3  -2    1.31    0.22 
  12  -2  -2    1.55    0.24 
  12  -2  -2    1.54    0.22 
  12  -1  -2    2.94    0.29 
  12  -1  -2    2.64    0.30 
  12   0  -2    4.21    0.33 
  12   0  -2    3.57    0.36 
  12   1  -2    2.65    0.28 
  12   1  -2    2.01    0.28 
  12   2  -2    1.68    0.24 
  12   2  -2    1.25    0.24 
  12   3  -2    1.75    0.28 
  12   4  -2    0.03    0.12 
  12   5  -2   13.09    0.78 
  12   6  -2    0.03    0.12 
  12   7  -2    3.35    0.40 
  12   8  -2    0.23    0.19 
 -12  -9   2    0.15    0.10 
 -12 -10   2    0.24    0.11 
 -12 -11   2    0.03    0.09 
 -12 -12   2    0.02    0.11 
 -12 -13   2   -0.02    0.12 
  12 -14  -1    0.22    0.20 
  12 -13  -1    0.02    0.18 
  12 -12  -1    0.08    0.15 
  12 -11  -1    0.05    0.15 
  12 -10  -1    0.00    0.13 
  12  -9  -1    0.33    0.14 
  12  -9  -1    0.19    0.16 
  12  -8  -1    0.44    0.15 
  12  -8  -1    0.34    0.13 
  12  -7  -1    0.22    0.13 
  12  -7  -1    0.11    0.13 
  12  -6  -1    2.56    0.29 
  12  -6  -1    2.33    0.24 
  12  -5  -1    0.28    0.13 
  12  -5  -1    0.02    0.10 
  12  -4  -1    9.85    0.59 
  12  -4  -1   10.13    0.55 
  12  -3  -1    0.21    0.13 
  12  -3  -1   -0.01    0.10 
  12  -2  -1    0.55    0.15 
  12  -2  -1    0.68    0.16 
  12  -1  -1    0.06    0.10 
  12  -1  -1   -0.10    0.11 
  12   0  -1    0.15    0.13 
  12   0  -1   -0.06    0.09 
  12   1  -1    0.14    0.11 
  12   1  -1    0.01    0.09 
  12   2  -1    1.04    0.19 
  12   2  -1    0.56    0.16 
  12   3  -1    0.02    0.09 
  12   4  -1   10.22    0.64 
  12   5  -1    0.03    0.13 
  12   6  -1    2.67    0.35 
  12   7  -1    0.14    0.15 
  12   8  -1    0.27    0.17 
 -12 -10   1    0.05    0.09 
 -12 -11   1    0.20    0.11 
 -12 -12   1    0.42    0.15 
 -12 -13   1   -0.02    0.13 
  12 -14   0    0.16    0.20 
  12 -13   0   -0.06    0.16 
  12 -12   0    0.12    0.16 
  12 -11   0    0.09    0.14 
  12 -10   0    1.51    0.21 
  12 -10   0    1.78    0.26 
  12  -9   0   -0.08    0.12 
  12  -9   0    0.12    0.12 
  12  -8   0    1.44    0.20 
  12  -8   0    2.05    0.26 
  12  -7   0   -0.10    0.11 
  12  -7   0   -0.01    0.12 
  12  -6   0    0.09    0.11 
  12  -6   0    0.22    0.12 
  12  -5   0    0.09    0.11 
  12  -5   0    0.11    0.11 
  12  -4   0    1.20    0.21 
  12  -4   0    1.48    0.18 
  12  -3   0    0.18    0.09 
  12  -3   0   -0.08    0.08 
  12  -2   0    0.15    0.09 
  12  -2   0    0.09    0.09 
  12  -1   0   -0.02    0.08 
  12  -1   0    0.13    0.12 
  12   0   0    8.52    0.54 
  12   0   0    8.92    0.52 
  12   1   0   -0.02    0.11 
  12   1   0   -0.04    0.08 
  12   2   0    0.17    0.10 
  12   2   0    0.07    0.10 
 -12  -3   0   -0.06    0.07 
  12   3   0   -0.06    0.09 
 -12  -4   0    1.22    0.13 
  12   4   0    1.12    0.23 
 -12  -5   0    0.09    0.08 
  12   5   0   -0.05    0.12 
 -12  -6   0    0.05    0.09 
  12   6   0    0.06    0.13 
 -12  -7   0   -0.04    0.09 
  12   7   0    0.14    0.14 
  12   8   0    1.87    0.31 
  12   9   0   -0.03    0.16 
 -12 -10   0    2.28    0.26 
 -12 -11   0    0.11    0.11 
 -12 -12   0    0.13    0.11 
 -12 -14   0    0.25    0.27 
  12 -14   1    0.17    0.20 
  12 -13   1    0.11    0.17 
  12 -12   1    0.22    0.15 
  12 -11   1    0.21    0.17 
  12 -11   1    0.16    0.14 
  12 -10   1   -0.05    0.14 
  12 -10   1    0.13    0.13 
  12  -9   1    0.25    0.14 
  12  -9   1    0.02    0.12 
  12  -8   1    0.41    0.14 
  12  -8   1    0.48    0.14 
  12  -7   1    0.03    0.11 
  12  -7   1    0.01    0.11 
  12  -6   1    2.06    0.26 
  12  -6   1    2.01    0.21 
  12  -5   1    0.10    0.10 
  12  -5   1    0.19    0.08 
  12  -4   1   10.14    0.53 
  12  -4   1    9.17    0.57 
  12  -3   1    0.23    0.12 
  12  -3   1    0.01    0.10 
  12  -2   1    0.84    0.16 
  12  -2   1    0.61    0.16 
  12  -1   1   -0.02    0.08 
  12  -1   1    0.19    0.11 
 -12   0  -1    0.09    0.09 
  12   0   1   -0.02    0.09 
  12   0   1    0.06    0.09 
 -12  -1  -1    0.15    0.08 
  12   1   1    0.03    0.08 
  12   1   1    0.13    0.11 
 -12  -2  -1    0.59    0.11 
  12   2   1    0.82    0.18 
 -12  -3  -1    0.11    0.08 
  12   3   1    0.13    0.11 
 -12  -4  -1    9.50    0.49 
  12   4   1    9.25    0.59 
 -12  -5  -1    0.20    0.09 
  12   5   1    0.12    0.13 
 -12  -6  -1    2.21    0.20 
  12   6   1    2.40    0.31 
 -12  -7  -1    0.14    0.09 
  12   7   1    0.14    0.15 
 -12  -8  -1    0.25    0.11 
  12   8   1    0.22    0.16 
  12   9   1    0.04    0.17 
  12  10   1    0.13    0.19 
 -12 -11  -1    0.02    0.11 
 -12 -12  -1    0.36    0.13 
 -12 -13  -1    0.18    0.20 
 -12 -14  -1    0.26    0.26 
  12 -14   2    0.11    0.21 
  12 -13   2   -0.17    0.16 
  12 -12   2   -0.06    0.14 
  12 -11   2   -0.01    0.12 
  12 -11   2    0.15    0.16 
  12 -10   2    0.04    0.13 
  12 -10   2    0.25    0.13 
  12  -9   2    0.01    0.11 
  12  -9   2    0.17    0.13 
  12  -8   2    0.35    0.13 
  12  -8   2    0.50    0.15 
  12  -7   2    3.67    0.34 
  12  -6   2    0.19    0.11 
  12  -6   2   -0.12    0.09 
  12  -5   2   12.24    0.62 
  12  -5   2   12.22    0.68 
  12  -4   2   -0.12    0.09 
  12  -4   2    0.29    0.12 
  12  -3   2    1.28    0.17 
  12  -3   2    1.32    0.21 
  12  -2   2    1.42    0.22 
  12  -2   2    1.68    0.19 
  12  -1   2    2.59    0.23 
  12  -1   2    2.22    0.27 
 -12   0  -2    4.42    0.29 
  12   0   2    3.66    0.35 
  12   0   2    4.08    0.30 
 -12  -1  -2    2.18    0.19 
  12   1   2    2.15    0.26 
 -12  -2  -2    1.22    0.15 
  12   2   2    1.29    0.22 
 -12  -3  -2    1.37    0.15 
  12   3   2    1.16    0.21 
 -12  -4  -2    0.14    0.09 
  12   4   2    0.07    0.11 
 -12  -5  -2   12.44    0.63 
  12   5   2   12.53    0.73 
 -12  -6  -2   -0.13    0.08 
  12   6   2    0.17    0.14 
 -12  -7  -2    3.47    0.26 
  12   7   2    3.55    0.39 
 -12  -8  -2    0.43    0.13 
  12   8   2    0.61    0.18 
 -12  -9  -2    0.10    0.10 
  12   9   2    0.41    0.20 
  12  10   2    0.08    0.19 
 -12 -11  -2   -0.06    0.10 
 -12 -11  -2    0.17    0.17 
 -12 -12  -2    0.19    0.18 
 -12 -13  -2    0.03    0.19 
 -12 -14  -2   -0.17    0.23 
  12 -12   3   -0.01    0.16 
  12 -12   3   -0.14    0.15 
  12 -11   3    0.04    0.14 
  12 -11   3    0.08    0.15 
  12 -10   3    0.15    0.13 
  12 -10   3    0.12    0.14 
  12  -9   3    0.20    0.14 
  12  -9   3    0.24    0.12 
  12  -8   3    0.20    0.12 
  12  -8   3    0.07    0.10 
  12  -7   3    0.07    0.10 
  12  -7   3    0.03    0.11 
  12  -6   3    1.15    0.20 
  12  -6   3    1.32    0.17 
  12  -5   3    0.04    0.10 
  12  -4   3    6.65    0.44 
  12  -4   3    6.54    0.37 
  12  -3   3    0.95    0.18 
  12  -3   3    1.12    0.15 
  12  -2   3    0.00    0.09 
  12  -2   3    0.03    0.10 
 -12   1  -3    0.19    0.12 
  12  -1   3    0.23    0.10 
  12  -1   3    0.08    0.10 
 -12   0  -3    0.04    0.10 
  12   0   3    0.00    0.08 
  12   0   3    0.02    0.08 
 -12  -1  -3    0.24    0.11 
  12   1   3    0.08    0.09 
 -12  -2  -3    0.09    0.10 
  12   2   3    0.14    0.09 
 -12  -3  -3    0.88    0.14 
  12   3   3    0.60    0.16 
 -12  -4  -3    6.80    0.40 
  12   4   3    6.55    0.46 
 -12  -5  -3    0.14    0.11 
  12   5   3   -0.01    0.11 
 -12  -6  -3    1.11    0.16 
  12   6   3    1.28    0.24 
 -12  -7  -3   -0.04    0.10 
  12   7   3    0.02    0.13 
 -12  -8  -3    0.17    0.11 
  12   8   3    0.28    0.16 
 -12  -9  -3    0.29    0.11 
  12   9   3    0.25    0.17 
 -12 -10  -3    0.19    0.12 
 -12 -10  -3    0.52    0.17 
  12  10   3    0.31    0.21 
 -12 -11  -3    0.00    0.16 
 -12 -12  -3   -0.04    0.17 
  12 -12   4    0.21    0.18 
  12 -11   4    0.03    0.15 
  12 -10   4    1.05    0.21 
  12  -9   4    0.12    0.13 
  12  -8   4    0.18    0.12 
  12  -7   4    0.10    0.11 
  12  -6   4    0.05    0.10 
  12  -5   4    0.54    0.16 
  12  -4   4    0.86    0.18 
  12  -3   4    0.05    0.10 
  12  -2   4    0.65    0.16 
 -12   1  -4   -0.02    0.11 
  12  -1   4    0.03    0.08 
 -12   0  -4    3.81    0.30 
  12   0   4    3.64    0.31 
 -12  -1  -4   -0.09    0.09 
  12   1   4   -0.01    0.08 
 -12  -2  -4    0.45    0.14 
  12   2   4    0.35    0.13 
 -12  -3  -4    0.03    0.10 
  12   3   4    0.04    0.09 
 -12  -4  -4    0.93    0.16 
  12   4   4    0.96    0.19 
 -12  -5  -4    0.36    0.12 
  12   5   4    0.71    0.18 
 -12  -6  -4    0.07    0.11 
  12   6   4    0.12    0.13 
 -12  -7  -4    0.08    0.11 
  12   7   4   -0.08    0.12 
 -12  -8  -4    0.14    0.12 
  12   8   4    0.21    0.16 
 -12  -9  -4    0.05    0.10 
  12   9   4   -0.02    0.16 
 -12 -10  -4    0.88    0.18 
  12  10   4    1.15    0.26 
 -12 -11  -4   -0.05    0.12 
 -12 -12  -4    0.05    0.14 
 -12 -13  -4    0.05    0.16 
  12 -13   5    0.08    0.19 
  12 -12   5    0.22    0.17 
  12 -11   5    0.12    0.15 
  12 -10   5    0.11    0.13 
  12  -9   5   -0.06    0.10 
  12  -8   5    0.50    0.16 
  12  -7   5    0.22    0.11 
  12  -6   5    3.00    0.31 
  12  -5   5    0.04    0.10 
  12  -4   5    9.51    0.57 
  12  -3   5    0.09    0.11 
  12  -2   5    0.38    0.13 
 -12   1  -5    0.01    0.12 
  12  -1   5    0.09    0.09 
 -12   0  -5   -0.03    0.11 
  12   0   5    0.01    0.09 
 -12  -1  -5   -0.03    0.10 
  12   1   5    0.04    0.08 
 -12  -2  -5    0.51    0.15 
  12   2   5    0.53    0.15 
 -12  -3  -5   -0.03    0.11 
  12   3   5    0.17    0.12 
 -12  -4  -5   10.17    0.57 
  12   4   5   10.44    0.62 
 -12  -5  -5    0.11    0.11 
  12   5   5    0.03    0.12 
 -12  -6  -5    2.87    0.25 
  12   6   5    3.04    0.33 
 -12  -7  -5    0.10    0.10 
  12   7   5    0.10    0.14 
 -12  -8  -5    0.55    0.14 
  12   8   5    0.44    0.19 
 -12  -9  -5    0.01    0.12 
  12   9   5    0.24    0.17 
 -12 -10  -5    0.05    0.12 
 -12 -11  -5   -0.07    0.12 
 -12 -12  -5    0.12    0.14 
 -12 -13  -5   -0.09    0.17 
 -12 -14  -5    0.17    0.23 
  12 -13   6    0.20    0.21 
  12 -12   6   -0.02    0.16 
  12 -11   6    0.07    0.14 
  12 -10   6    0.21    0.14 
  12  -9   6   -0.01    0.12 
  12  -8   6    0.38    0.14 
  12  -7   6    1.67    0.25 
  12  -6   6    0.37    0.14 
  12  -5   6    4.81    0.37 
  12  -4   6    0.15    0.12 
  12  -3   6    0.60    0.16 
 -12   2  -6    1.20    0.22 
  12  -2   6    1.14    0.20 
 -12   1  -6    0.86    0.21 
  12  -1   6    1.07    0.20 
 -12   0  -6    5.59    0.41 
  12   0   6    5.57    0.40 
 -12  -1  -6    1.05    0.20 
  12   1   6    0.95    0.19 
 -12  -2  -6    1.35    0.21 
  12   2   6    1.13    0.21 
 -12  -3  -6    0.88    0.18 
  12   3   6    1.22    0.22 
 -12  -4  -6    0.03    0.11 
  12   4   6    0.15    0.12 
 -12  -5  -6    4.68    0.33 
  12   5   6    4.12    0.40 
 -12  -6  -6    0.38    0.14 
  12   6   6    0.30    0.16 
 -12  -7  -6    1.75    0.22 
  12   7   6    1.60    0.26 
 -12  -8  -6    0.23    0.13 
  12   8   6    0.23    0.16 
 -12  -9  -6    0.04    0.12 
 -12 -10  -6    0.41    0.17 
 -12 -11  -6   -0.01    0.14 
 -12 -12  -6    0.05    0.16 
 -12 -13  -6    0.17    0.21 
  12 -13   7    0.21    0.24 
  12 -12   7    0.07    0.20 
  12 -11   7    0.14    0.16 
  12 -10   7    0.15    0.14 
  12  -9   7    0.00    0.12 
  12  -8   7    0.19    0.13 
  12  -7   7   -0.01    0.10 
  12  -6   7   -0.05    0.10 
  12  -5   7    0.07    0.10 
  12  -4   7   -0.05    0.10 
  12  -3   7    0.03    0.09 
 -12   2  -7    0.38    0.16 
  12  -2   7    0.22    0.13 
 -12   1  -7    1.31    0.24 
  12  -1   7    0.97    0.19 
 -12   0  -7    0.00    0.14 
  12   0   7    0.11    0.10 
 -12  -1  -7    0.73    0.18 
  12   1   7    0.95    0.19 
 -12  -2  -7    0.35    0.16 
  12   2   7    0.12    0.11 
 -12  -3  -7    0.10    0.14 
  12   3   7    0.28    0.14 
 -12  -4  -7    0.06    0.12 
  12   4   7   -0.02    0.12 
 -12  -5  -7    0.12    0.12 
  12   5   7    0.08    0.13 
 -12  -6  -7    0.06    0.12 
  12   6   7   -0.03    0.14 
 -12  -7  -7    0.08    0.12 
  12   7   7    0.00    0.13 
 -12  -8  -7    0.13    0.13 
  12   8   7    0.01    0.15 
 -12  -9  -7   -0.01    0.12 
 -12 -10  -7    0.06    0.14 
 -12 -11  -7    0.17    0.18 
 -12 -12  -7    0.25    0.21 
 -12 -13  -7    0.19    0.23 
  12 -12   8   -0.03    0.21 
  12 -11   8   -0.11    0.16 
  12 -10   8   -0.04    0.15 
  12  -9   8    0.19    0.14 
  12  -8   8    0.02    0.11 
  12  -7   8   -0.03    0.10 
  12  -6   8    0.16    0.12 
  12  -5   8    0.02    0.11 
  12  -4   8    1.07    0.19 
  12  -3   8    0.34    0.13 
 -12   2  -8   -0.06    0.14 
  12  -2   8    0.07    0.11 
 -12   1  -8    0.02    0.14 
  12  -1   8   -0.01    0.11 
 -12   0  -8    5.62    0.43 
  12   0   8    5.32    0.41 
 -12  -1  -8    0.04    0.12 
  12   1   8    0.16    0.11 
 -12  -2  -8    0.14    0.14 
  12   2   8    0.10    0.11 
 -12  -3  -8    0.39    0.17 
  12   3   8    0.45    0.16 
 -12  -4  -8    1.23    0.21 
  12   4   8    1.61    0.26 
 -12  -5  -8    0.23    0.14 
  12   5   8    0.17    0.14 
 -12  -6  -8    0.02    0.12 
  12   6   8    0.03    0.14 
 -12  -7  -8   -0.05    0.11 
  12   7   8    0.11    0.14 
 -12  -8  -8    0.06    0.12 
 -12  -9  -8    0.03    0.14 
 -12 -10  -8    0.13    0.15 
 -12 -11  -8    0.01    0.18 
 -12 -12  -8    0.22    0.23 
  12 -12   9    0.12    0.24 
  12 -11   9    0.01    0.20 
  12 -10   9    0.02    0.17 
  12  -9   9    0.04    0.14 
  12  -8   9   -0.03    0.14 
  12  -7   9   -0.08    0.11 
  12  -6   9    1.20    0.23 
  12  -5   9   -0.07    0.10 
  12  -4   9    1.51    0.25 
  12  -3   9    0.04    0.10 
 -12   2  -9    2.52    0.34 
  12  -2   9    2.20    0.29 
 -12   1  -9    0.23    0.17 
  12  -1   9   -0.03    0.10 
 -12   0  -9    0.08    0.15 
  12   0   9    0.11    0.12 
 -12  -1  -9    0.05    0.15 
  12   1   9    0.00    0.12 
 -12  -2  -9    2.07    0.29 
  12   2   9    1.88    0.28 
 -12  -3  -9    0.10    0.15 
  12   3   9    0.00    0.14 
 -12  -4  -9    1.54    0.25 
  12   4   9    1.62    0.26 
 -12  -5  -9    0.01    0.13 
  12   5   9    0.26    0.16 
 -12  -6  -9    0.76    0.19 
  12   6   9    0.79    0.20 
 -12  -7  -9    0.08    0.15 
 -12  -8  -9    0.22    0.16 
 -12  -9  -9    0.06    0.17 
 -12 -10  -9    0.11    0.18 
 -12 -11  -9    0.10    0.22 
 -12 -12  -9    0.06    0.25 
  12 -11  10   -0.04    0.24 
  12 -10  10    0.48    0.24 
  12  -9  10    0.12    0.18 
  12  -8  10    0.12    0.16 
  12  -7  10    0.14    0.14 
  12  -6  10    0.06    0.12 
  12  -5  10    1.80    0.27 
  12  -4  10    0.28    0.14 
  12  -3  10   -0.10    0.10 
 -12   2 -10    0.36    0.18 
  12  -2  10    0.17    0.13 
 -12   1 -10    0.03    0.17 
  12  -1  10    0.16    0.13 
 -12   0 -10    6.43    0.49 
  12   0  10    5.41    0.43 
 -12  -1 -10    0.06    0.17 
  12   1  10   -0.04    0.13 
 -12  -2 -10    0.33    0.17 
  12   2  10    0.26    0.15 
 -12  -3 -10   -0.08    0.14 
  12   3  10   -0.01    0.14 
 -12  -4 -10    0.32    0.18 
  12   4  10    0.41    0.18 
 -12  -5 -10    1.76    0.27 
  12   5  10    1.79    0.28 
 -12  -6 -10    0.20    0.16 
  12   6  10    0.13    0.19 
 -12  -7 -10    0.08    0.16 
 -12  -8 -10    0.22    0.19 
 -12  -9 -10   -0.10    0.18 
 -12 -10 -10    0.46    0.24 
 -12 -11 -10   -0.07    0.25 
  12 -10  11    0.15    0.24 
  12  -9  11    0.01    0.19 
  12  -8  11    0.20    0.19 
  12  -7  11    0.09    0.17 
  12  -6  11    0.20    0.15 
  12  -5  11    0.06    0.14 
  12  -4  11    0.04    0.13 
  12  -3  11    0.56    0.18 
 -12   2 -11    0.02    0.18 
  12  -2  11    0.11    0.12 
 -12   1 -11    0.14    0.19 
  12  -1  11    0.25    0.15 
 -12   0 -11    0.05    0.16 
  12   0  11   -0.08    0.12 
 -12  -1 -11    0.18    0.17 
  12   1  11    0.44    0.17 
 -12  -2 -11    0.14    0.18 
  12   2  11    0.25    0.15 
 -12  -3 -11    0.21    0.19 
  12   3  11    0.43    0.19 
 -12  -4 -11    0.14    0.19 
  12   4  11    0.16    0.17 
 -12  -5 -11   -0.02    0.16 
  12   5  11    0.01    0.17 
 -12  -6 -11    0.18    0.19 
 -12  -7 -11    0.11    0.20 
 -12  -8 -11    0.11    0.21 
 -12  -9 -11   -0.02    0.23 
 -12 -10 -11   -0.11    0.26 
  12  -9  12   -0.12    0.22 
  12  -8  12    0.00    0.21 
  12  -7  12    0.07    0.16 
  12  -6  12    0.04    0.14 
  12  -5  12    0.38    0.17 
  12  -4  12    0.05    0.16 
  12  -3  12    0.05    0.14 
 -12   2 -12    0.00    0.18 
  12  -2  12    0.10    0.15 
 -12   1 -12    0.12    0.19 
  12  -1  12    0.00    0.14 
 -12   0 -12    0.69    0.24 
  12   0  12    0.47    0.18 
 -12  -1 -12    0.32    0.20 
  12   1  12    0.09    0.14 
 -12  -2 -12    0.28    0.18 
  12   2  12    0.34    0.17 
 -12  -3 -12    0.28    0.20 
  12   3  12    0.10    0.16 
 -12  -4 -12   -0.16    0.17 
  12   4  12    0.10    0.20 
 -12  -5 -12    0.28    0.22 
 -12  -6 -12    0.11    0.21 
 -12  -7 -12    0.13    0.24 
 -12  -8 -12    0.20    0.25 
 -12  -9 -12    0.16    0.29 
  12  -8  13    0.16    0.26 
  12  -7  13   -0.03    0.16 
  12  -6  13    0.07    0.15 
  12  -5  13    0.02    0.15 
  12  -4  13    0.19    0.17 
  12  -3  13    0.17    0.16 
 -12   2 -13    0.12    0.24 
  12  -2  13    0.37    0.19 
 -12   1 -13   -0.15    0.21 
  12  -1  13    0.00    0.16 
 -12   0 -13    0.07    0.22 
  12   0  13    0.26    0.17 
 -12  -1 -13    0.03    0.21 
  12   1  13    0.03    0.17 
 -12  -2 -13    0.25    0.23 
  12   2  13   -0.03    0.18 
 -12  -3 -13    0.12    0.23 
  12   3  13    0.28    0.20 
 -12  -4 -13    0.11    0.24 
 -12  -5 -13   -0.04    0.26 
 -12  -6 -13    0.17    0.26 
 -12  -7 -13    0.24    0.29 
 -12  -8 -13    0.00    0.30 
  12  -7  14    0.16    0.22 
  12  -6  14    0.13    0.19 
  12  -5  14    0.33    0.19 
  12  -4  14    0.41    0.20 
  12  -3  14   -0.19    0.15 
 -12   2 -14    0.09    0.29 
  12  -2  14    0.13    0.18 
 -12   1 -14    0.01    0.28 
  12  -1  14   -0.03    0.17 
 -12   0 -14    0.76    0.34 
  12   0  14    1.32    0.28 
 -12  -1 -14    0.14    0.29 
  12   1  14   -0.02    0.17 
 -12  -2 -14   -0.01    0.27 
  12   2  14    0.03    0.22 
 -12  -3 -14    0.19    0.28 
 -12  -4 -14    0.62    0.33 
 -12  -5 -14   -0.04    0.31 
 -12  -6 -14    0.20    0.34 
 -12  -7 -14    0.30    0.35 
  12  -5  15    0.10    0.19 
  12  -4  15    0.00    0.18 
  12  -3  15    0.17    0.20 
 -12   2 -15    0.16    0.36 
  12  -2  15    0.38    0.21 
 -12   1 -15    0.19    0.34 
  12  -1  15   -0.01    0.19 
 -12   0 -15    0.18    0.34 
  12   0  15    0.00    0.19 
 -12  -1 -15    0.35    0.36 
  12   1  15   -0.01    0.22 
 -12  -2 -15    0.34    0.36 
  12   2  15   -0.09    0.25 
 -12  -3 -15    0.28    0.36 
 -12  -4 -15    0.21    0.36 
 -12  -5 -15    0.09    0.36 
 -12   1 -16   -0.25    0.35 
  12  -1  16    0.23    0.22 
 -12   0 -16    0.18    0.39 
  12   0  16   -0.01    0.22 
 -12  -1 -16   -0.05    0.37 
  12   1  16   -0.02    0.24 
  13  -3 -15   -0.08    0.42 
  13  -2 -15   -0.13    0.40 
  13  -1 -15   -0.15    0.39 
  13   0 -15    0.00    0.40 
 -13  -1  15   -0.18    0.13 
  13   1 -15   -0.04    0.40 
 -13  -2  15    0.15    0.14 
  13   2 -15   -0.31    0.40 
 -13  -3  15    0.01    0.13 
  13   3 -15    0.12    0.46 
  13  -6 -14   -0.06    0.42 
  13  -5 -14    0.31    0.42 
  13  -4 -14   -0.07    0.37 
  13  -3 -14   -0.07    0.36 
  13  -2 -14    0.02    0.35 
  13  -1 -14    0.11    0.33 
 -13   0  14    0.09    0.13 
  13   0 -14    0.10    0.34 
 -13  -1  14   -0.04    0.11 
  13   1 -14    0.03    0.32 
 -13  -2  14   -0.02    0.11 
  13   2 -14   -0.01    0.34 
 -13  -3  14   -0.02    0.13 
  13   3 -14    0.05    0.37 
 -13  -4  14   -0.18    0.12 
 -13  -5  14    0.46    0.17 
 -13  -6  14    0.17    0.15 
  13  -7 -13    0.03    0.38 
  13  -6 -13   -0.02    0.38 
  13  -5 -13   -0.05    0.33 
  13  -4 -13    0.00    0.32 
  13  -3 -13    0.25    0.30 
  13  -2 -13    0.20    0.30 
  13  -1 -13    0.13    0.29 
 -13   0  13    0.07    0.11 
  13   0 -13    0.28    0.29 
 -13  -1  13    0.21    0.12 
  13   1 -13    0.13    0.30 
 -13  -2  13    0.05    0.12 
  13   2 -13    0.09    0.30 
 -13  -3  13    0.42    0.15 
  13   3 -13    0.34    0.32 
 -13  -4  13    0.12    0.13 
 -13  -5  13    0.05    0.12 
 -13  -6  13    0.02    0.14 
 -13  -7  13    0.24    0.16 
  13  -9 -12   -0.03    0.30 
  13  -8 -12    0.05    0.31 
  13  -7 -12    0.13    0.30 
  13  -6 -12    0.18    0.29 
  13  -5 -12   -0.06    0.28 
  13  -4 -12    0.22    0.28 
  13  -3 -12    0.13    0.27 
  13  -2 -12   -0.10    0.25 
 -13   1  12   -0.06    0.09 
  13  -1 -12    0.18    0.27 
 -13   0  12    0.37    0.12 
  13   0 -12    0.22    0.26 
 -13  -1  12    0.05    0.10 
  13   1 -12    0.18    0.26 
 -13  -2  12   -0.04    0.10 
  13   2 -12    0.11    0.26 
 -13  -3  12    0.03    0.11 
  13   3 -12   -0.25    0.25 
 -13  -4  12   -0.05    0.10 
  13   4 -12    0.17    0.29 
 -13  -5  12   -0.03    0.13 
 -13  -6  12    0.05    0.13 
 -13  -7  12   -0.11    0.13 
 -13  -8  12   -0.08    0.12 
  13 -10 -11   -0.05    0.25 
  13  -9 -11    0.22    0.28 
  13  -8 -11    0.02    0.25 
  13  -7 -11    0.00    0.25 
  13  -6 -11    0.09    0.26 
  13  -5 -11   -0.14    0.24 
  13  -4 -11    0.09    0.26 
  13  -3 -11   -0.15    0.23 
 -13   2  11    0.40    0.11 
  13  -2 -11    0.13    0.24 
 -13   1  11    0.20    0.11 
  13  -1 -11    0.04    0.24 
 -13   0  11    0.03    0.09 
  13   0 -11   -0.22    0.22 
 -13  -1  11    0.00    0.09 
  13   1 -11    0.26    0.25 
 -13  -2  11    0.22    0.12 
  13   2 -11    0.22    0.26 
 -13  -3  11    0.07    0.10 
  13   3 -11    0.08    0.25 
 -13  -4  11    0.08    0.11 
  13   4 -11    0.34    0.30 
 -13  -5  11    0.03    0.11 
 -13  -6  11   -0.08    0.11 
 -13  -7  11   -0.06    0.12 
 -13  -8  11    0.12    0.12 
 -13  -9  11    0.13    0.15 
 -13 -10  11   -0.02    0.19 
  13 -10 -10    0.02    0.25 
  13  -9 -10    0.13    0.24 
  13  -8 -10    0.16    0.24 
  13  -7 -10   -0.17    0.21 
  13  -6 -10    0.20    0.25 
  13  -5 -10    0.28    0.24 
  13  -4 -10    0.09    0.25 
 -13   3  10    0.26    0.11 
  13  -3 -10    0.19    0.23 
 -13   2  10    0.11    0.09 
  13  -2 -10    0.35    0.23 
 -13   1  10    0.30    0.11 
  13  -1 -10    0.30    0.24 
 -13   0  10    0.71    0.14 
  13   0 -10    0.22    0.23 
 -13  -1  10    0.44    0.12 
  13   1 -10    0.22    0.23 
 -13  -2  10    0.14    0.10 
  13   2 -10   -0.14    0.21 
 -13  -3  10    0.13    0.10 
  13   3 -10    0.07    0.23 
 -13  -4  10    0.04    0.10 
  13   4 -10    0.30    0.27 
 -13  -5  10    0.50    0.14 
 -13  -6  10    0.09    0.12 
 -13  -7  10   -0.04    0.11 
 -13  -8  10    0.07    0.12 
 -13  -9  10    0.07    0.17 
 -13 -10  10    0.07    0.19 
  13 -11  -9    0.29    0.24 
  13 -10  -9    0.13    0.22 
  13  -9  -9    0.07    0.23 
  13  -8  -9    0.02    0.21 
  13  -7  -9    0.43    0.25 
  13  -6  -9    0.07    0.21 
  13  -5  -9    0.23    0.23 
 -13   4   9    0.49    0.12 
  13  -4  -9    0.29    0.22 
 -13   3   9    0.90    0.15 
  13  -3  -9    0.86    0.27 
 -13   2   9    0.43    0.12 
  13  -2  -9    0.37    0.24 
 -13   1   9    1.99    0.22 
  13  -1  -9    1.14    0.30 
 -13   0   9    0.22    0.10 
  13   0  -9    0.03    0.21 
 -13  -1   9    1.95    0.24 
  13   1  -9    1.38    0.32 
 -13  -2   9    0.49    0.13 
  13   2  -9    0.34    0.25 
 -13  -3   9    0.78    0.16 
  13   3  -9    0.67    0.27 
 -13  -4   9    0.54    0.14 
  13   4  -9    0.72    0.27 
 -13  -5   9    0.28    0.11 
 -13  -6   9    0.13    0.12 
 -13  -7   9    0.19    0.12 
 -13  -8   9    0.10    0.13 
 -13  -9   9    0.10    0.14 
 -13 -10   9    0.01    0.17 
 -13 -11   9   -0.02    0.19 
  13 -12  -8    0.10    0.22 
  13 -11  -8    0.31    0.23 
  13 -10  -8    0.35    0.23 
  13  -9  -8    0.16    0.20 
  13  -8  -8   -0.13    0.19 
  13  -7  -8    0.09    0.19 
  13  -6  -8    0.02    0.19 
  13  -5  -8    0.09    0.19 
  13  -4  -8    0.83    0.25 
  13  -4  -8    1.15    0.22 
  13  -3  -8    1.06    0.22 
  13  -3  -8    1.14    0.27 
  13  -2  -8    0.59    0.19 
  13  -2  -8    0.12    0.21 
  13  -1  -8    1.11    0.29 
  13  -1  -8    1.26    0.25 
  13   0  -8    0.71    0.24 
 -13  -1   8    1.17    0.19 
  13   1  -8    0.91    0.27 
 -13  -2   8    0.28    0.11 
  13   2  -8    0.11    0.20 
 -13  -3   8    1.47    0.22 
  13   3  -8    1.69    0.35 
 -13  -4   8    1.13    0.19 
  13   4  -8    1.10    0.32 
 -13  -5   8    0.20    0.11 
 -13  -6   8   -0.03    0.09 
 -13  -7   8   -0.10    0.09 
 -13  -8   8    0.00    0.11 
 -13  -9   8    0.05    0.13 
 -13 -10   8    0.20    0.15 
 -13 -11   8    0.03    0.17 
 -13 -12   8    0.03    0.20 
  13 -12  -7   -0.09    0.21 
  13 -11  -7   -0.05    0.20 
  13 -10  -7   -0.04    0.19 
  13  -9  -7   -0.02    0.18 
  13  -8  -7    1.30    0.26 
  13  -7  -7   -0.22    0.16 
  13  -6  -7    0.62    0.20 
  13  -5  -7    0.01    0.17 
  13  -5  -7    0.12    0.15 
  13  -4  -7    0.24    0.14 
  13  -4  -7    0.34    0.21 
  13  -3  -7    0.08    0.14 
  13  -3  -7    0.30    0.19 
  13  -2  -7    2.45    0.34 
  13  -2  -7    2.15    0.31 
  13  -1  -7    0.81    0.24 
  13  -1  -7    0.61    0.19 
  13   0  -7   -0.08    0.13 
  13   0  -7   -0.03    0.17 
  13   1  -7    0.60    0.22 
  13   1  -7    0.88    0.23 
  13   2  -7    2.29    0.35 
  13   2  -7    2.06    0.32 
 -13  -3   7    0.00    0.09 
  13   3  -7    0.26    0.20 
 -13  -4   7    0.19    0.09 
  13   4  -7    0.50    0.25 
 -13  -5   7    0.05    0.09 
 -13  -6   7    0.37    0.12 
 -13  -7   7    0.05    0.10 
 -13  -8   7    1.24    0.21 
 -13  -9   7   -0.07    0.10 
 -13 -10   7    0.03    0.14 
 -13 -11   7    0.12    0.16 
 -13 -12   7    0.00    0.19 
  13 -13  -6    0.18    0.23 
  13 -12  -6    0.27    0.21 
  13 -11  -6    0.48    0.22 
  13 -10  -6    0.40    0.21 
  13  -9  -6    0.14    0.18 
  13  -8  -6    0.24    0.18 
  13  -7  -6   -0.07    0.15 
  13  -6  -6    0.11    0.15 
  13  -6  -6   -0.06    0.16 
  13  -5  -6    0.56    0.19 
  13  -5  -6    1.03    0.24 
  13  -4  -6   -0.06    0.12 
  13  -4  -6   -0.04    0.16 
  13  -3  -6    0.56    0.19 
  13  -3  -6    0.45    0.21 
  13  -2  -6    0.35    0.19 
  13  -2  -6    0.30    0.16 
  13  -1  -6   -0.06    0.12 
  13  -1  -6   -0.03    0.16 
  13   0  -6    3.66    0.40 
  13   0  -6    4.10    0.42 
  13   1  -6    0.02    0.16 
  13   1  -6    0.16    0.16 
  13   2  -6    0.24    0.18 
  13   2  -6    0.41    0.19 
  13   3  -6    0.37    0.18 
  13   3  -6    0.56    0.24 
  13   4  -6   -0.19    0.14 
 -13  -5   6    0.99    0.18 
 -13  -6   6    0.23    0.12 
 -13  -7   6   -0.03    0.08 
 -13  -8   6    0.01    0.09 
 -13  -9   6    0.00    0.10 
 -13 -10   6    0.61    0.18 
 -13 -11   6    0.15    0.15 
 -13 -12   6    0.20    0.17 
 -13 -13   6   -0.10    0.19 
  13 -13  -5    0.14    0.21 
  13 -12  -5    0.36    0.22 
  13 -11  -5    0.07    0.19 
  13 -10  -5    0.24    0.18 
  13  -9  -5    0.71    0.21 
  13  -8  -5    0.19    0.17 
  13  -7  -5    1.15    0.23 
  13  -6  -5    0.02    0.13 
  13  -6  -5    0.01    0.15 
  13  -5  -5    0.37    0.18 
  13  -5  -5    0.29    0.16 
  13  -4  -5   -0.12    0.13 
  13  -4  -5   -0.18    0.15 
  13  -3  -5    0.50    0.17 
  13  -3  -5    0.35    0.17 
  13  -2  -5    0.23    0.15 
  13  -2  -5    0.06    0.17 
  13  -1  -5    0.61    0.18 
  13  -1  -5    0.58    0.21 
  13   0  -5   -0.09    0.13 
  13   0  -5    0.07    0.16 
  13   1  -5    0.58    0.20 
  13   1  -5    0.73    0.22 
  13   2  -5    0.16    0.15 
  13   2  -5    0.29    0.17 
  13   3  -5    0.35    0.17 
  13   3  -5    0.24    0.18 
  13   4  -5   -0.05    0.15 
  13   5  -5    0.29    0.19 
 -13  -6   5    0.00    0.08 
 -13  -7   5    2.01    0.26 
 -13  -8   5    0.07    0.10 
 -13  -9   5    0.58    0.14 
 -13 -10   5    0.01    0.11 
 -13 -11   5    0.25    0.15 
 -13 -12   5   -0.02    0.14 
 -13 -13   5   -0.04    0.17 
  13 -13  -4    0.09    0.20 
  13 -12  -4    0.09    0.20 
  13 -11  -4    0.16    0.19 
  13 -10  -4    0.32    0.18 
  13  -9  -4    0.33    0.17 
  13  -8  -4    0.06    0.15 
  13  -7  -4    0.22    0.15 
  13  -7  -4    0.23    0.16 
  13  -6  -4    0.17    0.15 
  13  -6  -4    0.11    0.13 
  13  -5  -4    2.21    0.29 
  13  -5  -4    2.49    0.29 
  13  -4  -4    1.71    0.25 
  13  -4  -4    1.16    0.23 
  13  -3  -4    0.41    0.19 
  13  -3  -4    0.48    0.16 
  13  -2  -4    0.18    0.14 
  13  -2  -4    0.05    0.15 
  13  -1  -4   -0.05    0.15 
  13  -1  -4    0.13    0.14 
  13   0  -4    0.30    0.15 
  13   0  -4    0.38    0.18 
  13   1  -4    0.19    0.16 
  13   1  -4    0.32    0.17 
  13   2  -4    0.31    0.17 
  13   2  -4    0.16    0.16 
  13   3  -4    0.20    0.16 
  13   3  -4    0.30    0.19 
  13   4  -4    1.85    0.31 
  13   5  -4    1.60    0.29 
  13   6  -4    0.32    0.20 
 -13  -7   4    0.21    0.10 
 -13  -8   4    0.02    0.10 
 -13  -9   4    0.58    0.15 
 -13 -10   4    0.15    0.12 
 -13 -11   4    0.13    0.13 
 -13 -12   4   -0.06    0.13 
 -13 -13   4    0.07    0.17 
  13 -14  -3   -0.04    0.22 
  13 -13  -3   -0.01    0.19 
  13 -12  -3    0.19    0.18 
  13 -11  -3    0.07    0.17 
  13 -10  -3    0.13    0.16 
  13  -9  -3    0.26    0.17 
  13  -8  -3    2.16    0.28 
  13  -8  -3    1.91    0.25 
  13  -7  -3    1.73    0.26 
  13  -7  -3    2.01    0.25 
  13  -6  -3    0.62    0.19 
  13  -6  -3    0.88    0.19 
  13  -5  -3    0.94    0.20 
  13  -5  -3    0.73    0.18 
  13  -4  -3    0.54    0.17 
  13  -4  -3    0.58    0.18 
  13  -3  -3    0.29    0.14 
  13  -3  -3    0.17    0.15 
  13  -2  -3    4.48    0.38 
  13  -2  -3    4.72    0.38 
  13  -1  -3    0.12    0.15 
  13  -1  -3   -0.07    0.11 
  13   0  -3   -0.05    0.14 
  13   0  -3    0.00    0.11 
  13   1  -3    0.05    0.12 
  13   1  -3    0.07    0.14 
  13   2  -3    5.45    0.44 
  13   2  -3    5.20    0.43 
  13   3  -3    0.10    0.15 
  13   3  -3    0.17    0.16 
  13   4  -3    0.46    0.18 
  13   5  -3    0.84    0.22 
  13   6  -3    0.86    0.23 
  13   7  -3    2.47    0.38 
 -13  -8   3    2.15    0.27 
 -13  -9   3    0.27    0.11 
 -13 -10   3    0.11    0.11 
 -13 -11   3    0.13    0.12 
 -13 -12   3    0.16    0.14 
 -13 -13   3    0.15    0.17 
 -13 -14   3    0.04    0.20 
  13 -14  -2    0.18    0.21 
  13 -13  -2   -0.07    0.19 
  13 -12  -2    0.06    0.16 
  13 -11  -2    0.17    0.16 
  13 -10  -2    0.47    0.17 
  13  -9  -2    0.11    0.14 
  13  -8  -2    0.70    0.18 
  13  -8  -2    0.98    0.19 
  13  -7  -2    0.06    0.14 
  13  -7  -2    0.03    0.14 
  13  -6  -2    0.72    0.18 
  13  -6  -2    0.60    0.18 
  13  -5  -2    0.08    0.13 
  13  -5  -2    0.09    0.12 
  13  -4  -2    0.10    0.14 
  13  -4  -2    0.10    0.12 
  13  -3  -2    0.80    0.19 
  13  -3  -2    1.34    0.22 
  13  -2  -2    0.69    0.18 
  13  -2  -2    0.95    0.21 
  13  -1  -2    0.16    0.12 
  13  -1  -2    0.77    0.20 
  13   0  -2    9.73    0.60 
  13   0  -2    9.75    0.62 
  13   1  -2    0.58    0.20 
  13   1  -2    0.33    0.15 
  13   2  -2    0.53    0.19 
  13   2  -2    0.50    0.17 
  13   3  -2    0.85    0.21 
  13   4  -2    0.16    0.14 
  13   5  -2   -0.01    0.12 
  13   6  -2    0.77    0.22 
  13   7  -2    0.22    0.18 
  13   8  -2    0.79    0.26 
 -13  -9   2    0.00    0.09 
 -13 -10   2    0.89    0.18 
 -13 -11   2    0.13    0.11 
 -13 -12   2    0.21    0.13 
 -13 -13   2    0.01    0.14 
  13 -14  -1    0.11    0.21 
  13 -13  -1    0.26    0.20 
  13 -12  -1    0.15    0.17 
  13 -11  -1    0.04    0.15 
  13 -10  -1    0.12    0.14 
  13  -9  -1    0.82    0.18 
  13  -9  -1    0.79    0.21 
  13  -8  -1    1.48    0.24 
  13  -8  -1    1.49    0.21 
  13  -7  -1    0.51    0.16 
  13  -7  -1    0.40    0.17 
  13  -6  -1    0.64    0.17 
  13  -6  -1    0.46    0.16 
  13  -5  -1   -0.05    0.12 
  13  -5  -1    0.10    0.13 
  13  -4  -1    0.50    0.16 
  13  -4  -1    0.65    0.18 
  13  -3  -1   -0.04    0.13 
  13  -3  -1   -0.05    0.11 
  13  -2  -1    1.53    0.22 
  13  -2  -1    0.96    0.20 
  13  -1  -1    6.03    0.45 
  13  -1  -1    6.87    0.44 
  13   0  -1   -0.02    0.10 
  13   0  -1   -0.04    0.11 
  13   1  -1    6.20    0.44 
  13   1  -1    6.30    0.46 
  13   2  -1    1.31    0.22 
  13   2  -1    0.74    0.19 
  13   3  -1   -0.04    0.10 
  13   4  -1    0.50    0.18 
  13   5  -1    0.19    0.15 
  13   6  -1    0.33    0.17 
  13   7  -1    0.44    0.19 
  13   8  -1    1.62    0.30 
  13   9  -1    0.92    0.26 
 -13 -10   1    0.15    0.11 
 -13 -11   1    0.11    0.12 
 -13 -12   1    0.20    0.14 
 -13 -13   1    0.03    0.15 
  13 -14   0    0.09    0.21 
  13 -13   0    0.08    0.19 
  13 -12   0    0.11    0.17 
  13 -11   0    0.17    0.15 
  13 -10   0    0.19    0.14 
  13 -10   0   -0.02    0.15 
  13  -9   0   -0.04    0.13 
  13  -9   0   -0.03    0.14 
  13  -8   0    0.07    0.13 
  13  -8   0    0.33    0.15 
  13  -7   0    0.01    0.13 
  13  -7   0    0.11    0.12 
  13  -6   0    0.07    0.13 
  13  -6   0   -0.09    0.11 
  13  -5   0    1.11    0.21 
  13  -5   0    1.10    0.18 
  13  -4   0   -0.01    0.10 
  13  -4   0   -0.08    0.11 
  13  -3   0    0.18    0.10 
  13  -3   0    0.49    0.15 
  13  -2   0   -0.09    0.09 
  13  -2   0    0.23    0.12 
  13  -1   0    2.76    0.32 
  13  -1   0    3.24    0.29 
  13   0   0    0.04    0.12 
  13   0   0   -0.10    0.09 
  13   1   0    3.26    0.30 
  13   1   0    3.11    0.34 
  13   2   0   -0.14    0.08 
  13   3   0    0.57    0.17 
  13   4   0   -0.05    0.11 
  13   5   0    1.12    0.23 
  13   6   0   -0.06    0.13 
  13   7   0    0.02    0.14 
  13   8   0   -0.09    0.17 
  13   9   0   -0.06    0.19 
 -13 -10   0    0.04    0.10 
 -13 -11   0    0.18    0.12 
 -13 -12   0    0.08    0.12 
 -13 -14   0    0.24    0.30 
  13 -14   1    0.03    0.20 
  13 -13   1    0.17    0.19 
  13 -12   1   -0.07    0.16 
  13 -11   1   -0.02    0.14 
  13 -10   1    0.21    0.14 
  13 -10   1   -0.06    0.14 
  13  -9   1    0.57    0.16 
  13  -9   1    0.91    0.21 
  13  -8   1    1.35    0.20 
  13  -8   1    1.58    0.25 
  13  -7   1    0.53    0.15 
  13  -7   1    0.40    0.15 
  13  -6   1    0.68    0.17 
  13  -6   1    0.13    0.12 
  13  -5   1    0.19    0.12 
  13  -5   1    0.16    0.12 
  13  -4   1    0.64    0.16 
  13  -4   1    0.53    0.16 
  13  -3   1   -0.03    0.12 
  13  -3   1    0.06    0.10 
  13  -2   1    1.23    0.21 
  13  -2   1    1.17    0.19 
  13  -1   1    5.75    0.42 
  13  -1   1    6.17    0.40 
  13   0   1    0.03    0.10 
  13   0   1   -0.06    0.11 
 -13  -1  -1    6.13    0.36 
  13   1   1    5.89    0.44 
  13   1   1    6.42    0.42 
 -13  -2  -1    1.15    0.14 
  13   2   1    1.06    0.21 
 -13  -3  -1   -0.06    0.09 
  13   3   1    0.00    0.10 
 -13  -4  -1    0.33    0.11 
  13   4   1    0.71    0.18 
 -13  -5  -1    0.06    0.09 
  13   5   1    0.00    0.12 
 -13  -6  -1    0.48    0.12 
  13   6   1    0.47    0.17 
 -13  -7  -1    0.41    0.12 
  13   7   1    0.80    0.22 
  13   8   1    1.63    0.30 
  13   9   1    1.03    0.27 
  13  10   1    0.21    0.22 
 -13 -11  -1   -0.05    0.10 
 -13 -12  -1    0.03    0.13 
 -13 -13  -1    0.06    0.23 
 -13 -14  -1    0.02    0.28 
  13 -11   2   -0.05    0.16 
  13 -11   2   -0.01    0.15 
  13 -10   2    0.53    0.19 
  13 -10   2    0.67    0.17 
  13  -9   2    0.19    0.15 
  13  -9   2    0.25    0.14 
  13  -8   2    0.89    0.19 
  13  -8   2    0.70    0.15 
  13  -7   2    0.15    0.12 
  13  -7   2    0.23    0.14 
  13  -6   2    0.92    0.19 
  13  -6   2    0.79    0.15 
  13  -5   2   -0.01    0.11 
  13  -5   2    0.07    0.11 
  13  -4   2    0.21    0.12 
  13  -4   2    0.02    0.12 
  13  -3   2    0.73    0.18 
  13  -3   2    0.98    0.17 
  13  -2   2    0.76    0.16 
  13  -2   2    0.62    0.17 
  13  -1   2    0.50    0.14 
  13  -1   2    0.45    0.15 
 -13   0  -2   10.45    0.56 
  13   0   2   11.02    0.58 
  13   0   2    9.11    0.61 
 -13  -1  -2    0.75    0.14 
  13   1   2    0.38    0.14 
 -13  -2  -2    0.61    0.13 
  13   2   2    0.61    0.17 
 -13  -3  -2    0.88    0.15 
  13   3   2    0.65    0.17 
 -13  -4  -2    0.03    0.09 
  13   4   2    0.01    0.11 
 -13  -5  -2   -0.06    0.09 
  13   5   2    0.06    0.12 
 -13  -6  -2    0.67    0.14 
  13   6   2    0.80    0.21 
 -13  -7  -2    0.10    0.10 
  13   7   2    0.10    0.15 
 -13  -8  -2    0.83    0.15 
  13   8   2    0.63    0.21 
 -13  -9  -2    0.14    0.11 
  13   9   2    0.29    0.18 
 -13 -10  -2    0.78    0.16 
  13  10   2    0.69    0.24 
 -13 -11  -2   -0.14    0.13 
 -13 -12  -2    0.24    0.22 
  13 -12   3   -0.14    0.18 
  13 -11   3    0.02    0.15 
  13 -10   3    0.22    0.16 
  13  -9   3    0.40    0.15 
  13  -8   3    2.21    0.29 
  13  -7   3    1.49    0.24 
  13  -6   3    0.95    0.20 
  13  -5   3    0.87    0.19 
  13  -4   3    0.49    0.15 
  13  -3   3    0.11    0.11 
  13  -2   3    5.64    0.41 
  13  -1   3   -0.02    0.10 
 -13   0  -3    0.04    0.11 
  13   0   3    0.09    0.10 
 -13  -1  -3   -0.02    0.11 
  13   1   3    0.11    0.10 
 -13  -2  -3    4.95    0.34 
  13   2   3    5.24    0.39 
 -13  -3  -3    0.16    0.12 
  13   3   3    0.25    0.14 
 -13  -4  -3    0.67    0.14 
  13   4   3    0.55    0.17 
 -13  -5  -3    0.84    0.15 
  13   5   3    0.70    0.18 
 -13  -6  -3    1.18    0.17 
  13   6   3    0.87    0.21 
 -13  -7  -3    1.88    0.21 
  13   7   3    1.66    0.28 
 -13  -8  -3    2.39    0.23 
  13   8   3    2.27    0.33 
 -13  -9  -3    0.55    0.14 
  13   9   3    0.61    0.22 
 -13 -10  -3    0.19    0.13 
  13  10   3    0.00    0.18 
 -13 -11  -3    0.17    0.12 
 -13 -12  -3   -0.12    0.14 
 -13 -13  -3    0.08    0.19 
  13 -12   4   -0.03    0.17 
  13 -11   4   -0.02    0.15 
  13 -10   4    0.22    0.17 
  13  -9   4    0.67    0.17 
  13  -8   4   -0.04    0.12 
  13  -7   4    0.33    0.14 
  13  -6   4    0.36    0.14 
  13  -5   4    2.14    0.28 
  13  -4   4    1.51    0.24 
  13  -3   4    0.41    0.15 
  13  -2   4   -0.05    0.10 
 -13   1  -4    0.28    0.15 
  13  -1   4    0.24    0.11 
 -13   0  -4    0.39    0.15 
  13   0   4    0.08    0.10 
 -13  -1  -4    0.38    0.14 
  13   1   4    0.50    0.16 
 -13  -2  -4    0.18    0.12 
  13   2   4    0.24    0.12 
 -13  -3  -4    0.47    0.15 
  13   3   4    0.28    0.12 
 -13  -4  -4    1.82    0.20 
  13   4   4    1.48    0.25 
 -13  -5  -4    2.10    0.22 
  13   5   4    2.12    0.29 
 -13  -6  -4    0.16    0.11 
  13   6   4    0.20    0.14 
 -13  -7  -4    0.29    0.12 
  13   7   4    0.10    0.15 
 -13  -8  -4    0.14    0.12 
  13   8   4   -0.24    0.14 
 -13  -9  -4    0.54    0.15 
  13   9   4    0.55    0.21 
 -13 -10  -4    0.19    0.13 
  13  10   4   -0.12    0.18 
 -13 -11  -4   -0.03    0.13 
 -13 -12  -4   -0.04    0.14 
 -13 -13  -4    0.18    0.19 
  13 -13   5    0.08    0.25 
  13 -12   5    0.20    0.19 
  13 -11   5    1.16    0.24 
  13 -10   5    0.04    0.14 
  13  -9   5    0.65    0.18 
  13  -8   5    0.10    0.13 
  13  -7   5    1.39    0.23 
  13  -6   5    0.12    0.11 
  13  -5   5    0.39    0.14 
  13  -4   5    0.01    0.11 
  13  -3   5    0.46    0.16 
  13  -2   5    0.24    0.12 
 -13   1  -5    0.73    0.18 
  13  -1   5    0.37    0.13 
 -13   0  -5    0.13    0.13 
  13   0   5   -0.11    0.08 
 -13  -1  -5    0.69    0.16 
  13   1   5    0.61    0.17 
 -13  -2  -5    0.32    0.13 
  13   2   5    0.35    0.15 
 -13  -3  -5    0.51    0.16 
  13   3   5    0.48    0.16 
 -13  -4  -5   -0.04    0.11 
  13   4   5    0.19    0.13 
 -13  -5  -5    0.35    0.13 
  13   5   5    0.46    0.17 
 -13  -6  -5    0.10    0.11 
  13   6   5    0.03    0.13 
 -13  -7  -5    1.60    0.21 
  13   7   5    1.60    0.27 
 -13  -8  -5    0.12    0.12 
  13   8   5    0.08    0.17 
 -13  -9  -5    0.59    0.17 
  13   9   5    0.56    0.23 
 -13 -10  -5   -0.02    0.12 
 -13 -11  -5    0.17    0.15 
 -13 -12  -5   -0.09    0.16 
 -13 -13  -5    0.04    0.21 
  13 -13   6    0.22    0.26 
  13 -12   6    0.07    0.20 
  13 -11   6    0.05    0.17 
  13 -10   6    0.58    0.19 
  13  -9   6   -0.03    0.12 
  13  -8   6    0.06    0.12 
  13  -7   6   -0.02    0.11 
  13  -6   6    0.10    0.12 
  13  -5   6    0.61    0.17 
  13  -4   6    0.01    0.11 
  13  -3   6    0.56    0.16 
  13  -2   6    0.10    0.11 
 -13   1  -6    0.06    0.14 
  13  -1   6    0.08    0.10 
 -13   0  -6    4.05    0.35 
  13   0   6    3.98    0.34 
 -13  -1  -6   -0.02    0.13 
  13   1   6    0.03    0.11 
 -13  -2  -6    0.34    0.15 
  13   2   6    0.27    0.14 
 -13  -3  -6    0.60    0.17 
  13   3   6    0.51    0.16 
 -13  -4  -6    0.04    0.11 
  13   4   6   -0.05    0.12 
 -13  -5  -6    0.84    0.18 
  13   5   6    1.05    0.21 
 -13  -6  -6    0.01    0.11 
  13   6   6    0.30    0.16 
 -13  -7  -6    0.02    0.11 
  13   7   6    0.12    0.14 
 -13  -8  -6    0.05    0.12 
  13   8   6    0.03    0.17 
 -13  -9  -6    0.13    0.13 
 -13 -10  -6    0.60    0.18 
 -13 -11  -6    0.11    0.16 
 -13 -12  -6    0.07    0.20 
 -13 -13  -6   -0.09    0.22 
  13 -12   7    0.10    0.22 
  13 -11   7   -0.04    0.18 
  13 -10   7    0.04    0.16 
  13  -9   7    0.03    0.13 
  13  -8   7    0.88    0.21 
  13  -7   7    0.01    0.12 
  13  -6   7    0.38    0.15 
  13  -5   7   -0.06    0.11 
  13  -4   7    0.45    0.15 
  13  -3   7    0.07    0.11 
 -13   2  -7    1.96    0.29 
  13  -2   7    2.32    0.29 
 -13   1  -7    0.88    0.21 
  13  -1   7    0.86    0.18 
 -13   0  -7   -0.14    0.13 
  13   0   7    0.00    0.10 
 -13  -1  -7    0.85    0.20 
  13   1   7    1.25    0.23 
 -13  -2  -7    2.53    0.29 
  13   2   7    2.89    0.34 
 -13  -3  -7    0.05    0.13 
  13   3   7    0.15    0.14 
 -13  -4  -7    0.63    0.17 
  13   4   7    0.39    0.17 
 -13  -5  -7    0.14    0.12 
  13   5   7    0.04    0.13 
 -13  -6  -7    0.46    0.16 
  13   6   7    0.30    0.16 
 -13  -7  -7    0.06    0.13 
  13   7   7    0.05    0.16 
 -13  -8  -7    1.23    0.21 
  13   8   7    1.31    0.27 
 -13  -9  -7    0.06    0.13 
 -13 -10  -7   -0.01    0.16 
 -13 -11  -7    0.07    0.18 
 -13 -12  -7   -0.09    0.21 
  13 -12   8    0.07    0.24 
  13 -11   8    0.08    0.20 
  13 -10   8    0.20    0.20 
  13  -9   8    0.06    0.16 
  13  -8   8    0.13    0.13 
  13  -7   8    0.10    0.13 
  13  -6   8   -0.14    0.10 
  13  -5   8    0.11    0.12 
  13  -4   8    1.32    0.24 
  13  -3   8    1.44    0.24 
 -13   2  -8    0.70    0.22 
  13  -2   8    0.41    0.15 
 -13   1  -8    1.34    0.27 
  13  -1   8    1.03    0.22 
 -13   0  -8    0.51    0.20 
  13   0   8    0.74    0.19 
 -13  -1  -8    1.17    0.23 
  13   1   8    1.31    0.24 
 -13  -2  -8    0.67    0.19 
  13   2   8    0.79    0.20 
 -13  -3  -8    1.27    0.23 
  13   3   8    1.95    0.29 
 -13  -4  -8    1.32    0.22 
  13   4   8    1.34    0.24 
 -13  -5  -8    0.19    0.14 
  13   5   8    0.20    0.16 
 -13  -6  -8    0.09    0.13 
  13   6   8    0.00    0.17 
 -13  -7  -8    0.02    0.14 
  13   7   8    0.09    0.17 
 -13  -8  -8    0.06    0.14 
 -13  -9  -8   -0.09    0.15 
 -13 -10  -8    0.01    0.17 
 -13 -11  -8    0.00    0.21 
 -13 -12  -8    0.10    0.25 
  13 -11   9    0.08    0.23 
  13 -10   9    0.21    0.21 
  13  -9   9    0.24    0.19 
  13  -8   9    0.05    0.16 
  13  -7   9    0.14    0.15 
  13  -6   9    0.30    0.16 
  13  -5   9    0.09    0.13 
  13  -4   9    0.28    0.15 
  13  -3   9    0.92    0.20 
 -13   2  -9    0.32    0.20 
  13  -2   9    0.49    0.16 
 -13   1  -9    2.07    0.33 
  13  -1   9    2.22    0.30 
 -13   0  -9    0.07    0.17 
  13   0   9    0.21    0.14 
 -13  -1  -9    2.19    0.31 
  13   1   9    2.07    0.31 
 -13  -2  -9    0.80    0.20 
  13   2   9    0.83    0.21 
 -13  -3  -9    0.85    0.21 
  13   3   9    1.11    0.23 
 -13  -4  -9    0.54    0.19 
  13   4   9    0.44    0.18 
 -13  -5  -9    0.49    0.17 
  13   5   9    0.14    0.17 
 -13  -6  -9    0.45    0.18 
  13   6   9    0.37    0.20 
 -13  -7  -9    0.31    0.17 
 -13  -8  -9   -0.02    0.15 
 -13  -9  -9    0.24    0.19 
 -13 -10  -9    0.00    0.21 
 -13 -11  -9   -0.15    0.23 
  13 -10  10    0.62    0.26 
  13  -9  10    0.17    0.21 
  13  -8  10    0.12    0.18 
  13  -7  10    0.09    0.16 
  13  -6  10   -0.11    0.13 
  13  -5  10    0.48    0.18 
  13  -4  10   -0.03    0.12 
  13  -3  10   -0.04    0.12 
 -13   2 -10    0.16    0.17 
  13  -2  10   -0.09    0.12 
 -13   1 -10    0.41    0.20 
  13  -1  10    0.42    0.16 
 -13   0 -10    0.89    0.24 
  13   0  10    0.62    0.19 
 -13  -1 -10    0.38    0.18 
  13   1  10    0.54    0.17 
 -13  -2 -10    0.14    0.15 
  13   2  10    0.03    0.15 
 -13  -3 -10    0.35    0.17 
  13   3  10    0.21    0.17 
 -13  -4 -10   -0.02    0.15 
  13   4  10   -0.01    0.16 
 -13  -5 -10    0.16    0.17 
  13   5  10    0.48    0.21 
 -13  -6 -10    0.07    0.16 
  13   6  10   -0.13    0.18 
 -13  -7 -10    0.07    0.17 
 -13  -8 -10    0.11    0.19 
 -13  -9 -10    0.04    0.22 
 -13 -10 -10    0.11    0.25 
  13 -10  11   -0.01    0.24 
  13  -9  11    0.11    0.23 
  13  -8  11    0.31    0.22 
  13  -7  11    0.15    0.19 
  13  -6  11    0.05    0.14 
  13  -5  11    0.00    0.14 
  13  -4  11    0.14    0.16 
  13  -3  11    0.28    0.16 
 -13   2 -11    0.45    0.23 
  13  -2  11    0.10    0.15 
 -13   1 -11    0.15    0.18 
  13  -1  11    0.11    0.15 
 -13   0 -11   -0.05    0.16 
  13   0  11   -0.01    0.15 
 -13  -1 -11    0.18    0.19 
  13   1  11    0.35    0.16 
 -13  -2 -11    0.16    0.18 
  13   2  11    0.35    0.18 
 -13  -3 -11    0.11    0.16 
  13   3  11    0.18    0.18 
 -13  -4 -11    0.08    0.19 
  13   4  11    0.22    0.19 
 -13  -5 -11    0.17    0.19 
  13   5  11    0.22    0.20 
 -13  -6 -11    0.11    0.20 
 -13  -7 -11    0.12    0.21 
 -13  -8 -11    0.18    0.25 
 -13  -9 -11    0.19    0.27 
 -13 -10 -11   -0.03    0.28 
  13  -9  12   -0.07    0.23 
  13  -8  12   -0.04    0.22 
  13  -7  12   -0.11    0.20 
  13  -6  12    0.07    0.16 
  13  -5  12   -0.05    0.15 
  13  -4  12    0.04    0.16 
  13  -3  12   -0.14    0.13 
 -13   2 -12    0.18    0.23 
  13  -2  12    0.01    0.16 
 -13   1 -12    0.00    0.21 
  13  -1  12   -0.03    0.15 
 -13   0 -12    0.40    0.23 
  13   0  12    0.55    0.20 
 -13  -1 -12    0.15    0.20 
  13   1  12   -0.14    0.15 
 -13  -2 -12    0.29    0.21 
  13   2  12    0.21    0.18 
 -13  -3 -12    0.30    0.21 
  13   3  12    0.11    0.19 
 -13  -4 -12    0.35    0.24 
  13   4  12    0.04    0.19 
 -13  -5 -12    0.09    0.24 
 -13  -6 -12    0.20    0.25 
 -13  -7 -12    0.22    0.26 
 -13  -8 -12   -0.02    0.28 
 -13  -9 -12    0.05    0.31 
  13  -7  13    0.36    0.20 
  13  -6  13    0.08    0.18 
  13  -5  13    0.08    0.17 
  13  -4  13    0.33    0.20 
  13  -3  13    0.15    0.18 
 -13   2 -13    0.24    0.29 
  13  -2  13    0.29    0.20 
 -13   1 -13    0.16    0.25 
  13  -1  13    0.30    0.20 
 -13   0 -13    0.32    0.26 
  13   0  13    0.08    0.20 
 -13  -1 -13    0.01    0.23 
  13   1  13   -0.06    0.19 
 -13  -2 -13   -0.03    0.26 
  13   2  13    0.36    0.21 
 -13  -3 -13    0.23    0.27 
  13   3  13    0.43    0.24 
 -13  -4 -13    0.28    0.28 
 -13  -5 -13    0.00    0.28 
 -13  -6 -13    0.18    0.31 
 -13  -7 -13    0.21    0.33 
  13  -6  14    0.14    0.20 
  13  -5  14    0.27    0.21 
  13  -4  14   -0.07    0.17 
  13  -3  14    0.00    0.18 
 -13   2 -14    0.23    0.35 
  13  -2  14    0.20    0.20 
 -13   1 -14    0.07    0.32 
  13  -1  14    0.16    0.21 
 -13   0 -14    0.04    0.29 
  13   0  14    0.04    0.19 
 -13  -1 -14    0.31    0.32 
  13   1  14    0.19    0.22 
 -13  -2 -14    0.05    0.30 
  13   2  14    0.06    0.21 
 -13  -3 -14    0.28    0.33 
 -13  -4 -14    0.26    0.33 
 -13  -5 -14    0.08    0.35 
 -13  -6 -14    0.01    0.35 
  13  -3  15    0.18    0.21 
 -13   2 -15    0.21    0.39 
  13  -2  15   -0.01    0.19 
 -13   1 -15    0.18    0.40 
  13  -1  15    0.09    0.21 
 -13   0 -15    0.11    0.37 
  13   0  15    0.08    0.21 
 -13  -1 -15    0.41    0.39 
  13   1  15   -0.12    0.23 
 -13  -2 -15    0.31    0.39 
 -13  -3 -15    0.00    0.37 
  14  -4 -14   -0.27    0.41 
  14  -3 -14    0.34    0.45 
  14  -2 -14    0.02    0.41 
  14  -1 -14   -0.01    0.40 
  14   0 -14    0.23    0.42 
 -14  -1  14   -0.16    0.12 
  14   1 -14   -0.31    0.39 
 -14  -2  14    0.25    0.15 
  14   2 -14   -0.09    0.40 
 -14  -3  14   -0.09    0.12 
  14   3 -14    0.19    0.46 
 -14  -4  14    0.00    0.15 
  14  -6 -13   -0.30    0.39 
  14  -5 -13    0.22    0.40 
  14  -4 -13    0.15    0.37 
  14  -3 -13   -0.04    0.34 
  14  -2 -13    0.14    0.34 
  14  -1 -13   -0.09    0.31 
 -14   0  13   -0.03    0.11 
  14   0 -13   -0.02    0.32 
 -14  -1  13   -0.04    0.11 
  14   1 -13    0.23    0.35 
 -14  -2  13    0.15    0.14 
  14   2 -13    0.19    0.35 
 -14  -3  13    0.02    0.12 
  14   3 -13    0.09    0.38 
 -14  -4  13    0.04    0.13 
 -14  -5  13    0.07    0.15 
 -14  -6  13    0.00    0.15 
  14  -8 -12    0.13    0.32 
  14  -7 -12    0.03    0.30 
  14  -6 -12    0.41    0.33 
  14  -5 -12   -0.04    0.32 
  14  -4 -12   -0.07    0.30 
  14  -3 -12    0.07    0.30 
  14  -2 -12    0.13    0.31 
 -14   1  12    0.33    0.13 
  14  -1 -12   -0.10    0.28 
 -14   0  12    0.22    0.12 
  14   0 -12    0.15    0.30 
 -14  -1  12    0.41    0.13 
  14   1 -12    0.19    0.31 
 -14  -2  12    0.17    0.12 
  14   2 -12   -0.21    0.29 
 -14  -3  12    0.05    0.11 
  14   3 -12   -0.27    0.28 
 -14  -4  12   -0.08    0.11 
 -14  -5  12    0.34    0.15 
 -14  -6  12    0.07    0.15 
 -14  -7  12    0.08    0.15 
  14  -9 -11    0.06    0.30 
  14  -8 -11    0.09    0.30 
  14  -7 -11    0.21    0.30 
  14  -6 -11    0.21    0.30 
  14  -5 -11    0.22    0.28 
  14  -4 -11    0.21    0.29 
  14  -3 -11    0.54    0.31 
 -14   2  11    0.12    0.11 
  14  -2 -11    0.14    0.27 
 -14   1  11    0.10    0.10 
  14  -1 -11    0.42    0.28 
 -14   0  11    0.10    0.10 
  14   0 -11    0.10    0.27 
 -14  -1  11    0.06    0.11 
  14   1 -11    0.10    0.26 
 -14  -2  11    0.24    0.13 
  14   2 -11    0.00    0.26 
 -14  -3  11    0.47    0.14 
  14   3 -11    0.39    0.34 
 -14  -4  11    0.14    0.13 
  14   4 -11    0.14    0.32 
 -14  -5  11    0.05    0.12 
 -14  -6  11    0.16    0.13 
 -14  -7  11    0.42    0.16 
 -14  -8  11    0.36    0.17 
 -14  -9  11   -0.03    0.14 
  14 -10 -10    0.22    0.28 
  14  -9 -10    0.00    0.26 
  14  -8 -10   -0.05    0.25 
  14  -7 -10    0.45    0.30 
  14  -6 -10    0.28    0.28 
  14  -5 -10    0.19    0.26 
  14  -4 -10   -0.10    0.26 
 -14   3  10    0.11    0.11 
  14  -3 -10    0.17    0.29 
 -14   2  10    0.17    0.11 
  14  -2 -10    0.42    0.28 
 -14   1  10    0.25    0.12 
  14  -1 -10    0.56    0.29 
 -14   0  10    0.14    0.11 
  14   0 -10    0.03    0.23 
 -14  -1  10    0.11    0.10 
  14   1 -10    0.18    0.26 
 -14  -2  10   -0.10    0.08 
  14   2 -10   -0.08    0.25 
 -14  -3  10   -0.09    0.09 
  14   3 -10   -0.20    0.26 
 -14  -4  10    0.11    0.12 
  14   4 -10    0.18    0.29 
 -14  -5  10    0.14    0.13 
 -14  -6  10    0.04    0.12 
 -14  -7  10    0.22    0.14 
 -14  -8  10   -0.05    0.12 
 -14  -9  10   -0.13    0.17 
 -14 -10  10    0.14    0.20 
  14 -10  -9    0.10    0.25 
  14  -9  -9   -0.12    0.24 
  14  -8  -9    0.28    0.26 
  14  -7  -9   -0.13    0.23 
  14  -6  -9    0.55    0.27 
  14  -5  -9   -0.06    0.23 
  14  -4  -9    0.14    0.25 
  14  -3  -9    0.05    0.24 
 -14   2   9    1.17    0.18 
  14  -2  -9    1.07    0.32 
 -14   1   9    0.03    0.08 
  14  -1  -9   -0.11    0.20 
 -14   0   9   -0.03    0.09 
  14   0  -9   -0.17    0.20 
 -14  -1   9    0.14    0.10 
  14   1  -9   -0.13    0.19 
 -14  -2   9    1.11    0.20 
  14   2  -9    1.35    0.34 
 -14  -3   9    0.17    0.11 
  14   3  -9   -0.07    0.24 
 -14  -4   9   -0.04    0.09 
  14   4  -9    0.30    0.28 
 -14  -5   9   -0.02    0.10 
 -14  -6   9   -0.07    0.11 
 -14  -7   9    0.03    0.12 
 -14  -8   9    0.12    0.16 
 -14  -9   9   -0.06    0.16 
 -14 -10   9    0.04    0.19 
  14 -11  -8    0.20    0.24 
  14 -10  -8    0.00    0.22 
  14  -9  -8    0.14    0.23 
  14  -8  -8    0.37    0.23 
  14  -7  -8    0.61    0.25 
  14  -6  -8   -0.10    0.20 
  14  -5  -8    0.15    0.22 
  14  -4  -8    0.09    0.15 
  14  -4  -8   -0.19    0.19 
  14  -3  -8    1.02    0.28 
  14  -3  -8    0.54    0.20 
  14  -2  -8    1.03    0.28 
  14  -2  -8    0.96    0.23 
  14  -1  -8    0.97    0.30 
  14  -1  -8    0.76    0.21 
  14   0  -8    0.30    0.24 
  14   0  -8    0.74    0.23 
 -14  -1   8    1.06    0.18 
  14   1  -8    0.89    0.30 
 -14  -2   8    1.09    0.19 
  14   2  -8    0.74    0.27 
 -14  -3   8    0.89    0.17 
  14   3  -8    1.03    0.30 
 -14  -4   8    0.08    0.10 
  14   4  -8    0.25    0.25 
 -14  -5   8    0.00    0.10 
 -14  -6   8    0.08    0.10 
 -14  -7   8    0.60    0.17 
 -14  -8   8    0.53    0.17 
 -14  -9   8    0.18    0.16 
 -14 -10   8    0.04    0.17 
 -14 -11   8    0.02    0.19 
  14 -12  -7    0.17    0.25 
  14 -11  -7    0.08    0.23 
  14 -10  -7    0.00    0.22 
  14  -9  -7   -0.01    0.20 
  14  -8  -7   -0.07    0.20 
  14  -7  -7    0.98    0.26 
  14  -6  -7    0.05    0.20 
  14  -5  -7   -0.11    0.18 
  14  -5  -7   -0.05    0.13 
  14  -4  -7   -0.15    0.18 
  14  -4  -7   -0.06    0.13 
  14  -3  -7    2.24    0.32 
  14  -3  -7    2.46    0.37 
  14  -2  -7   -0.06    0.13 
  14  -2  -7   -0.14    0.18 
  14  -1  -7   -0.11    0.20 
  14  -1  -7   -0.02    0.15 
  14   0  -7   -0.21    0.18 
  14   0  -7   -0.03    0.14 
  14   1  -7    0.00    0.19 
  14   1  -7    0.07    0.16 
  14   2  -7    0.26    0.19 
  14   2  -7    0.14    0.22 
 -14  -3   7    2.79    0.30 
  14   3  -7    3.04    0.43 
 -14  -4   7    0.05    0.09 
 -14  -5   7    0.16    0.09 
 -14  -6   7   -0.08    0.09 
 -14  -7   7    1.06    0.20 
 -14  -8   7    0.17    0.13 
 -14  -9   7    0.05    0.14 
 -14 -10   7    0.04    0.15 
 -14 -11   7    0.25    0.20 
 -14 -12   7    0.00    0.20 
  14 -12  -6    0.12    0.22 
  14 -11  -6    0.15    0.22 
  14 -10  -6    0.04    0.20 
  14  -9  -6    0.19    0.21 
  14  -8  -6   -0.07    0.18 
  14  -7  -6    0.36    0.20 
  14  -6  -6    0.07    0.18 
  14  -6  -6    0.07    0.16 
  14  -5  -6   -0.13    0.14 
  14  -5  -6   -0.16    0.17 
  14  -4  -6    0.19    0.20 
  14  -4  -6    0.15    0.15 
  14  -3  -6    0.19    0.20 
  14  -3  -6    0.44    0.18 
  14  -2  -6   -0.17    0.16 
  14  -2  -6   -0.03    0.14 
  14  -1  -6    0.29    0.20 
  14  -1  -6    0.57    0.21 
  14   0  -6    0.41    0.18 
  14   0  -6    0.24    0.20 
  14   1  -6    0.46    0.19 
  14   1  -6    0.58    0.23 
  14   2  -6    0.08    0.16 
  14   2  -6   -0.06    0.18 
  14   3  -6    0.09    0.22 
  14   3  -6    0.20    0.18 
  14   4  -6    0.32    0.19 
 -14  -5   6   -0.09    0.08 
 -14  -6   6    0.00    0.09 
 -14  -7   6    0.01    0.10 
 -14  -8   6   -0.09    0.09 
 -14  -9   6    0.07    0.13 
 -14 -10   6   -0.10    0.13 
 -14 -11   6    0.66    0.22 
 -14 -12   6   -0.06    0.18 
  14 -12  -5    0.30    0.22 
  14 -11  -5   -0.03    0.20 
  14 -10  -5    0.33    0.21 
  14  -9  -5    0.39    0.20 
  14  -8  -5    0.57    0.21 
  14  -7  -5    0.11    0.17 
  14  -6  -5    0.14    0.15 
  14  -6  -5    0.03    0.17 
  14  -5  -5    0.39    0.19 
  14  -5  -5    0.51    0.18 
  14  -4  -5   -0.15    0.16 
  14  -4  -5   -0.03    0.13 
  14  -3  -5    0.84    0.25 
  14  -3  -5    0.91    0.22 
  14  -2  -5    3.69    0.39 
  14  -2  -5    2.54    0.34 
  14  -1  -5    0.03    0.15 
  14  -1  -5   -0.18    0.16 
  14   0  -5   -0.08    0.12 
  14   0  -5   -0.27    0.15 
  14   1  -5    0.06    0.18 
  14   1  -5    0.03    0.15 
  14   2  -5    2.78    0.37 
  14   2  -5    3.37    0.40 
  14   3  -5    0.51    0.24 
  14   3  -5    0.62    0.22 
  14   4  -5   -0.31    0.11 
  14   5  -5    0.57    0.22 
 -14  -6   5   -0.06    0.09 
 -14  -7   5    0.25    0.12 
 -14  -8   5    0.68    0.17 
 -14  -9   5    0.17    0.12 
 -14 -10   5    0.30    0.15 
 -14 -11   5   -0.08    0.15 
 -14 -12   5    0.11    0.17 
  14 -13  -4    0.08    0.22 
  14 -12  -4    0.21    0.22 
  14 -11  -4    0.27    0.19 
  14 -10  -4    0.20    0.19 
  14  -9  -4    0.05    0.17 
  14  -8  -4    0.38    0.18 
  14  -7  -4   -0.02    0.14 
  14  -7  -4    0.27    0.17 
  14  -6  -4    0.00    0.15 
  14  -6  -4   -0.16    0.12 
  14  -5  -4   -0.07    0.12 
  14  -5  -4    0.00    0.15 
  14  -4  -4    0.20    0.16 
  14  -4  -4    0.13    0.14 
  14  -3  -4    0.78    0.22 
  14  -3  -4    1.04    0.23 
  14  -2  -4    3.32    0.38 
  14  -2  -4    3.60    0.38 
  14  -1  -4    1.00    0.24 
  14  -1  -4    0.69    0.19 
  14   0  -4    1.17    0.25 
  14   0  -4    1.82    0.29 
  14   1  -4    0.94    0.23 
  14   1  -4    0.88    0.23 
  14   2  -4    2.74    0.37 
  14   2  -4    3.18    0.37 
  14   3  -4    1.24    0.28 
  14   3  -4    0.80    0.23 
  14   4  -4   -0.23    0.13 
  14   5  -4    0.07    0.16 
  14   6  -4    0.06    0.19 
 -14  -8   4    0.07    0.10 
 -14  -9   4    0.15    0.11 
 -14 -10   4    0.12    0.13 
 -14 -11   4    0.04    0.14 
 -14 -12   4    0.03    0.17 
 -14 -13   4    0.16    0.20 
  14 -13  -3    0.33    0.23 
  14 -12  -3   -0.18    0.19 
  14 -11  -3    0.47    0.20 
  14 -10  -3    0.13    0.16 
  14  -9  -3    0.22    0.17 
  14  -8  -3   -0.03    0.15 
  14  -8  -3    0.18    0.16 
  14  -7  -3    2.55    0.33 
  14  -7  -3    3.24    0.31 
  14  -6  -3   -0.14    0.15 
  14  -6  -3    0.01    0.12 
  14  -5  -3    0.00    0.12 
  14  -5  -3   -0.09    0.14 
  14  -4  -3    0.11    0.13 
  14  -4  -3    0.14    0.16 
  14  -3  -3    6.55    0.48 
  14  -3  -3    7.01    0.48 
  14  -2  -3    1.03    0.23 
  14  -2  -3    1.34    0.26 
  14  -1  -3   -0.06    0.11 
  14  -1  -3   -0.07    0.15 
  14   0  -3   -0.15    0.14 
  14   0  -3    0.12    0.13 
  14   1  -3   -0.06    0.15 
  14   1  -3    0.05    0.13 
  14   2  -3    0.82    0.23 
  14   2  -3    1.11    0.25 
  14   3  -3    7.41    0.57 
  14   3  -3    8.04    0.57 
  14   4  -3    0.08    0.16 
  14   5  -3    0.01    0.13 
  14   6  -3   -0.10    0.15 
  14   7  -3    3.55    0.47 
 -14  -8   3   -0.05    0.09 
 -14  -9   3   -0.01    0.10 
 -14 -10   3   -0.06    0.11 
 -14 -11   3    0.10    0.12 
 -14 -12   3    0.05    0.15 
 -14 -13   3    0.25    0.20 
  14 -13  -2    0.13    0.21 
  14 -12  -2    0.08    0.20 
  14 -11  -2    0.70    0.20 
  14 -10  -2    0.05    0.16 
  14  -9  -2    0.49    0.18 
  14  -8  -2    0.28    0.15 
  14  -8  -2   -0.12    0.12 
  14  -7  -2    0.33    0.17 
  14  -7  -2    0.07    0.15 
  14  -6  -2    0.08    0.15 
  14  -6  -2    0.01    0.13 
  14  -5  -2    0.13    0.13 
  14  -5  -2   -0.20    0.13 
  14  -4  -2    0.47    0.17 
  14  -4  -2    0.28    0.14 
  14  -3  -2    1.21    0.22 
  14  -3  -2    0.89    0.20 
  14  -2  -2    0.40    0.17 
  14  -2  -2   -0.10    0.10 
  14  -1  -2    1.75    0.27 
  14  -1  -2    1.07    0.22 
  14   0  -2    0.24    0.17 
  14   0  -2    0.24    0.15 
  14   1  -2    1.49    0.27 
  14   1  -2    1.34    0.25 
  14   2  -2    0.17    0.16 
  14   2  -2    0.12    0.13 
  14   3  -2    0.57    0.20 
  14   4  -2    0.07    0.14 
  14   5  -2    0.05    0.13 
  14   6  -2    0.05    0.16 
  14   7  -2   -0.18    0.15 
  14   8  -2    0.00    0.20 
 -14  -9   2    0.44    0.15 
 -14 -10   2    0.04    0.10 
 -14 -11   2    0.50    0.16 
 -14 -12   2    0.02    0.14 
 -14 -13   2    0.29    0.20 
  14 -13  -1    0.05    0.21 
  14 -12  -1    0.06    0.18 
  14 -11  -1    0.24    0.18 
  14 -10  -1    0.08    0.16 
  14  -9  -1    0.31    0.18 
  14  -9  -1    0.23    0.15 
  14  -8  -1    0.93    0.20 
  14  -8  -1    0.57    0.18 
  14  -7  -1    2.17    0.30 
  14  -7  -1    2.51    0.27 
  14  -6  -1    0.05    0.12 
  14  -6  -1   -0.05    0.12 
  14  -5  -1    0.25    0.15 
  14  -5  -1    0.30    0.15 
  14  -4  -1    0.57    0.16 
  14  -4  -1    0.65    0.18 
  14  -3  -1    4.59    0.39 
  14  -3  -1    5.33    0.39 
  14  -2  -1    0.22    0.14 
  14  -2  -1    0.39    0.17 
  14  -1  -1   -0.03    0.14 
  14  -1  -1    0.03    0.11 
  14   0  -1    0.00    0.13 
  14   0  -1    0.04    0.11 
  14   1  -1   -0.06    0.10 
  14   1  -1   -0.01    0.12 
  14   2  -1    0.47    0.18 
  14   2  -1    0.68    0.19 
  14   3  -1    4.87    0.42 
  14   4  -1    0.54    0.19 
  14   5  -1    0.13    0.16 
  14   6  -1    0.15    0.16 
  14   7  -1    2.76    0.38 
  14   8  -1    0.48    0.21 
  14   9  -1    0.25    0.21 
 -14 -10   1    0.22    0.13 
 -14 -11   1    0.14    0.13 
 -14 -12   1   -0.07    0.12 
 -14 -13   1    0.09    0.18 
  14 -13   0   -0.15    0.19 
  14 -12   0    0.21    0.20 
  14 -11   0   -0.02    0.16 
  14 -10   0    0.04    0.15 
  14 -10   0   -0.20    0.16 
  14  -9   0    0.04    0.14 
  14  -9   0    0.25    0.17 
  14  -8   0    0.90    0.19 
  14  -8   0    0.17    0.16 
  14  -7   0    0.46    0.16 
  14  -7   0    0.06    0.13 
  14  -6   0    0.21    0.15 
  14  -6   0    0.06    0.13 
  14  -5   0   -0.02    0.12 
  14  -5   0    0.11    0.13 
  14  -4   0    0.08    0.11 
  14  -4   0    0.39    0.15 
  14  -3   0   -0.15    0.10 
  14  -3   0    0.21    0.11 
  14  -2   0   10.09    0.61 
  14  -2   0    9.08    0.56 
  14  -1   0    0.03    0.11 
  14  -1   0   -0.22    0.13 
  14   0   0   -0.11    0.13 
  14   0   0    0.06    0.11 
  14   1   0    0.17    0.14 
  14   1   0    0.02    0.11 
  14   2   0    7.97    0.54 
  14   3   0    0.04    0.13 
  14   4   0    0.16    0.14 
  14   5   0   -0.05    0.12 
  14   6   0    0.17    0.16 
  14   7   0   -0.10    0.15 
  14   8   0    0.52    0.22 
  14   9   0    0.00    0.18 
 -14 -11   0    0.03    0.12 
 -14 -12   0    0.25    0.15 
  14 -11   1    0.16    0.17 
  14 -10   1    0.14    0.16 
  14 -10   1    0.11    0.15 
  14  -9   1   -0.02    0.14 
  14  -9   1    0.06    0.15 
  14  -8   1    0.72    0.19 
  14  -8   1    0.80    0.19 
  14  -7   1    2.32    0.30 
  14  -7   1    2.36    0.25 
  14  -6   1    0.11    0.10 
  14  -6   1    0.00    0.12 
  14  -5   1    0.72    0.18 
  14  -5   1    0.42    0.15 
  14  -4   1    0.52    0.17 
  14  -4   1    1.15    0.18 
  14  -3   1    5.30    0.37 
  14  -3   1    4.84    0.39 
  14  -2   1    0.45    0.16 
  14  -2   1    0.44    0.17 
  14  -1   1   -0.03    0.09 
  14  -1   1   -0.01    0.13 
  14   0   1   -0.16    0.09 
  14   0   1   -0.09    0.12 
  14   1   1   -0.06    0.11 
  14   1   1   -0.15    0.08 
  14   2   1    0.43    0.15 
  14   3   1    4.36    0.42 
  14   4   1    0.28    0.16 
  14   5   1    0.37    0.17 
  14   6   1   -0.10    0.13 
  14   7   1    2.85    0.38 
  14   8   1    0.59    0.22 
  14   9   1    0.05    0.20 
  14  10   1    0.15    0.22 
 -14 -11  -1   -0.10    0.11 
 -14 -12  -1    0.29    0.17 
  14 -11   2    0.25    0.19 
  14 -10   2    0.11    0.14 
  14  -9   2    0.55    0.19 
  14  -8   2    0.05    0.14 
  14  -7   2    0.05    0.12 
  14  -6   2    0.03    0.13 
  14  -5   2    0.06    0.12 
  14  -4   2    0.13    0.11 
  14  -3   2    0.69    0.18 
  14  -2   2    0.17    0.13 
  14  -1   2    1.28    0.23 
  14   0   2    0.18    0.13 
 -14  -1  -2    1.20    0.18 
  14   1   2    1.20    0.22 
  14   2   2    0.00    0.11 
  14   3   2    0.76    0.20 
  14   4   2    0.10    0.13 
  14   5   2   -0.02    0.14 
  14   6   2    0.18    0.16 
  14   7   2    0.02    0.16 
  14   8   2   -0.12    0.16 
  14   9   2    0.85    0.25 
  14  10   2    0.37    0.22 
  14 -11   3   -0.06    0.18 
  14 -10   3   -0.03    0.14 
  14  -9   3   -0.04    0.14 
  14  -8   3   -0.05    0.11 
  14  -7   3    2.51    0.31 
  14  -6   3    0.06    0.11 
  14  -5   3   -0.06    0.11 
  14  -4   3    0.14    0.13 
  14  -3   3    6.67    0.47 
  14  -2   3    1.10    0.21 
  14  -1   3    0.05    0.10 
 -14   0  -3   -0.01    0.12 
  14   0   3    0.05    0.12 
 -14  -1  -3    0.07    0.13 
  14   1   3   -0.05    0.10 
 -14  -2  -3    0.71    0.16 
  14   2   3    0.88    0.20 
 -14  -3  -3    7.01    0.42 
  14   3   3    6.41    0.48 
 -14  -4  -3    0.18    0.12 
  14   4   3    0.18    0.14 
 -14  -5  -3    0.07    0.11 
  14   5   3    0.02    0.13 
 -14  -6  -3    0.04    0.11 
  14   6   3   -0.11    0.14 
 -14  -7  -3    2.93    0.25 
  14   7   3    3.34    0.40 
 -14  -8  -3    0.11    0.12 
  14   8   3    0.08    0.18 
  14   9   3   -0.11    0.17 
  14  10   3    0.16    0.21 
  14 -12   4    0.26    0.23 
  14 -11   4    0.06    0.17 
  14 -10   4    0.02    0.15 
  14  -9   4    0.12    0.14 
  14  -8   4    0.19    0.13 
  14  -7   4   -0.02    0.12 
  14  -6   4    0.05    0.12 
  14  -5   4    0.09    0.12 
  14  -4   4    0.11    0.12 
  14  -3   4    0.62    0.17 
  14  -2   4    3.53    0.37 
  14  -1   4    0.90    0.19 
 -14   0  -4    1.90    0.24 
  14   0   4    1.74    0.28 
 -14  -1  -4    0.89    0.18 
  14   1   4    0.97    0.20 
 -14  -2  -4    3.12    0.29 
  14   2   4    3.68    0.38 
 -14  -3  -4    0.81    0.17 
  14   3   4    0.97    0.22 
 -14  -4  -4    0.18    0.11 
  14   4   4    0.15    0.13 
 -14  -5  -4   -0.03    0.10 
  14   5   4   -0.02    0.13 
 -14  -6  -4    0.02    0.11 
  14   6   4   -0.02    0.14 
 -14  -7  -4    0.24    0.12 
  14   7   4    0.26    0.18 
 -14  -8  -4    0.14    0.12 
  14   8   4    0.25    0.19 
 -14  -9  -4    0.16    0.14 
  14   9   4    0.01    0.18 
 -14 -10  -4    0.05    0.13 
  14  10   4   -0.21    0.20 
 -14 -11  -4   -0.03    0.15 
  14 -12   5    0.28    0.22 
  14 -11   5   -0.05    0.17 
  14 -10   5    0.41    0.19 
  14  -9   5    0.24    0.15 
  14  -8   5    0.43    0.17 
  14  -7   5    0.16    0.14 
  14  -6   5    0.02    0.10 
  14  -5   5    0.59    0.17 
  14  -4   5   -0.10    0.09 
  14  -3   5    0.59    0.17 
  14  -2   5    2.97    0.34 
 -14   1  -5    0.10    0.14 
  14  -1   5    0.06    0.11 
 -14   0  -5    0.02    0.13 
  14   0   5   -0.04    0.10 
 -14  -1  -5   -0.03    0.12 
  14   1   5    0.20    0.13 
 -14  -2  -5    3.15    0.29 
  14   2   5    2.84    0.35 
 -14  -3  -5    0.48    0.15 
  14   3   5    0.40    0.16 
 -14  -4  -5    0.07    0.12 
  14   4   5   -0.02    0.13 
 -14  -5  -5    0.43    0.14 
  14   5   5    0.62    0.19 
 -14  -6  -5   -0.17    0.10 
  14   6   5    0.00    0.13 
 -14  -7  -5    0.14    0.13 
  14   7   5    0.23    0.18 
 -14  -8  -5    0.34    0.15 
  14   8   5    0.73    0.22 
 -14  -9  -5    0.34    0.14 
  14   9   5    0.18    0.21 
 -14 -10  -5    0.33    0.16 
 -14 -11  -5   -0.11    0.15 
 -14 -12  -5   -0.04    0.21 
  14 -12   6   -0.07    0.23 
  14 -11   6    0.28    0.22 
  14 -10   6    0.01    0.17 
  14  -9   6    0.12    0.16 
  14  -8   6    0.08    0.14 
  14  -7   6    0.13    0.12 
  14  -6   6    0.06    0.12 
  14  -5   6    0.09    0.12 
  14  -4   6    0.15    0.13 
  14  -3   6    0.15    0.13 
  14  -2   6   -0.05    0.10 
 -14   1  -6    0.60    0.19 
  14  -1   6    0.45    0.16 
 -14   0  -6    0.79    0.20 
  14   0   6    0.85    0.20 
 -14  -1  -6    0.63    0.18 
  14   1   6    0.63    0.19 
 -14  -2  -6    0.10    0.14 
  14   2   6    0.08    0.13 
 -14  -3  -6    0.38    0.15 
  14   3   6    0.37    0.16 
 -14  -4  -6    0.27    0.14 
  14   4   6    0.33    0.16 
 -14  -5  -6    0.08    0.11 
  14   5   6    0.06    0.14 
 -14  -6  -6   -0.03    0.12 
  14   6   6    0.21    0.16 
 -14  -7  -6    0.08    0.13 
  14   7   6    0.08    0.17 
 -14  -8  -6    0.02    0.12 
  14   8   6   -0.06    0.18 
 -14  -9  -6    0.02    0.13 
 -14 -10  -6    0.10    0.15 
 -14 -11  -6    0.48    0.20 
 -14 -12  -6   -0.08    0.22 
  14 -12   7    0.02    0.25 
  14 -11   7    0.33    0.26 
  14 -10   7   -0.05    0.18 
  14  -9   7   -0.02    0.16 
  14  -8   7    0.17    0.15 
  14  -7   7    1.11    0.24 
  14  -6   7   -0.01    0.13 
  14  -5   7   -0.04    0.11 
  14  -4   7    0.11    0.12 
  14  -3   7    3.05    0.35 
  14  -2   7    0.14    0.13 
 -14   1  -7    0.07    0.15 
  14  -1   7    0.18    0.13 
 -14   0  -7    0.19    0.15 
  14   0   7   -0.08    0.11 
 -14  -1  -7    0.16    0.16 
  14   1   7    0.13    0.15 
 -14  -2  -7    0.13    0.14 
  14   2   7    0.15    0.15 
 -14  -3  -7    2.68    0.30 
  14   3   7    2.87    0.36 
 -14  -4  -7    0.10    0.13 
  14   4   7    0.20    0.17 
 -14  -5  -7    0.16    0.13 
  14   5   7   -0.08    0.14 
 -14  -6  -7    0.11    0.14 
  14   6   7    0.15    0.17 
 -14  -7  -7    1.48    0.23 
  14   7   7    1.22    0.27 
 -14  -8  -7    0.34    0.15 
  14   8   7    0.46    0.23 
 -14  -9  -7    0.00    0.15 
 -14 -10  -7    0.06    0.17 
 -14 -11  -7    0.24    0.21 
 -14 -12  -7    0.07    0.23 
  14 -11   8    0.10    0.25 
  14 -10   8    0.03    0.21 
  14  -9   8    0.12    0.19 
  14  -8   8    0.57    0.21 
  14  -7   8    0.38    0.18 
  14  -6   8    0.05    0.13 
  14  -5   8   -0.04    0.12 
  14  -4   8   -0.11    0.12 
  14  -3   8    1.10    0.22 
  14  -2   8    1.28    0.25 
 -14   1  -8    1.04    0.24 
  14  -1   8    1.14    0.23 
 -14   0  -8    0.56    0.19 
  14   0   8    0.68    0.19 
 -14  -1  -8    1.19    0.24 
  14   1   8    1.10    0.24 
 -14  -2  -8    1.17    0.23 
  14   2   8    1.53    0.27 
 -14  -3  -8    1.02    0.22 
  14   3   8    1.17    0.24 
 -14  -4  -8    0.15    0.15 
  14   4   8    0.29    0.18 
 -14  -5  -8    0.02    0.14 
  14   5   8   -0.13    0.15 
 -14  -6  -8    0.12    0.14 
  14   6   8    0.11    0.19 
 -14  -7  -8    0.26    0.17 
  14   7   8    0.76    0.24 
 -14  -8  -8    0.43    0.18 
 -14  -9  -8    0.16    0.18 
 -14 -10  -8    0.00    0.19 
 -14 -11  -8    0.08    0.23 
  14 -10   9    0.05    0.23 
  14  -9   9    0.05    0.20 
  14  -8   9    0.11    0.18 
  14  -7   9    0.33    0.18 
  14  -6   9    0.12    0.16 
  14  -5   9   -0.01    0.14 
  14  -4   9   -0.03    0.13 
  14  -3   9    0.01    0.13 
 -14   2  -9    1.35    0.28 
  14  -2   9    1.64    0.28 
 -14   1  -9    0.09    0.17 
  14  -1   9   -0.04    0.14 
 -14   0  -9    0.40    0.18 
  14   0   9    0.07    0.14 
 -14  -1  -9    0.26    0.17 
  14   1   9    0.16    0.16 
 -14  -2  -9    1.20    0.24 
  14   2   9    1.58    0.28 
 -14  -3  -9    0.17    0.15 
  14   3   9    0.06    0.14 
 -14  -4  -9    0.18    0.16 
  14   4   9    0.01    0.17 
 -14  -5  -9    0.20    0.16 
  14   5   9   -0.19    0.16 
 -14  -6  -9    0.13    0.16 
  14   6   9    0.14    0.20 
 -14  -7  -9    0.05    0.17 
 -14  -8  -9    0.37    0.20 
 -14  -9  -9   -0.11    0.20 
 -14 -10  -9    0.25    0.25 
  14 -10  10   -0.11    0.24 
  14  -9  10    0.06    0.23 
  14  -8  10    0.07    0.21 
  14  -7  10    0.22    0.21 
  14  -6  10   -0.10    0.16 
  14  -5  10    0.10    0.15 
  14  -4  10    0.11    0.15 
  14  -3  10   -0.02    0.15 
 -14   2 -10    0.11    0.19 
  14  -2  10   -0.15    0.13 
 -14   1 -10    0.27    0.19 
  14  -1  10    0.07    0.17 
 -14   0 -10    0.34    0.17 
  14   0  10    0.00    0.13 
 -14  -1 -10    0.38    0.19 
  14   1  10    0.20    0.17 
 -14  -2 -10    0.25    0.17 
  14   2  10    0.17    0.17 
 -14  -3 -10    0.25    0.18 
  14   3  10    0.02    0.17 
 -14  -4 -10   -0.02    0.17 
  14   4  10   -0.10    0.17 
 -14  -5 -10   -0.11    0.17 
  14   5  10    0.14    0.20 
 -14  -6 -10    0.04    0.19 
  14   6  10   -0.03    0.22 
 -14  -7 -10    0.30    0.21 
 -14  -8 -10    0.33    0.24 
 -14  -9 -10    0.06    0.24 
 -14 -10 -10   -0.05    0.28 
  14  -9  11   -0.06    0.24 
  14  -8  11    0.30    0.26 
  14  -7  11    0.33    0.25 
  14  -6  11    0.06    0.16 
  14  -5  11    0.11    0.16 
  14  -4  11    0.09    0.17 
  14  -3  11    0.54    0.20 
 -14   2 -11    0.41    0.24 
  14  -2  11    0.15    0.18 
 -14   1 -11    0.16    0.21 
  14  -1  11    0.18    0.16 
 -14   0 -11    0.04    0.19 
  14   0  11   -0.06    0.17 
 -14  -1 -11    0.01    0.18 
  14   1  11    0.13    0.18 
 -14  -2 -11    0.35    0.21 
  14   2  11    0.10    0.19 
 -14  -3 -11    1.03    0.27 
  14   3  11    0.67    0.24 
 -14  -4 -11    0.29    0.20 
  14   4  11    0.09    0.19 
 -14  -5 -11    0.05    0.21 
  14   5  11    0.03    0.22 
 -14  -6 -11    0.00    0.21 
 -14  -7 -11    0.41    0.26 
 -14  -8 -11    0.42    0.29 
 -14  -9 -11    0.11    0.29 
  14  -8  12    0.12    0.26 
  14  -7  12    0.12    0.25 
  14  -6  12   -0.03    0.17 
  14  -5  12    0.39    0.20 
  14  -4  12   -0.01    0.17 
  14  -3  12    0.10    0.17 
 -14   2 -12    0.24    0.26 
  14  -2  12   -0.11    0.17 
 -14   1 -12    0.66    0.28 
  14  -1  12    0.46    0.20 
 -14   0 -12    0.52    0.26 
  14   0  12    0.46    0.24 
 -14  -1 -12    0.60    0.28 
  14   1  12    0.84    0.25 
 -14  -2 -12    0.17    0.23 
  14   2  12    0.11    0.20 
 -14  -3 -12    0.19    0.23 
  14   3  12    0.24    0.22 
 -14  -4 -12   -0.03    0.23 
  14   4  12    0.53    0.26 
 -14  -5 -12    0.41    0.28 
 -14  -6 -12   -0.01    0.27 
 -14  -7 -12   -0.08    0.29 
  14  -6  13    0.01    0.20 
  14  -5  13    0.06    0.18 
  14  -4  13    0.09    0.18 
  14  -3  13    0.04    0.19 
 -14   2 -13    0.28    0.30 
  14  -2  13    0.41    0.22 
 -14   1 -13   -0.14    0.28 
  14  -1  13   -0.02    0.19 
 -14   0 -13   -0.18    0.28 
  14   0  13   -0.22    0.20 
 -14  -1 -13   -0.07    0.28 
  14   1  13   -0.03    0.20 
 -14  -2 -13    0.15    0.30 
  14   2  13    0.69    0.27 
 -14  -3 -13    0.13    0.29 
  14   3  13   -0.30    0.21 
 -14  -4 -13    0.27    0.32 
 -14  -5 -13    0.17    0.33 
 -14  -6 -13    0.28    0.35 
  14  -4  14   -0.05    0.20 
  14  -3  14   -0.05    0.20 
 -14   2 -14    0.26    0.40 
  14  -2  14    0.14    0.20 
 -14   1 -14    0.58    0.41 
  14  -1  14   -0.20    0.20 
 -14   0 -14    0.25    0.36 
  14   0  14    0.18    0.23 
 -14  -1 -14    0.21    0.36 
  14   1  14    0.01    0.23 
 -14  -2 -14    0.09    0.36 
  14   2  14    0.01    0.23 
 -14  -3 -14    0.35    0.37 
 -14  -4 -14    0.12    0.36 
  15  -1 -14    0.10    0.44 
  15   0 -14   -0.13    0.43 
  15   1 -14    0.52    0.45 
  15  -5 -13    0.07    0.38 
  15  -4 -13    0.12    0.35 
  15  -3 -13    0.02    0.35 
  15  -2 -13    0.29    0.38 
  15  -1 -13   -0.04    0.35 
 -15   0  13    0.07    0.14 
  15   0 -13    0.20    0.36 
 -15  -1  13    0.00    0.13 
  15   1 -13    0.32    0.37 
 -15  -2  13    0.17    0.15 
  15   2 -13    0.38    0.36 
 -15  -3  13    0.25    0.16 
  15   3 -13    0.44    0.38 
 -15  -4  13    0.03    0.15 
  15  -6 -12   -0.15    0.35 
  15  -5 -12    0.06    0.36 
  15  -4 -12   -0.15    0.32 
  15  -3 -12   -0.02    0.33 
  15  -2 -12    0.13    0.34 
 -15   1  12    0.32    0.15 
  15  -1 -12    0.05    0.31 
 -15   0  12   -0.10    0.12 
  15   0 -12   -0.18    0.30 
 -15  -1  12    0.13    0.13 
  15   1 -12   -0.31    0.30 
 -15  -2  12    0.08    0.13 
  15   2 -12   -0.07    0.33 
 -15  -3  12   -0.01    0.13 
  15   3 -12   -0.09    0.34 
 -15  -4  12    0.07    0.13 
 -15  -5  12    0.04    0.13 
 -15  -6  12    0.01    0.15 
  15  -8 -11   -0.08    0.30 
  15  -7 -11    0.48    0.34 
  15  -6 -11    0.36    0.32 
  15  -5 -11   -0.08    0.31 
  15  -4 -11    0.11    0.33 
  15  -3 -11   -0.07    0.32 
 -15   2  11    0.11    0.12 
  15  -2 -11    0.06    0.31 
 -15   1  11   -0.07    0.10 
  15  -1 -11   -0.12    0.29 
 -15   0  11    0.03    0.11 
  15   0 -11    0.01    0.30 
 -15  -1  11   -0.04    0.11 
  15   1 -11   -0.08    0.31 
 -15  -2  11    0.04    0.12 
  15   2 -11   -0.44    0.28 
 -15  -3  11    0.18    0.13 
  15   3 -11   -0.24    0.32 
 -15  -4  11    0.05    0.12 
 -15  -5  11    0.12    0.14 
 -15  -6  11    0.24    0.16 
 -15  -7  11    0.01    0.14 
  15  -9 -10   -0.12    0.27 
  15  -8 -10    0.35    0.30 
  15  -7 -10    0.61    0.33 
  15  -6 -10    0.34    0.31 
  15  -5 -10    0.21    0.30 
  15  -4 -10    0.15    0.30 
  15  -3 -10    0.58    0.32 
 -15   2  10    0.05    0.10 
  15  -2 -10   -0.14    0.28 
 -15   1  10    0.50    0.15 
  15  -1 -10    0.64    0.33 
 -15   0  10    0.20    0.12 
  15   0 -10    0.05    0.29 
 -15  -1  10    0.65    0.17 
  15   1 -10    0.38    0.31 
 -15  -2  10    0.01    0.09 
  15   2 -10   -0.22    0.27 
 -15  -3  10    0.29    0.14 
  15   3 -10    0.06    0.30 
 -15  -4  10    0.11    0.12 
 -15  -5  10    0.37    0.16 
 -15  -6  10   -0.18    0.12 
 -15  -7  10   -0.05    0.13 
 -15  -8  10    0.17    0.15 
 -15  -9  10   -0.10    0.19 
  15  -9  -9   -0.12    0.27 
  15  -8  -9    0.01    0.27 
  15  -7  -9    0.72    0.32 
  15  -6  -9    0.49    0.30 
  15  -5  -9    0.16    0.27 
  15  -4  -9    0.34    0.29 
  15  -3  -9    0.08    0.27 
  15  -2  -9   -0.14    0.24 
 -15   1   9    0.37    0.13 
  15  -1  -9    0.36    0.29 
 -15   0   9    0.00    0.09 
  15   0  -9    0.19    0.27 
 -15  -1   9    0.41    0.14 
  15   1  -9    0.64    0.31 
 -15  -2   9   -0.02    0.10 
  15   2  -9   -0.17    0.24 
 -15  -3   9    0.31    0.14 
  15   3  -9    0.23    0.29 
 -15  -4   9    0.35    0.14 
 -15  -5   9    0.12    0.13 
 -15  -6   9    0.51    0.16 
 -15  -7   9    0.83    0.21 
 -15  -8   9   -0.02    0.17 
 -15  -9   9    0.15    0.19 
  15 -10  -8    0.20    0.26 
  15  -9  -8    0.09    0.24 
  15  -8  -8    0.02    0.26 
  15  -7  -8   -0.40    0.21 
  15  -6  -8   -0.06    0.24 
  15  -5  -8    0.24    0.26 
  15  -4  -8   -0.22    0.23 
  15  -4  -8    0.26    0.18 
  15  -3  -8    0.13    0.18 
  15  -3  -8    0.46    0.27 
  15  -2  -8    0.02    0.17 
  15  -2  -8    0.53    0.27 
  15  -1  -8    1.46    0.29 
  15  -1  -8    1.82    0.34 
  15   0  -8    0.15    0.18 
  15   0  -8    0.17    0.24 
  15   1  -8    1.70    0.35 
 -15  -2   8    0.21    0.12 
  15   2  -8    0.18    0.25 
 -15  -3   8    0.48    0.15 
  15   3  -8    0.11    0.27 
 -15  -4   8   -0.08    0.09 
 -15  -5   8    0.08    0.12 
 -15  -6   8    0.00    0.10 
 -15  -7   8   -0.04    0.11 
 -15  -8   8    0.16    0.16 
 -15  -9   8    0.17    0.18 
 -15 -10   8   -0.05    0.18 
  15 -11  -7    0.10    0.24 
  15 -10  -7    0.14    0.24 
  15  -9  -7   -0.14    0.21 
  15  -8  -7    0.18    0.23 
  15  -7  -7    0.01    0.23 
  15  -6  -7    0.13    0.23 
  15  -5  -7   -0.06    0.17 
  15  -5  -7    0.10    0.21 
  15  -4  -7    0.08    0.17 
  15  -4  -7    0.34    0.24 
  15  -3  -7    0.32    0.24 
  15  -3  -7    0.12    0.17 
  15  -2  -7   -0.03    0.15 
  15  -2  -7    0.25    0.23 
  15  -1  -7    0.01    0.16 
  15  -1  -7   -0.11    0.20 
  15   0  -7    0.01    0.21 
  15   0  -7   -0.01    0.16 
  15   1  -7   -0.10    0.20 
  15   1  -7   -0.11    0.15 
  15   2  -7    0.31    0.20 
  15   2  -7    0.19    0.22 
  15   3  -7   -0.31    0.20 
 -15  -4   7    0.41    0.14 
 -15  -5   7    0.14    0.12 
 -15  -6   7    0.06    0.12 
 -15  -7   7    0.06    0.13 
 -15  -8   7    0.02    0.15 
 -15  -9   7   -0.06    0.15 
 -15 -10   7    0.01    0.19 
 -15 -11   7    0.11    0.21 
  15 -11  -6    0.56    0.27 
  15 -10  -6    0.08    0.22 
  15  -9  -6   -0.10    0.20 
  15  -8  -6   -0.14    0.20 
  15  -7  -6    0.32    0.22 
  15  -6  -6    0.15    0.21 
  15  -5  -6    0.18    0.21 
  15  -5  -6   -0.02    0.16 
  15  -4  -6   -0.03    0.16 
  15  -4  -6    0.19    0.21 
  15  -3  -6   -0.14    0.19 
  15  -3  -6    0.14    0.17 
  15  -2  -6    0.11    0.17 
  15  -2  -6    0.24    0.21 
  15  -1  -6    0.19    0.18 
  15  -1  -6    0.28    0.22 
  15   0  -6    0.15    0.17 
  15   0  -6    0.02    0.20 
  15   1  -6    0.13    0.20 
  15   1  -6    0.10    0.16 
  15   2  -6    0.08    0.16 
  15   2  -6   -0.04    0.20 
  15   3  -6   -0.17    0.21 
  15   3  -6    0.13    0.18 
  15   4  -6    0.08    0.20 
 -15  -5   6    0.08    0.11 
 -15  -6   6    0.08    0.12 
 -15  -7   6    0.05    0.12 
 -15  -8   6    0.06    0.12 
 -15  -9   6    0.03    0.15 
 -15 -10   6   -0.10    0.16 
 -15 -11   6    0.26    0.21 
  15 -12  -5   -0.08    0.23 
  15 -11  -5    0.52    0.24 
  15 -10  -5    0.10    0.22 
  15  -9  -5    0.10    0.20 
  15  -8  -5   -0.07    0.19 
  15  -7  -5    1.24    0.27 
  15  -6  -5    0.06    0.19 
  15  -6  -5    0.16    0.16 
  15  -5  -5    0.09    0.16 
  15  -5  -5    0.05    0.18 
  15  -4  -5    0.23    0.20 
  15  -4  -5    0.03    0.15 
  15  -3  -5    0.68    0.21 
  15  -3  -5    0.56    0.23 
  15  -2  -5   -0.09    0.15 
  15  -2  -5    0.00    0.19 
  15  -1  -5    0.39    0.19 
  15  -1  -5    0.32    0.21 
  15   0  -5   -0.12    0.13 
  15   0  -5   -0.07    0.17 
  15   1  -5    0.38    0.20 
  15   1  -5    0.48    0.21 
  15   2  -5   -0.22    0.17 
  15   2  -5    0.21    0.17 
  15   3  -5    0.34    0.22 
  15   3  -5    0.27    0.19 
  15   4  -5   -0.14    0.15 
  15   5  -5    0.00    0.18 
 -15  -7   5    1.21    0.22 
 -15  -8   5    0.00    0.12 
 -15  -9   5    0.07    0.14 
 -15 -10   5    0.15    0.18 
 -15 -11   5    0.05    0.18 
 -15 -12   5   -0.09    0.20 
  15 -12  -4    0.14    0.23 
  15 -11  -4    0.78    0.25 
  15 -10  -4    0.08    0.20 
  15  -9  -4    1.14    0.26 
  15  -8  -4   -0.09    0.18 
  15  -7  -4    0.19    0.17 
  15  -7  -4    0.15    0.18 
  15  -6  -4    0.08    0.18 
  15  -6  -4   -0.06    0.14 
  15  -5  -4    0.06    0.18 
  15  -5  -4    0.03    0.15 
  15  -4  -4    0.29    0.16 
  15  -4  -4    0.06    0.17 
  15  -3  -4    0.00    0.15 
  15  -3  -4   -0.25    0.17 
  15  -2  -4    0.09    0.14 
  15  -2  -4    0.19    0.18 
  15  -1  -4    1.74    0.30 
  15  -1  -4    1.55    0.29 
  15   0  -4    0.53    0.19 
  15   0  -4    0.39    0.20 
  15   1  -4    1.95    0.32 
  15   1  -4    1.75    0.31 
  15   2  -4   -0.12    0.16 
  15   2  -4    0.06    0.15 
  15   3  -4   -0.12    0.14 
  15   3  -4    0.19    0.19 
  15   4  -4   -0.14    0.15 
  15   5  -4    0.13    0.18 
  15   6  -4   -0.31    0.16 
  15   7  -4    0.06    0.22 
 -15  -8   4   -0.01    0.11 
 -15  -9   4    1.30    0.24 
 -15 -10   4   -0.03    0.14 
 -15 -11   4    0.74    0.23 
 -15 -12   4   -0.07    0.19 
  15 -12  -3    0.14    0.22 
  15 -11  -3    0.31    0.21 
  15 -10  -3    0.10    0.18 
  15  -9  -3    0.29    0.20 
  15  -8  -3    0.05    0.17 
  15  -7  -3    0.12    0.16 
  15  -7  -3    0.32    0.19 
  15  -6  -3    0.12    0.17 
  15  -6  -3    0.11    0.15 
  15  -5  -3   -0.11    0.15 
  15  -5  -3    0.01    0.13 
  15  -4  -3    0.27    0.17 
  15  -4  -3   -0.01    0.16 
  15  -3  -3    0.59    0.19 
  15  -3  -3    0.42    0.20 
  15  -2  -3    1.14    0.25 
  15  -2  -3    1.49    0.27 
  15  -1  -3    0.21    0.15 
  15  -1  -3    0.01    0.16 
  15   0  -3   -0.13    0.13 
  15   0  -3   -0.03    0.15 
  15   1  -3   -0.06    0.15 
  15   1  -3    0.09    0.14 
  15   2  -3    1.11    0.27 
  15   2  -3    1.61    0.28 
  15   3  -3    0.86    0.25 
  15   4  -3    0.10    0.15 
  15   5  -3    0.09    0.17 
  15   6  -3    0.07    0.18 
  15   7  -3    0.38    0.23 
 -15  -9   3   -0.09    0.11 
 -15 -10   3   -0.02    0.13 
 -15 -11   3    0.19    0.16 
 -15 -12   3   -0.02    0.18 
  15 -12  -2    0.16    0.22 
  15 -11  -2    0.08    0.20 
  15 -10  -2    0.18    0.19 
  15  -9  -2    0.14    0.18 
  15  -8  -2   -0.01    0.15 
  15  -8  -2    0.14    0.17 
  15  -7  -2    0.13    0.16 
  15  -7  -2    0.00    0.13 
  15  -6  -2    0.28    0.16 
  15  -6  -2    0.24    0.18 
  15  -5  -2   -0.10    0.15 
  15  -5  -2   -0.15    0.13 
  15  -4  -2    0.05    0.13 
  15  -4  -2   -0.05    0.14 
  15  -3  -2    0.36    0.18 
  15  -3  -2    0.10    0.13 
  15  -2  -2    0.96    0.23 
  15  -2  -2    0.85    0.21 
  15  -1  -2    0.07    0.13 
  15  -1  -2    0.44    0.19 
  15   0  -2    1.48    0.28 
  15   0  -2    1.45    0.26 
  15   1  -2    0.08    0.15 
  15   1  -2    0.06    0.14 
  15   2  -2    1.03    0.24 
  15   2  -2    0.80    0.23 
  15   3  -2    0.13    0.16 
  15   4  -2   -0.10    0.13 
  15   5  -2   -0.13    0.14 
  15   6  -2    0.21    0.18 
  15   7  -2    0.06    0.19 
  15   8  -2    0.10    0.22 
 -15 -10   2   -0.01    0.13 
 -15 -11   2   -0.05    0.15 
 -15 -12   2    0.02    0.18 
  15 -12  -1    0.08    0.21 
  15 -11  -1    0.27    0.21 
  15 -10  -1    0.20    0.18 
  15  -9  -1    0.12    0.17 
  15  -9  -1   -0.03    0.16 
  15  -8  -1    0.14    0.15 
  15  -8  -1    0.00    0.16 
  15  -7  -1    0.89    0.21 
  15  -7  -1    0.78    0.19 
  15  -6  -1   -0.07    0.13 
  15  -6  -1   -0.08    0.15 
  15  -5  -1   -0.06    0.14 
  15  -5  -1   -0.09    0.12 
  15  -4  -1    0.08    0.15 
  15  -4  -1    0.08    0.12 
  15  -3  -1    1.87    0.27 
  15  -3  -1    1.41    0.26 
  15  -2  -1    0.28    0.15 
  15  -2  -1    0.63    0.20 
  15  -1  -1    0.43    0.18 
  15  -1  -1    0.08    0.12 
  15   0  -1   -0.12    0.14 
  15   0  -1   -0.07    0.11 
  15   1  -1    0.03    0.15 
  15   1  -1    0.18    0.16 
  15   2  -1    0.43    0.18 
  15   2  -1    0.39    0.19 
  15   3  -1    1.71    0.29 
  15   4  -1    0.20    0.17 
  15   5  -1    0.00    0.15 
  15   6  -1    0.04    0.16 
  15   7  -1    0.58    0.22 
  15   8  -1    0.20    0.21 
  15   9  -1   -0.07    0.22 
 -15 -10   1   -0.18    0.10 
 -15 -11   1    0.09    0.14 
 -15 -12   1   -0.06    0.15 
  15 -11   0    0.69    0.23 
  15 -10   0    0.13    0.18 
  15  -9   0    1.01    0.22 
  15  -9   0    0.86    0.22 
  15  -8   0    0.25    0.17 
  15  -8   0    0.14    0.16 
  15  -7   0    0.33    0.16 
  15  -7   0   -0.04    0.14 
  15  -6   0    0.07    0.15 
  15  -6   0    0.11    0.14 
  15  -5   0    0.22    0.15 
  15  -5   0    0.27    0.15 
  15  -4   0   -0.04    0.12 
  15  -4   0   -0.04    0.11 
  15  -3   0    0.17    0.13 
  15  -3   0    0.17    0.15 
  15  -2   0    0.02    0.13 
  15  -2   0    0.11    0.15 
  15  -1   0    2.26    0.27 
  15  -1   0    2.01    0.30 
  15   0   0   -0.05    0.12 
  15   0   0    0.05    0.13 
  15   1   0    2.08    0.27 
  15   1   0    2.16    0.32 
  15   2   0   -0.05    0.12 
  15   3   0    0.18    0.15 
  15   4   0    0.00    0.13 
  15   5   0    0.12    0.16 
  15   6   0   -0.06    0.15 
  15   7   0    0.37    0.20 
  15   8   0    0.14    0.19 
  15   9   0    1.04    0.29 
  15  10   0    0.06    0.25 
 -15 -11   0    0.65    0.19 
 -15 -12   0    0.07    0.17 
  15 -10   1   -0.03    0.17 
  15  -9   1    0.20    0.18 
  15  -8   1    0.02    0.16 
  15  -7   1    0.51    0.18 
  15  -6   1    0.16    0.15 
  15  -5   1    0.17    0.13 
  15  -4   1    0.08    0.12 
  15  -3   1    1.71    0.27 
  15  -2   1    0.36    0.16 
  15  -1   1    0.29    0.16 
  15   0   1   -0.03    0.11 
  15   1   1    0.09    0.12 
  15   2   1    0.36    0.16 
  15   3   1    1.69    0.29 
  15   4   1    0.14    0.14 
  15   5   1    0.07    0.14 
  15   6   1    0.13    0.17 
  15   7   1    0.95    0.26 
  15   8   1    0.00    0.18 
  15   9   1    0.22    0.22 
  15  10   1    0.01    0.24 
 -15 -11  -1   -0.03    0.13 
 -15 -12  -1   -0.02    0.16 
  15 -11   2   -0.20    0.21 
  15 -10   2    0.04    0.17 
  15  -9   2    0.05    0.16 
  15  -8   2    0.00    0.15 
  15  -7   2    0.25    0.15 
  15  -6   2    0.37    0.16 
  15  -5   2    0.09    0.13 
  15  -4   2    0.04    0.12 
  15  -3   2    0.23    0.14 
  15  -2   2    0.83    0.21 
  15  -1   2    0.13    0.13 
  15   0   2    1.28    0.24 
  15   1   2    0.12    0.12 
  15   2   2    1.00    0.23 
  15   3   2    0.14    0.14 
  15   4   2    0.05    0.12 
  15   5   2   -0.05    0.16 
  15   6   2    0.08    0.16 
  15   7   2    0.08    0.17 
  15   8   2   -0.04    0.19 
  15   9   2   -0.05    0.18 
  15  10   2    0.18    0.23 
  15  11   2   -0.03    0.27 
  15 -11   3    0.24    0.20 
  15 -10   3    0.03    0.15 
  15  -9   3    0.25    0.17 
  15  -8   3    0.07    0.14 
  15  -7   3    0.50    0.18 
  15  -6   3    0.21    0.15 
  15  -5   3    0.06    0.12 
  15  -4   3    0.13    0.13 
  15  -3   3    0.64    0.18 
  15  -2   3    1.11    0.23 
  15  -1   3    0.06    0.12 
  15   0   3    0.18    0.13 
  15   1   3    0.18    0.14 
  15   2   3    0.79    0.20 
  15   3   3    0.51    0.18 
  15   4   3    0.27    0.16 
  15   5   3   -0.07    0.14 
  15   6   3    0.31    0.18 
  15   7   3   -0.12    0.17 
  15   8   3    0.10    0.19 
  15   9   3    0.20    0.21 
  15  10   3    0.08    0.23 
  15 -12   4   -0.13    0.26 
  15 -11   4    0.77    0.26 
  15 -10   4    0.04    0.17 
  15  -9   4    1.09    0.23 
  15  -8   4    0.28    0.15 
  15  -7   4    0.03    0.13 
  15  -6   4   -0.04    0.12 
  15  -5   4    0.18    0.13 
  15  -4   4   -0.02    0.11 
  15  -3   4    0.14    0.13 
  15  -2   4   -0.06    0.11 
  15  -1   4    1.65    0.28 
 -15   0  -4    0.59    0.16 
  15   0   4    0.24    0.15 
 -15  -1  -4    1.61    0.22 
  15   1   4    1.54    0.27 
 -15  -2  -4    0.00    0.13 
  15   2   4   -0.15    0.12 
 -15  -3  -4    0.10    0.12 
  15   3   4    0.19    0.14 
 -15  -4  -4    0.05    0.14 
  15   4   4    0.17    0.17 
  15   5   4    0.13    0.15 
  15   6   4    0.08    0.16 
  15   7   4    0.05    0.17 
  15   8   4   -0.07    0.17 
  15   9   4    0.93    0.27 
  15  10   4   -0.14    0.24 
  15 -12   5    0.60    0.30 
  15 -11   5    0.58    0.26 
  15 -10   5    0.01    0.18 
  15  -9   5    0.09    0.17 
  15  -8   5    0.09    0.15 
  15  -7   5    1.36    0.26 
  15  -6   5    0.31    0.15 
  15  -5   5    0.12    0.13 
  15  -4   5    0.09    0.12 
  15  -3   5    0.31    0.15 
  15  -2   5    0.08    0.13 
  15  -1   5    0.33    0.16 
 -15   0  -5    0.12    0.14 
  15   0   5   -0.06    0.11 
 -15  -1  -5    0.49    0.17 
  15   1   5    0.35    0.15 
 -15  -2  -5    0.11    0.13 
  15   2   5   -0.02    0.14 
 -15  -3  -5    0.45    0.15 
  15   3   5    0.47    0.18 
 -15  -4  -5    0.07    0.13 
  15   4   5    0.09    0.15 
 -15  -5  -5    0.07    0.12 
  15   5   5    0.20    0.15 
 -15  -6  -5    0.17    0.13 
  15   6   5    0.26    0.17 
 -15  -7  -5    1.07    0.20 
  15   7   5    1.43    0.28 
 -15  -8  -5    0.03    0.14 
  15   8   5    0.06    0.19 
  15   9   5   -0.07    0.21 
  15 -11   6    0.25    0.26 
  15 -10   6   -0.10    0.20 
  15  -9   6    0.06    0.19 
  15  -8   6    0.17    0.17 
  15  -7   6    0.11    0.15 
  15  -6   6    0.05    0.14 
  15  -5   6    0.12    0.13 
  15  -4   6    0.05    0.12 
  15  -3   6   -0.02    0.12 
  15  -2   6    0.03    0.12 
 -15   1  -6    0.49    0.16 
  15  -1   6    0.00    0.14 
 -15   0  -6    0.49    0.16 
  15   0   6    0.27    0.16 
 -15  -1  -6    0.23    0.14 
  15   1   6    0.22    0.15 
 -15  -2  -6    0.10    0.12 
  15   2   6   -0.15    0.12 
 -15  -3  -6    0.30    0.15 
  15   3   6    0.23    0.17 
 -15  -4  -6    0.06    0.13 
  15   4   6    0.05    0.16 
 -15  -5  -6    0.07    0.13 
  15   5   6   -0.09    0.15 
 -15  -6  -6    0.11    0.14 
  15   6   6    0.18    0.17 
 -15  -7  -6    0.00    0.13 
  15   7   6   -0.05    0.18 
 -15  -8  -6    0.07    0.14 
  15   8   6   -0.03    0.18 
 -15  -9  -6   -0.11    0.15 
 -15 -10  -6    0.04    0.19 
  15 -11   7    0.17    0.27 
  15 -10   7   -0.02    0.22 
  15  -9   7   -0.05    0.19 
  15  -8   7   -0.16    0.16 
  15  -7   7   -0.05    0.16 
  15  -6   7    0.11    0.15 
  15  -5   7    0.12    0.16 
  15  -4   7    0.20    0.16 
  15  -3   7    0.12    0.13 
  15  -2   7    0.19    0.14 
 -15   1  -7    0.16    0.15 
  15  -1   7    0.09    0.14 
 -15   0  -7    0.15    0.16 
  15   0   7   -0.01    0.13 
 -15  -1  -7    0.11    0.16 
  15   1   7   -0.02    0.13 
 -15  -2  -7    0.34    0.17 
  15   2   7    0.18    0.16 
 -15  -3  -7    0.24    0.15 
  15   3   7    0.23    0.17 
 -15  -4  -7    0.05    0.14 
  15   4   7    0.61    0.20 
 -15  -5  -7    0.34    0.16 
  15   5   7    0.20    0.19 
 -15  -6  -7    0.32    0.15 
  15   6   7    0.09    0.18 
 -15  -7  -7    0.25    0.16 
  15   7   7    0.06    0.18 
 -15  -8  -7    0.17    0.16 
  15   8   7   -0.09    0.22 
 -15  -9  -7    0.00    0.16 
 -15 -10  -7   -0.07    0.19 
 -15 -11  -7    0.08    0.25 
  15 -10   8    0.04    0.25 
  15  -9   8    0.26    0.22 
  15  -8   8    0.00    0.18 
  15  -7   8    0.17    0.18 
  15  -6   8   -0.12    0.15 
  15  -5   8    0.10    0.16 
  15  -4   8    0.07    0.15 
  15  -3   8    0.11    0.16 
  15  -2   8    0.26    0.17 
 -15   1  -8    1.84    0.30 
  15  -1   8    1.82    0.30 
 -15   0  -8    0.19    0.16 
  15   0   8   -0.10    0.14 
 -15  -1  -8    2.14    0.31 
  15   1   8    2.66    0.37 
 -15  -2  -8    0.36    0.17 
  15   2   8    0.06    0.17 
 -15  -3  -8    0.44    0.18 
  15   3   8    0.05    0.18 
 -15  -4  -8   -0.11    0.14 
  15   4   8   -0.12    0.16 
 -15  -5  -8    0.22    0.17 
  15   5   8    0.24    0.19 
 -15  -6  -8    0.09    0.15 
  15   6   8    0.09    0.20 
 -15  -7  -8    0.20    0.17 
  15   7   8    0.06    0.21 
 -15  -8  -8    0.04    0.18 
 -15  -9  -8    0.22    0.21 
 -15 -10  -8    0.26    0.24 
  15  -9   9    0.02    0.24 
  15  -8   9   -0.05    0.21 
  15  -7   9    0.43    0.23 
  15  -6   9    0.49    0.21 
  15  -5   9    0.09    0.17 
  15  -4   9    0.07    0.14 
  15  -3   9    0.41    0.21 
  15  -2   9    0.14    0.16 
 -15   1  -9    0.47    0.21 
  15  -1   9    0.76    0.23 
 -15   0  -9    0.21    0.18 
  15   0   9   -0.12    0.15 
 -15  -1  -9    0.80    0.22 
  15   1   9    0.43    0.20 
 -15  -2  -9    0.25    0.16 
  15   2   9    0.27    0.19 
 -15  -3  -9    0.62    0.20 
  15   3   9    0.53    0.22 
 -15  -4  -9    0.36    0.20 
  15   4   9    0.30    0.20 
 -15  -5  -9    0.14    0.18 
  15   5   9    0.09    0.20 
 -15  -6  -9    0.40    0.20 
  15   6   9    0.52    0.26 
 -15  -7  -9    0.71    0.25 
 -15  -8  -9    0.16    0.22 
 -15  -9  -9   -0.19    0.23 
  15  -9  10   -0.14    0.25 
  15  -8  10    0.09    0.25 
  15  -7  10   -0.04    0.22 
  15  -6  10   -0.18    0.18 
  15  -5  10    0.36    0.20 
  15  -4  10    0.05    0.16 
  15  -3  10    0.36    0.20 
  15  -2  10    0.01    0.18 
 -15   1 -10    0.72    0.26 
  15  -1  10    0.52    0.20 
 -15   0 -10    0.52    0.23 
  15   0  10    0.25    0.19 
 -15  -1 -10    1.07    0.26 
  15   1  10    0.60    0.24 
 -15  -2 -10    0.26    0.19 
  15   2  10   -0.14    0.18 
 -15  -3 -10    0.59    0.21 
  15   3  10    0.45    0.23 
 -15  -4 -10    0.08    0.18 
  15   4  10    0.11    0.20 
 -15  -5 -10    0.20    0.22 
  15   5  10    0.46    0.24 
 -15  -6 -10   -0.03    0.21 
  15   6  10    0.24    0.26 
 -15  -7 -10    0.14    0.24 
 -15  -8 -10    0.35    0.29 
 -15  -9 -10   -0.05    0.29 
  15  -8  11   -0.09    0.25 
  15  -7  11    0.41    0.28 
  15  -6  11   -0.11    0.19 
  15  -5  11   -0.16    0.15 
  15  -4  11   -0.15    0.16 
  15  -3  11    0.20    0.20 
  15  -2  11   -0.09    0.18 
 -15   1 -11    0.13    0.24 
  15  -1  11   -0.08    0.16 
 -15   0 -11    0.02    0.21 
  15   0  11    0.21    0.21 
 -15  -1 -11    0.17    0.22 
  15   1  11    0.03    0.19 
 -15  -2 -11    0.14    0.22 
  15   2  11   -0.04    0.20 
 -15  -3 -11    0.35    0.23 
  15   3  11    0.15    0.23 
 -15  -4 -11    0.27    0.22 
  15   4  11    0.07    0.22 
 -15  -5 -11   -0.18    0.23 
  15   5  11    0.10    0.25 
 -15  -6 -11    0.11    0.28 
 -15  -7 -11    0.18    0.30 
 -15  -8 -11    0.22    0.31 
  15  -6  12    0.01    0.19 
  15  -5  12    0.02    0.19 
  15  -4  12    0.12    0.20 
  15  -3  12   -0.08    0.19 
  15  -2  12   -0.02    0.19 
 -15   1 -12    0.24    0.30 
  15  -1  12   -0.09    0.20 
 -15   0 -12    0.25    0.28 
  15   0  12    0.14    0.21 
 -15  -1 -12    0.64    0.30 
  15   1  12    0.40    0.24 
 -15  -2 -12    0.21    0.27 
  15   2  12   -0.11    0.22 
 -15  -3 -12   -0.10    0.25 
  15   3  12    0.29    0.23 
 -15  -4 -12    0.29    0.29 
  15   4  12   -0.08    0.24 
 -15  -5 -12   -0.09    0.28 
 -15  -6 -12   -0.02    0.32 
  15  -4  13    0.16    0.20 
  15  -3  13    0.31    0.23 
  15  -2  13    0.22    0.22 
 -15   1 -13    0.27    0.36 
  15  -1  13   -0.16    0.22 
 -15   0 -13    0.13    0.32 
  15   0  13   -0.02    0.21 
 -15  -1 -13    0.00    0.30 
  15   1  13    0.18    0.23 
 -15  -2 -13    0.17    0.34 
  15   2  13    0.30    0.26 
 -15  -3 -13    0.14    0.35 
  15   3  13    0.10    0.27 
 -15  -4 -13    0.07    0.34 
 -15   0 -14    0.55    0.42 
  16  -2 -13    0.10    0.38 
  16  -1 -13    0.35    0.40 
 -16   0  13   -0.02    0.15 
  16   0 -13    0.40    0.41 
 -16  -1  13    0.23    0.16 
  16   1 -13    0.10    0.40 
  16   2 -13    0.53    0.44 
  16  -5 -12    0.09    0.37 
  16  -4 -12    0.22    0.37 
  16  -3 -12   -0.28    0.36 
  16  -2 -12    0.53    0.39 
 -16   1  12    0.10    0.15 
  16  -1 -12   -0.07    0.34 
 -16   0  12    0.26    0.16 
  16   0 -12    0.41    0.37 
 -16  -1  12    0.30    0.16 
  16   1 -12    0.48    0.37 
 -16  -2  12   -0.12    0.13 
  16   2 -12    0.12    0.37 
 -16  -3  12    0.12    0.15 
  16   3 -12    0.14    0.40 
 -16  -4  12    0.05    0.15 
  16  -6 -11   -0.14    0.34 
  16  -5 -11    0.30    0.36 
  16  -4 -11    0.15    0.33 
  16  -3 -11    0.07    0.35 
  16  -2 -11    0.25    0.35 
 -16   1  11    0.20    0.13 
  16  -1 -11    0.64    0.36 
 -16   0  11    0.12    0.13 
  16   0 -11    0.40    0.35 
 -16  -1  11    0.14    0.13 
  16   1 -11   -0.03    0.33 
 -16  -2  11    0.06    0.13 
  16   2 -11    0.05    0.34 
 -16  -3  11    0.18    0.14 
  16   3 -11   -0.07    0.35 
 -16  -4  11    0.09    0.14 
 -16  -5  11    0.04    0.14 
 -16  -6  11    0.12    0.16 
  16  -7 -10    0.12    0.34 
  16  -6 -10    0.10    0.33 
  16  -5 -10   -0.04    0.33 
  16  -4 -10    0.24    0.34 
  16  -3 -10    0.03    0.32 
 -16   2  10    0.02    0.12 
  16  -2 -10   -0.16    0.29 
 -16   1  10    0.32    0.14 
  16  -1 -10    0.18    0.32 
 -16   0  10   -0.03    0.11 
  16   0 -10   -0.05    0.31 
 -16  -1  10    0.12    0.14 
  16   1 -10    0.13    0.32 
 -16  -2  10    0.03    0.12 
  16   2 -10   -0.13    0.29 
 -16  -3  10    0.00    0.11 
  16   3 -10   -0.12    0.31 
 -16  -4  10    0.00    0.13 
 -16  -5  10    0.18    0.15 
 -16  -6  10   -0.02    0.14 
 -16  -7  10    0.14    0.15 
  16  -8  -9    0.22    0.31 
  16  -7  -9    0.64    0.34 
  16  -6  -9   -0.12    0.29 
  16  -5  -9   -0.34    0.28 
  16  -4  -9    0.07    0.31 
  16  -3  -9    0.42    0.22 
  16  -3  -9    0.31    0.30 
  16  -2  -9    0.07    0.30 
 -16   1   9    0.19    0.13 
  16  -1  -9    0.15    0.29 
 -16   0   9   -0.03    0.11 
  16   0  -9    0.15    0.28 
 -16  -1   9    0.02    0.11 
  16   1  -9    0.08    0.28 
 -16  -2   9    0.10    0.12 
  16   2  -9   -0.12    0.28 
 -16  -3   9    0.46    0.16 
  16   3  -9   -0.49    0.28 
 -16  -4   9    0.02    0.13 
 -16  -5   9    0.15    0.12 
 -16  -6   9    0.06    0.13 
 -16  -7   9    0.28    0.16 
 -16  -8   9   -0.13    0.16 
  16  -9  -8    0.64    0.29 
  16  -8  -8   -0.08    0.28 
  16  -7  -8    0.06    0.28 
  16  -6  -8   -0.09    0.27 
  16  -5  -8    0.24    0.29 
  16  -4  -8    0.12    0.29 
  16  -4  -8    0.15    0.20 
  16  -3  -8    0.01    0.17 
  16  -3  -8    0.05    0.27 
  16  -2  -8   -0.28    0.25 
  16  -2  -8   -0.23    0.15 
  16  -1  -8    0.26    0.27 
  16  -1  -8    0.24    0.19 
  16   0  -8    0.01    0.18 
  16   0  -8   -0.09    0.24 
  16   1  -8    0.05    0.18 
  16   1  -8    0.19    0.27 
 -16  -2   8   -0.03    0.10 
  16   2  -8   -0.30    0.25 
 -16  -3   8    0.04    0.12 
  16   3  -8    0.08    0.29 
 -16  -4   8   -0.05    0.11 
 -16  -5   8    0.02    0.13 
 -16  -6   8    0.10    0.13 
 -16  -7   8    0.27    0.17 
 -16  -8   8   -0.02    0.19 
 -16  -9   8    0.27    0.22 
  16 -10  -7    0.29    0.27 
  16  -9  -7    0.14    0.26 
  16  -8  -7    0.37    0.28 
  16  -7  -7    0.26    0.26 
  16  -6  -7    0.03    0.26 
  16  -5  -7    0.42    0.27 
  16  -4  -7    0.93    0.32 
  16  -4  -7    0.34    0.19 
  16  -3  -7    0.77    0.30 
  16  -3  -7    1.17    0.25 
  16  -2  -7    0.09    0.24 
  16  -2  -7    0.20    0.18 
  16  -1  -7    0.39    0.27 
  16  -1  -7    0.44    0.20 
  16   0  -7    0.00    0.23 
  16   0  -7    0.26    0.19 
  16   1  -7    0.56    0.28 
  16   1  -7    0.12    0.19 
  16   2  -7    0.07    0.24 
  16   2  -7    0.28    0.22 
  16   3  -7    0.75    0.27 
  16   3  -7    0.99    0.33 
 -16  -4   7    0.51    0.16 
 -16  -5   7    0.38    0.16 
 -16  -6   7    0.14    0.13 
 -16  -7   7    0.26    0.16 
 -16  -8   7   -0.03    0.16 
 -16  -9   7    0.27    0.21 
 -16 -10   7    0.13    0.21 
  16 -10  -6    0.13    0.24 
  16  -9  -6    0.54    0.28 
  16  -8  -6    0.13    0.23 
  16  -7  -6   -0.01    0.23 
  16  -6  -6   -0.01    0.23 
  16  -5  -6    1.44    0.29 
  16  -5  -6    1.56    0.34 
  16  -4  -6   -0.36    0.21 
  16  -4  -6    0.07    0.16 
  16  -3  -6    0.46    0.21 
  16  -3  -6    0.26    0.24 
  16  -2  -6   -0.01    0.21 
  16  -2  -6    0.03    0.17 
  16  -1  -6    0.21    0.18 
  16  -1  -6    0.41    0.25 
  16   0  -6    0.09    0.16 
  16   0  -6    0.04    0.22 
  16   1  -6    0.71    0.28 
  16   1  -6    0.40    0.22 
  16   2  -6   -0.05    0.17 
  16   2  -6   -0.11    0.22 
  16   3  -6    0.39    0.27 
  16   3  -6    0.04    0.19 
  16   4  -6    0.19    0.21 
 -16  -6   6   -0.14    0.11 
 -16  -7   6    0.04    0.14 
 -16  -8   6   -0.09    0.14 
 -16  -9   6    0.37    0.19 
 -16 -10   6    0.03    0.20 
  16 -11  -5    0.17    0.25 
  16 -10  -5    0.27    0.24 
  16  -9  -5   -0.04    0.22 
  16  -8  -5    0.24    0.23 
  16  -7  -5   -0.06    0.20 
  16  -6  -5    0.11    0.18 
  16  -6  -5    0.08    0.23 
  16  -5  -5   -0.10    0.16 
  16  -5  -5    0.02    0.21 
  16  -4  -5    0.26    0.23 
  16  -4  -5    0.01    0.16 
  16  -3  -5    0.28    0.22 
  16  -3  -5    0.23    0.17 
  16  -2  -5    0.03    0.16 
  16  -2  -5    0.12    0.21 
  16  -1  -5   -0.08    0.16 
  16  -1  -5    0.04    0.20 
  16   0  -5   -0.04    0.20 
  16   0  -5   -0.09    0.14 
  16   1  -5   -0.29    0.14 
  16   1  -5   -0.02    0.21 
  16   2  -5    0.08    0.21 
  16   2  -5    0.01    0.16 
  16   3  -5    0.37    0.23 
  16   3  -5   -0.01    0.16 
  16   4  -5    0.01    0.18 
  16   5  -5   -0.03    0.19 
  16   6  -5    0.38    0.25 
 -16  -7   5    0.02    0.12 
 -16  -8   5    0.07    0.15 
 -16  -9   5    0.06    0.16 
 -16 -10   5   -0.09    0.17 
 -16 -11   5    0.01    0.21 
  16 -11  -4    0.47    0.25 
  16 -10  -4    0.29    0.23 
  16  -9  -4   -0.07    0.21 
  16  -8  -4    0.36    0.22 
  16  -7  -4    0.37    0.21 
  16  -7  -4    0.02    0.17 
  16  -6  -4   -0.07    0.20 
  16  -6  -4    0.15    0.17 
  16  -5  -4    0.05    0.16 
  16  -5  -4    0.14    0.21 
  16  -4  -4    0.40    0.19 
  16  -4  -4    0.51    0.24 
  16  -3  -4    0.00    0.14 
  16  -3  -4    0.19    0.20 
  16  -2  -4   -0.02    0.14 
  16  -2  -4    0.06    0.20 
  16  -1  -4    0.74    0.23 
  16  -1  -4    0.22    0.17 
  16   0  -4    0.20    0.18 
  16   0  -4    0.10    0.17 
  16   1  -4    0.59    0.21 
  16   1  -4    0.28    0.19 
  16   2  -4    0.12    0.20 
  16   2  -4   -0.24    0.13 
  16   3  -4    0.27    0.21 
  16   3  -4    0.16    0.17 
  16   4  -4    0.07    0.19 
  16   5  -4    0.07    0.19 
  16   6  -4   -0.08    0.20 
  16   7  -4   -0.24    0.22 
 -16  -8   4    0.17    0.15 
 -16  -9   4   -0.05    0.16 
 -16 -10   4    0.40    0.19 
 -16 -11   4    0.05    0.22 
  16 -11  -3    0.34    0.24 
  16 -10  -3   -0.08    0.22 
  16  -9  -3    0.73    0.23 
  16  -8  -3    0.15    0.20 
  16  -7  -3    0.55    0.20 
  16  -7  -3    0.78    0.24 
  16  -6  -3   -0.20    0.14 
  16  -6  -3   -0.29    0.17 
  16  -5  -3    0.64    0.22 
  16  -5  -3    0.17    0.15 
  16  -4  -3    0.14    0.16 
  16  -4  -3    0.24    0.20 
  16  -3  -3    0.35    0.18 
  16  -3  -3    0.43    0.21 
  16  -2  -3    0.38    0.21 
  16  -2  -3    0.26    0.18 
  16  -1  -3    2.36    0.33 
  16  -1  -3    1.24    0.27 
  16   0  -3   -0.07    0.14 
  16   0  -3    0.08    0.17 
  16   1  -3    1.73    0.31 
  16   1  -3    1.87    0.31 
  16   2  -3    0.41    0.21 
  16   2  -3    0.32    0.22 
  16   3  -3    0.69    0.24 
  16   4  -3    0.16    0.18 
  16   5  -3    0.28    0.22 
  16   6  -3    0.02    0.19 
  16   7  -3    0.78    0.27 
  16   8  -3    0.44    0.27 
 -16  -9   3    0.16    0.15 
 -16 -10   3    0.00    0.16 
 -16 -11   3    0.39    0.20 
  16 -12  -2    0.22    0.25 
  16 -11  -2    0.34    0.23 
  16 -10  -2    0.13    0.22 
  16  -9  -2    1.03    0.25 
  16  -8  -2    0.15    0.18 
  16  -8  -2   -0.01    0.18 
  16  -7  -2    0.32    0.19 
  16  -7  -2   -0.10    0.15 
  16  -6  -2    0.00    0.17 
  16  -6  -2    0.06    0.17 
  16  -5  -2    2.25    0.33 
  16  -5  -2    2.83    0.33 
  16  -4  -2    0.05    0.14 
  16  -4  -2    0.20    0.17 
  16  -3  -2    0.24    0.16 
  16  -3  -2    0.70    0.21 
  16  -2  -2    0.13    0.14 
  16  -2  -2    0.15    0.18 
  16  -1  -2    1.20    0.26 
  16  -1  -2    1.92    0.30 
  16   0  -2    0.53    0.20 
  16   0  -2    0.75    0.23 
  16   1  -2    1.69    0.30 
  16   1  -2    1.31    0.27 
  16   2  -2    0.20    0.16 
  16   2  -2    0.44    0.21 
  16   3  -2    0.28    0.19 
  16   4  -2    0.39    0.21 
  16   5  -2    2.11    0.34 
  16   6  -2    0.29    0.20 
  16   7  -2   -0.09    0.20 
  16   8  -2    0.06    0.24 
 -16 -10   2   -0.06    0.14 
 -16 -11   2    0.12    0.19 
 -16 -12   2    0.07    0.21 
  16 -10  -1    0.03    0.20 
  16  -9  -1    0.01    0.20 
  16  -9  -1    0.22    0.21 
  16  -8  -1   -0.18    0.14 
  16  -8  -1    0.07    0.18 
  16  -7  -1    0.83    0.21 
  16  -7  -1    0.32    0.19 
  16  -6  -1    0.52    0.20 
  16  -6  -1    0.42    0.20 
  16  -5  -1    0.11    0.18 
  16  -5  -1    0.18    0.15 
  16  -4  -1    0.71    0.21 
  16  -4  -1   -0.06    0.13 
  16  -3  -1    0.06    0.14 
  16  -3  -1    0.15    0.17 
  16  -2  -1    0.28    0.18 
  16  -2  -1    0.03    0.12 
  16  -1  -1    0.70    0.20 
  16  -1  -1    0.76    0.21 
  16   0  -1   -0.10    0.13 
  16   0  -1    0.07    0.15 
  16   1  -1    0.79    0.22 
  16   1  -1    0.72    0.21 
  16   2  -1    0.33    0.17 
  16   3  -1    0.10    0.14 
  16   4  -1    0.46    0.20 
  16   5  -1    0.08    0.18 
  16   6  -1    0.34    0.21 
  16   7  -1    0.84    0.28 
  16   8  -1    0.18    0.23 
  16   9  -1   -0.11    0.24 
 -16 -10   1   -0.23    0.13 
 -16 -11   1    0.01    0.17 
 -16 -12   1    0.02    0.19 
  16  -9   0   -0.05    0.16 
  16  -8   0    0.19    0.17 
  16  -7   0   -0.07    0.14 
  16  -6   0    0.04    0.14 
  16  -5   0   -0.02    0.14 
  16  -4   0   -0.04    0.13 
  16  -3   0   -0.04    0.13 
  16  -2   0    0.14    0.15 
  16  -1   0    0.05    0.13 
  16   0   0    3.15    0.38 
  16   1   0   -0.03    0.12 
  16   2   0    0.56    0.19 
  16   3   0   -0.08    0.13 
  16   4   0   -0.05    0.14 
  16   5   0   -0.12    0.14 
  16   6   0    0.08    0.19 
  16   7   0    0.11    0.19 
  16   8   0    0.00    0.20 
  16   9   0   -0.18    0.22 
  16  10   0    0.21    0.26 
 -16 -11   0    0.09    0.16 
 -16 -12   0    0.11    0.20 
  16 -10   1    0.26    0.22 
  16  -9   1    0.07    0.18 
  16  -8   1    0.06    0.17 
  16  -7   1    0.57    0.19 
  16  -6   1    0.26    0.17 
  16  -5   1    0.14    0.15 
  16  -4   1    0.43    0.17 
  16  -3   1   -0.03    0.13 
  16  -2   1    0.22    0.15 
  16  -1   1    1.02    0.22 
  16   0   1   -0.06    0.11 
  16   1   1    0.99    0.24 
  16   2   1    0.25    0.16 
  16   3   1    0.05    0.14 
  16   4   1    0.22    0.17 
  16   5   1   -0.03    0.16 
  16   6   1    0.15    0.20 
  16   7   1    0.83    0.26 
  16   8   1    0.35    0.22 
  16   9   1   -0.03    0.23 
  16  10   1   -0.21    0.25 
 -16 -12  -1   -0.01    0.20 
  16 -10   2    0.04    0.19 
  16  -9   2    0.65    0.24 
  16  -8   2   -0.02    0.15 
  16  -7   2    0.01    0.15 
  16  -6   2    0.13    0.15 
  16  -5   2    2.20    0.32 
  16  -4   2    0.10    0.14 
  16  -3   2    0.42    0.18 
  16  -2   2    0.12    0.14 
  16  -1   2    1.67    0.29 
  16   0   2    0.70    0.20 
  16   1   2    1.14    0.25 
  16   2   2    0.26    0.16 
  16   3   2    0.15    0.15 
  16   4   2    0.22    0.16 
  16   5   2    2.57    0.37 
  16   6   2    0.36    0.20 
  16   7   2    0.05    0.20 
  16   8   2   -0.09    0.20 
  16   9   2    0.95    0.30 
  16  10   2    0.23    0.26 
  16  11   2   -0.05    0.30 
  16 -11   3    0.20    0.25 
  16 -10   3   -0.08    0.18 
  16  -9   3    0.33    0.20 
  16  -8   3    0.45    0.19 
  16  -7   3    0.68    0.20 
  16  -6   3    0.04    0.14 
  16  -5   3    0.41    0.18 
  16  -4   3    0.06    0.13 
  16  -3   3    0.48    0.18 
  16  -2   3    0.25    0.15 
  16  -1   3    1.71    0.29 
  16   0   3   -0.10    0.11 
  16   1   3    1.37    0.27 
  16   2   3    0.22    0.16 
  16   3   3    0.59    0.21 
  16   4   3   -0.07    0.14 
  16   5   3    0.80    0.25 
  16   6   3    0.16    0.19 
  16   7   3    0.50    0.22 
  16   8   3    0.02    0.21 
  16   9   3    0.48    0.25 
  16  10   3   -0.02    0.25 
  16 -11   4    0.36    0.27 
  16 -10   4    0.15    0.22 
  16  -9   4    0.18    0.20 
  16  -8   4    0.21    0.17 
  16  -7   4    0.06    0.16 
  16  -6   4    0.10    0.15 
  16  -5   4    0.06    0.14 
  16  -4   4    0.15    0.14 
  16  -3   4    0.08    0.13 
  16  -2   4    0.12    0.15 
  16  -1   4    0.28    0.16 
  16   0   4   -0.07    0.12 
  16   1   4    0.30    0.16 
  16   2   4    0.01    0.14 
  16   3   4    0.01    0.14 
  16   4   4    0.32    0.19 
  16   5   4   -0.18    0.15 
  16   6   4    0.37    0.21 
  16   7   4    0.31    0.21 
  16   8   4   -0.10    0.19 
  16   9   4    0.40    0.25 
  16  10   4    0.26    0.29 
  16 -11   5   -0.09    0.25 
  16 -10   5    0.00    0.22 
  16  -9   5    0.14    0.20 
  16  -8   5   -0.02    0.16 
  16  -7   5    0.01    0.15 
  16  -6   5    0.14    0.16 
  16  -5   5   -0.10    0.12 
  16  -4   5    0.08    0.14 
  16  -3   5    0.23    0.15 
  16  -2   5    0.13    0.13 
  16  -1   5   -0.02    0.12 
  16   0   5    0.03    0.13 
  16   1   5    0.05    0.14 
  16   2   5    0.11    0.14 
  16   3   5    0.01    0.15 
  16   4   5   -0.11    0.16 
  16   5   5    0.09    0.18 
  16   6   5    0.13    0.19 
  16   7   5   -0.01    0.19 
  16   8   5    0.26    0.23 
  16   9   5    0.15    0.25 
  16 -10   6   -0.04    0.24 
  16  -9   6    0.22    0.23 
  16  -8   6   -0.09    0.18 
  16  -7   6   -0.13    0.15 
  16  -6   6   -0.02    0.15 
  16  -5   6    1.58    0.29 
  16  -4   6   -0.17    0.13 
  16  -3   6    0.14    0.15 
  16  -2   6   -0.07    0.13 
  16  -1   6    0.61    0.20 
 -16   0  -6    0.23    0.16 
  16   0   6    0.01    0.14 
 -16  -1  -6    0.92    0.19 
  16   1   6    0.29    0.18 
 -16  -2  -6   -0.02    0.13 
  16   2   6    0.10    0.16 
 -16  -3  -6    0.24    0.16 
  16   3   6    0.54    0.22 
 -16  -4  -6    0.01    0.15 
  16   4   6    0.04    0.18 
  16   5   6    1.34    0.28 
  16   6   6    0.01    0.18 
  16   7   6    0.14    0.21 
  16   8   6    0.05    0.22 
  16 -10   7    0.10    0.27 
  16  -9   7    0.17    0.23 
  16  -8   7    0.37    0.24 
  16  -7   7    0.19    0.21 
  16  -6   7   -0.01    0.17 
  16  -5   7    0.42    0.19 
  16  -4   7    0.34    0.18 
  16  -3   7    0.89    0.23 
  16  -2   7    0.10    0.15 
 -16   1  -7    0.55    0.19 
  16  -1   7    0.21    0.17 
 -16   0  -7    0.17    0.17 
  16   0   7   -0.06    0.15 
 -16  -1  -7    0.41    0.18 
  16   1   7    0.39    0.20 
 -16  -2  -7    0.20    0.17 
  16   2   7    0.10    0.18 
 -16  -3  -7    1.21    0.22 
  16   3   7    0.96    0.26 
 -16  -4  -7    0.85    0.21 
  16   4   7    0.55    0.24 
 -16  -5  -7    0.46    0.20 
  16   5   7    0.48    0.24 
 -16  -6  -7    0.09    0.16 
  16   6   7    0.00    0.19 
 -16  -7  -7    0.43    0.20 
  16   7   7    0.43    0.25 
  16   8   7    0.05    0.24 
  16  -9   8    0.16    0.28 
  16  -8   8    0.02    0.24 
  16  -7   8    0.23    0.21 
  16  -6   8    0.19    0.22 
  16  -5   8    0.18    0.19 
  16  -4   8   -0.07    0.16 
  16  -3   8    0.00    0.16 
  16  -2   8    0.00    0.17 
 -16   1  -8    0.11    0.18 
  16  -1   8    0.14    0.18 
 -16   0  -8    0.11    0.18 
  16   0   8    0.05    0.17 
 -16  -1  -8    0.31    0.18 
  16   1   8    0.05    0.18 
 -16  -2  -8    0.21    0.17 
  16   2   8    0.11    0.19 
 -16  -3  -8   -0.05    0.15 
  16   3   8    0.10    0.20 
 -16  -4  -8    0.23    0.18 
  16   4   8   -0.14    0.18 
 -16  -5  -8    0.20    0.18 
  16   5   8    0.16    0.22 
 -16  -6  -8    0.27    0.20 
  16   6   8    0.36    0.23 
 -16  -7  -8    0.16    0.20 
  16   7   8    0.16    0.23 
 -16  -8  -8    0.21    0.22 
 -16  -9  -8    0.41    0.28 
  16  -8   9   -0.02    0.26 
  16  -7   9    0.24    0.26 
  16  -6   9    0.17    0.23 
  16  -5   9    0.14    0.22 
  16  -4   9    0.15    0.17 
  16  -3   9    0.21    0.18 
  16  -2   9    0.06    0.17 
 -16   1  -9    0.13    0.20 
  16  -1   9   -0.07    0.17 
 -16   0  -9    0.25    0.20 
  16   0   9   -0.01    0.17 
 -16  -1  -9    0.01    0.17 
  16   1   9   -0.09    0.19 
 -16  -2  -9    0.21    0.20 
  16   2   9    0.24    0.21 
 -16  -3  -9    0.59    0.22 
  16   3   9    0.30    0.23 
 -16  -4  -9    0.22    0.18 
  16   4   9   -0.04    0.21 
 -16  -5  -9   -0.20    0.17 
  16   5   9    0.12    0.23 
 -16  -6  -9    0.04    0.21 
  16   6   9   -0.10    0.22 
 -16  -7  -9    0.39    0.24 
 -16  -8  -9    0.03    0.24 
  16  -7  10   -0.02    0.25 
  16  -6  10    0.00    0.24 
  16  -5  10    0.34    0.21 
  16  -4  10    0.12    0.19 
  16  -3  10    0.21    0.21 
  16  -2  10   -0.10    0.17 
 -16   1 -10    0.25    0.23 
  16  -1  10    0.16    0.20 
 -16   0 -10   -0.01    0.19 
  16   0  10    0.19    0.20 
 -16  -1 -10    0.28    0.21 
  16   1  10    0.19    0.22 
 -16  -2 -10    0.07    0.20 
  16   2  10    0.06    0.22 
 -16  -3 -10    0.18    0.21 
  16   3  10    0.13    0.22 
 -16  -4 -10    0.26    0.23 
  16   4  10    0.22    0.26 
 -16  -5 -10    0.31    0.24 
  16   5  10    0.01    0.25 
 -16  -6 -10   -0.15    0.25 
 -16  -7 -10    0.08    0.28 
  16  -6  11    0.19    0.29 
  16  -5  11    0.13    0.20 
  16  -4  11    0.27    0.21 
  16  -3  11   -0.04    0.20 
  16  -2  11    0.06    0.20 
 -16   1 -11    0.47    0.27 
  16  -1  11    0.10    0.21 
 -16   0 -11    0.44    0.27 
  16   0  11   -0.24    0.19 
 -16  -1 -11    0.73    0.28 
  16   1  11    0.27    0.24 
 -16  -2 -11    0.25    0.25 
  16   2  11   -0.02    0.22 
 -16  -3 -11    0.53    0.27 
  16   3  11    0.22    0.25 
 -16  -4 -11    0.20    0.26 
  16   4  11    0.07    0.25 
 -16  -5 -11    0.18    0.29 
  16   5  11    0.39    0.29 
 -16  -6 -11   -0.04    0.30 
  16  -4  12    0.03    0.21 
  16  -3  12    0.16    0.23 
  16  -2  12    0.08    0.22 
 -16   1 -12    0.08    0.33 
  16  -1  12    0.37    0.24 
 -16   0 -12    0.29    0.34 
  16   0  12    0.34    0.25 
 -16  -1 -12   -0.01    0.31 
  16   1  12    0.16    0.25 
 -16  -2 -12    0.08    0.32 
  16   2  12   -0.15    0.24 
 -16  -3 -12    0.11    0.33 
  16   3  12    0.04    0.26 
 -16  -4 -12   -0.04    0.32 
  16   4  12   -0.27    0.26 
 -16   1 -13    0.48    0.43 
  16  -1  13    0.43    0.25 
 -16   0 -13    0.41    0.41 
  16   0  13    0.05    0.24 
 -16  -1 -13    1.05    0.43 
  16   1  13    0.37    0.27 
  17  -2 -12   -0.20    0.37 
  17  -1 -12    0.14    0.39 
 -17   0  12    0.22    0.17 
  17   0 -12    0.83    0.42 
 -17  -1  12    0.10    0.16 
  17   1 -12    0.19    0.36 
  17   2 -12    0.40    0.40 
  17  -4 -11    0.02    0.37 
  17  -3 -11    0.05    0.39 
  17  -2 -11    0.34    0.38 
 -17   1  11   -0.03    0.13 
  17  -1 -11    0.26    0.39 
 -17   0  11    0.07    0.14 
  17   0 -11   -0.27    0.36 
 -17  -1  11    0.12    0.15 
  17   1 -11   -0.20    0.36 
 -17  -2  11    0.31    0.16 
  17   2 -11   -0.05    0.38 
 -17  -3  11    0.22    0.17 
  17   3 -11    0.04    0.39 
 -17  -4  11   -0.17    0.14 
  17  -6 -10   -0.19    0.36 
  17  -5 -10    0.02    0.35 
  17  -4 -10    0.09    0.34 
  17  -3 -10    0.10    0.35 
 -17   2  10    0.09    0.15 
  17  -2 -10    0.17    0.35 
 -17   1  10    0.09    0.15 
  17  -1 -10   -0.51    0.30 
 -17   0  10    0.63    0.18 
  17   0 -10    0.09    0.35 
 -17  -1  10    0.18    0.16 
  17   1 -10   -0.03    0.34 
 -17  -2  10    0.13    0.14 
  17   2 -10    0.02    0.35 
 -17  -3  10    0.14    0.14 
  17   3 -10    0.15    0.37 
 -17  -4  10    0.12    0.15 
 -17  -5  10   -0.05    0.15 
 -17  -6  10    0.02    0.16 
  17  -7  -9    0.13    0.32 
  17  -6  -9    0.17    0.34 
  17  -5  -9   -0.30    0.31 
  17  -4  -9   -0.04    0.33 
  17  -3  -9    0.21    0.34 
  17  -3  -9    0.04    0.24 
  17  -2  -9   -0.04    0.32 
 -17   1   9    0.81    0.20 
  17  -1  -9    0.51    0.35 
 -17   0   9    0.08    0.11 
  17   0  -9    0.22    0.32 
 -17  -1   9    0.56    0.17 
  17   1  -9    0.65    0.34 
 -17  -2   9    0.15    0.14 
  17   2  -9   -0.28    0.29 
 -17  -3   9    0.19    0.15 
  17   3  -9    0.39    0.35 
 -17  -4   9   -0.13    0.13 
 -17  -5   9   -0.06    0.13 
 -17  -6   9   -0.09    0.15 
 -17  -7   9    0.50    0.19 
  17  -8  -8    0.17    0.31 
  17  -7  -8    0.10    0.31 
  17  -6  -8    0.52    0.33 
  17  -5  -8   -0.07    0.32 
  17  -4  -8   -0.01    0.31 
  17  -3  -8    0.04    0.21 
  17  -3  -8    0.21    0.31 
  17  -2  -8   -0.35    0.17 
  17  -2  -8   -0.16    0.30 
  17  -1  -8   -0.06    0.29 
  17  -1  -8   -0.08    0.20 
  17   0  -8    0.17    0.21 
  17   0  -8    0.01    0.29 
  17   1  -8    0.20    0.23 
  17   1  -8    0.00    0.30 
 -17  -2   8   -0.27    0.11 
  17   2  -8   -0.13    0.29 
 -17  -3   8   -0.08    0.11 
  17   3  -8   -0.20    0.30 
 -17  -4   8   -0.16    0.11 
 -17  -5   8    0.00    0.13 
 -17  -6   8    0.05    0.13 
 -17  -7   8    0.04    0.14 
 -17  -8   8    0.09    0.22 
  17  -9  -7    0.32    0.30 
  17  -8  -7    0.29    0.31 
  17  -7  -7    0.33    0.32 
  17  -6  -7    0.18    0.29 
  17  -5  -7   -0.42    0.27 
  17  -4  -7    0.20    0.29 
  17  -4  -7    0.15    0.18 
  17  -3  -7    0.04    0.27 
  17  -3  -7    0.01    0.18 
  17  -2  -7   -0.14    0.17 
  17  -2  -7   -0.02    0.27 
  17  -1  -7   -0.16    0.26 
  17  -1  -7   -0.12    0.18 
  17   0  -7    0.42    0.22 
  17   0  -7   -0.01    0.27 
  17   1  -7    0.08    0.28 
  17   1  -7   -0.28    0.19 
  17   2  -7    0.10    0.21 
  17   2  -7    0.02    0.27 
  17   3  -7   -0.21    0.28 
  17   3  -7   -0.14    0.22 
 -17  -4   7    0.02    0.12 
 -17  -5   7   -0.08    0.11 
 -17  -6   7    0.03    0.14 
 -17  -7   7    0.02    0.18 
 -17  -8   7    0.17    0.19 
 -17  -9   7    0.06    0.22 
  17  -9  -6    0.09    0.28 
  17  -8  -6   -0.21    0.27 
  17  -7  -6    0.35    0.29 
  17  -6  -6   -0.01    0.27 
  17  -5  -6   -0.26    0.26 
  17  -5  -6    0.14    0.20 
  17  -4  -6    0.35    0.28 
  17  -4  -6    0.49    0.21 
  17  -3  -6    0.01    0.19 
  17  -3  -6    0.03    0.27 
  17  -2  -6    0.11    0.19 
  17  -2  -6   -0.07    0.27 
  17  -1  -6    0.00    0.25 
  17  -1  -6   -0.04    0.17 
  17   0  -6    0.18    0.19 
  17   0  -6   -0.01    0.25 
  17   1  -6   -0.13    0.24 
  17   1  -6   -0.42    0.15 
  17   2  -6    0.34    0.29 
  17   2  -6    0.17    0.21 
  17   3  -6   -0.09    0.27 
  17   3  -6   -0.19    0.19 
  17   4  -6    0.28    0.25 
 -17  -6   6    0.05    0.13 
 -17  -7   6    0.02    0.15 
 -17  -8   6   -0.01    0.18 
 -17  -9   6    0.10    0.20 
  17 -10  -5    0.11    0.27 
  17  -9  -5    0.56    0.28 
  17  -8  -5    0.24    0.26 
  17  -7  -5    0.41    0.28 
  17  -6  -5    0.25    0.26 
  17  -6  -5    0.08    0.20 
  17  -5  -5   -0.11    0.24 
  17  -5  -5    0.07    0.18 
  17  -4  -5    0.24    0.23 
  17  -4  -5    0.02    0.18 
  17  -3  -5    0.54    0.22 
  17  -3  -5    0.68    0.29 
  17  -2  -5   -0.03    0.23 
  17  -2  -5   -0.15    0.16 
  17  -1  -5    0.94    0.29 
  17  -1  -5    1.00    0.27 
  17   0  -5    0.19    0.19 
  17   0  -5   -0.11    0.21 
  17   1  -5    0.99    0.30 
  17   1  -5    0.66    0.25 
  17   2  -5    0.02    0.24 
  17   2  -5    0.04    0.19 
  17   3  -5    0.60    0.29 
  17   3  -5    0.02    0.20 
  17   4  -5   -0.07    0.21 
  17   5  -5    0.11    0.23 
  17   6  -5    0.09    0.25 
 -17  -7   5    0.19    0.16 
 -17  -8   5    0.18    0.19 
 -17  -9   5    0.18    0.22 
 -17 -10   5    0.02    0.20 
  17 -10  -4    0.00    0.25 
  17  -9  -4    0.24    0.25 
  17  -8  -4    0.17    0.24 
  17  -7  -4   -0.19    0.22 
  17  -6  -4    0.22    0.24 
  17  -6  -4    0.11    0.19 
  17  -5  -4   -0.01    0.17 
  17  -5  -4    0.08    0.24 
  17  -4  -4   -0.07    0.21 
  17  -4  -4    0.04    0.16 
  17  -3  -4    0.29    0.19 
  17  -3  -4    0.12    0.22 
  17  -2  -4   -0.09    0.22 
  17  -2  -4   -0.04    0.15 
  17  -1  -4    0.05    0.21 
  17  -1  -4    0.16    0.18 
  17   0  -4   -0.12    0.15 
  17   0  -4   -0.18    0.18 
  17   1  -4    0.09    0.21 
  17   1  -4    0.13    0.19 
  17   2  -4   -0.02    0.21 
  17   2  -4    0.06    0.19 
  17   3  -4    0.17    0.21 
  17   4  -4   -0.20    0.17 
  17   5  -4    0.09    0.21 
  17   6  -4    0.09    0.23 
  17   7  -4    0.07    0.26 
 -17  -8   4   -0.04    0.16 
 -17  -9   4    0.19    0.19 
 -17 -10   4   -0.07    0.21 
  17 -10  -3    0.18    0.24 
  17  -9  -3    0.33    0.24 
  17  -8  -3   -0.04    0.23 
  17  -7  -3   -0.10    0.20 
  17  -7  -3   -0.05    0.16 
  17  -6  -3    0.00    0.22 
  17  -6  -3   -0.04    0.15 
  17  -5  -3    0.12    0.17 
  17  -5  -3    0.08    0.21 
  17  -4  -3    0.15    0.22 
  17  -4  -3   -0.17    0.15 
  17  -3  -3    0.41    0.22 
  17  -3  -3    0.42    0.20 
  17  -2  -3   -0.08    0.14 
  17  -2  -3   -0.19    0.20 
  17  -1  -3    0.18    0.18 
  17  -1  -3   -0.05    0.20 
  17   0  -3    0.12    0.15 
  17   0  -3    0.00    0.19 
  17   1  -3   -0.07    0.20 
  17   1  -3   -0.03    0.17 
  17   2  -3   -0.22    0.20 
  17   2  -3   -0.14    0.16 
  17   3  -3   -0.01    0.18 
  17   4  -3   -0.09    0.18 
  17   5  -3   -0.04    0.19 
  17   6  -3   -0.03    0.22 
  17   7  -3    0.04    0.23 
  17   8  -3   -0.18    0.26 
 -17  -9   3    0.03    0.16 
 -17 -10   3   -0.10    0.18 
  17  -9  -2    0.30    0.24 
  17  -8  -2    0.23    0.22 
  17  -8  -2   -0.05    0.21 
  17  -7  -2    0.22    0.21 
  17  -7  -2   -0.02    0.17 
  17  -6  -2   -0.09    0.15 
  17  -6  -2    0.26    0.23 
  17  -5  -2    0.04    0.17 
  17  -5  -2    0.18    0.21 
  17  -4  -2    0.14    0.16 
  17  -4  -2    0.14    0.21 
  17  -3  -2   -0.04    0.13 
  17  -3  -2   -0.18    0.18 
  17  -2  -2    0.00    0.20 
  17  -2  -2   -0.03    0.14 
  17  -1  -2   -0.02    0.15 
  17  -1  -2   -0.06    0.17 
  17   0  -2    0.03    0.15 
  17   0  -2    0.14    0.17 
  17   1  -2   -0.19    0.13 
  17   1  -2    0.25    0.18 
  17   2  -2    0.35    0.22 
  17   2  -2   -0.09    0.15 
  17   3  -2    0.26    0.20 
  17   4  -2    0.11    0.19 
  17   5  -2   -0.02    0.17 
  17   6  -2    0.06    0.21 
  17   7  -2    0.19    0.25 
  17   8  -2   -0.05    0.25 
 -17 -10   2    0.36    0.20 
 -17 -11   2    0.20    0.22 
  17  -8  -1    0.05    0.19 
  17  -7  -1    0.47    0.20 
  17  -6  -1    0.21    0.18 
  17  -5  -1   -0.20    0.13 
  17  -4  -1    0.02    0.14 
  17  -3  -1    0.92    0.23 
  17  -2  -1    0.22    0.17 
  17  -1  -1    0.15    0.14 
  17   0  -1   -0.06    0.12 
  17   1  -1    0.06    0.15 
  17   2  -1    0.09    0.16 
  17   3  -1    0.98    0.26 
  17   4  -1    0.03    0.17 
  17   5  -1   -0.04    0.19 
  17   6  -1    0.26    0.21 
  17   7  -1    0.69    0.27 
  17   8  -1   -0.06    0.24 
  17   9  -1    0.11    0.28 
 -17 -10   1    0.17    0.18 
 -17 -11   1    0.13    0.21 
  17  -9   0    0.74    0.25 
  17  -8   0    0.01    0.18 
  17  -7   0   -0.08    0.16 
  17  -6   0   -0.17    0.13 
  17  -5   0   -0.11    0.13 
  17  -4   0    0.04    0.14 
  17  -3   0   -0.16    0.13 
  17  -2   0   -0.09    0.12 
  17  -1   0    0.05    0.14 
  17   0   0    0.02    0.14 
  17   1   0   -0.06    0.12 
  17   2   0   -0.03    0.15 
  17   3   0   -0.18    0.14 
  17   4   0    0.06    0.20 
  17   5   0    0.21    0.21 
  17   6   0    0.08    0.21 
  17   7   0    0.12    0.21 
  17   8   0   -0.01    0.23 
  17   9   0    0.18    0.26 
  17  10   0   -0.06    0.29 
 -17 -11   0    0.16    0.20 
  17  -9   1    0.13    0.22 
  17  -8   1   -0.18    0.16 
  17  -7   1    0.40    0.20 
  17  -6   1    0.05    0.16 
  17  -5   1    0.26    0.16 
  17  -4   1    0.06    0.15 
  17  -3   1    0.70    0.20 
  17  -2   1    0.42    0.19 
  17  -1   1    0.02    0.14 
  17   0   1    0.05    0.14 
  17   1   1    0.26    0.16 
  17   2   1    0.09    0.15 
  17   3   1    1.11    0.28 
  17   4   1    0.15    0.18 
  17   5   1    0.12    0.21 
  17   6   1   -0.11    0.19 
  17   7   1    0.41    0.26 
  17   8   1    0.02    0.23 
  17   9   1    0.21    0.28 
  17  10   1   -0.31    0.24 
  17 -10   2    0.44    0.28 
  17  -9   2    0.11    0.21 
  17  -8   2    0.16    0.20 
  17  -7   2   -0.02    0.16 
  17  -6   2   -0.06    0.14 
  17  -5   2   -0.10    0.13 
  17  -4   2    0.13    0.14 
  17  -3   2    0.22    0.17 
  17  -2   2    0.09    0.14 
  17  -1   2   -0.02    0.13 
  17   0   2   -0.14    0.12 
  17   1   2   -0.11    0.12 
  17   2   2    0.07    0.15 
  17   3   2   -0.07    0.15 
  17   4   2    0.19    0.19 
  17   5   2   -0.15    0.17 
  17   6   2    0.00    0.20 
  17   7   2    0.02    0.23 
  17   8   2   -0.10    0.24 
  17   9   2   -0.18    0.23 
  17  10   2   -0.07    0.28 
  17  11   2    0.18    0.35 
  17 -10   3   -0.14    0.23 
  17  -9   3    0.24    0.22 
  17  -8   3    0.07    0.20 
  17  -7   3    0.07    0.19 
  17  -6   3    0.04    0.16 
  17  -5   3   -0.01    0.14 
  17  -4   3    0.12    0.15 
  17  -3   3    0.02    0.15 
  17  -2   3   -0.01    0.14 
  17  -1   3    0.26    0.17 
  17   0   3   -0.02    0.15 
  17   1   3    0.05    0.16 
  17   2   3    0.01    0.15 
  17   3   3   -0.13    0.15 
  17   4   3   -0.06    0.16 
  17   5   3    0.15    0.19 
  17   6   3   -0.16    0.19 
  17   7   3    0.05    0.21 
  17   8   3    0.20    0.23 
  17   9   3    0.37    0.27 
  17  10   3    0.24    0.30 
  17 -10   4   -0.07    0.25 
  17  -9   4    0.45    0.26 
  17  -8   4    0.23    0.22 
  17  -7   4    0.18    0.19 
  17  -6   4    0.22    0.19 
  17  -5   4    0.01    0.16 
  17  -4   4    0.00    0.15 
  17  -3   4    0.22    0.17 
  17  -2   4    0.04    0.15 
  17  -1   4    0.01    0.15 
  17   0   4    0.12    0.15 
  17   1   4   -0.04    0.16 
  17   2   4    0.09    0.16 
  17   3   4    0.23    0.19 
  17   4   4   -0.06    0.17 
  17   5   4    0.35    0.20 
  17   6   4    0.13    0.22 
  17   7   4    0.05    0.21 
  17   8   4    0.14    0.26 
  17   9   4    0.14    0.27 
  17  10   4   -0.24    0.28 
  17 -10   5    0.12    0.28 
  17  -9   5    0.45    0.27 
  17  -8   5    0.13    0.22 
  17  -7   5    0.40    0.23 
  17  -6   5    0.13    0.19 
  17  -5   5   -0.08    0.16 
  17  -4   5    0.10    0.17 
  17  -3   5    0.49    0.20 
  17  -2   5    0.01    0.14 
  17  -1   5    0.94    0.24 
  17   0   5    0.03    0.16 
  17   1   5    1.35    0.30 
  17   2   5   -0.01    0.16 
  17   3   5    0.80    0.24 
  17   4   5    0.24    0.20 
  17   5   5   -0.14    0.17 
  17   6   5    0.27    0.23 
  17   7   5    0.41    0.26 
  17   8   5    0.29    0.25 
  17   9   5    0.27    0.28 
  17  -9   6    0.22    0.27 
  17  -8   6    0.00    0.22 
  17  -7   6   -0.04    0.20 
  17  -6   6   -0.03    0.19 
  17  -5   6   -0.05    0.18 
  17  -4   6    0.13    0.17 
  17  -3   6    0.00    0.17 
  17  -2   6    0.21    0.18 
  17  -1   6    0.09    0.18 
  17   0   6   -0.03    0.16 
  17   1   6   -0.01    0.17 
  17   2   6    0.27    0.21 
  17   3   6    0.16    0.21 
  17   4   6    0.05    0.20 
  17   5   6   -0.14    0.19 
  17   6   6   -0.08    0.21 
  17   7   6    0.06    0.25 
  17   8   6   -0.09    0.25 
  17  -9   7   -0.08    0.26 
  17  -8   7    0.03    0.25 
  17  -7   7   -0.11    0.20 
  17  -6   7   -0.01    0.20 
  17  -5   7    0.07    0.20 
  17  -4   7   -0.09    0.18 
  17  -3   7   -0.02    0.18 
  17  -2   7    0.10    0.19 
  17  -1   7   -0.24    0.16 
  17   0   7   -0.03    0.18 
  17   1   7    0.02    0.18 
  17   2   7    0.16    0.20 
  17   3   7    0.00    0.20 
  17   4   7    0.12    0.21 
  17   5   7   -0.05    0.20 
  17   6   7    0.07    0.22 
  17   7   7   -0.05    0.25 
  17   8   7   -0.03    0.29 
  17  -8   8   -0.10    0.26 
  17  -7   8   -0.01    0.26 
  17  -6   8    0.08    0.23 
  17  -5   8   -0.04    0.20 
  17  -4   8    0.06    0.21 
  17  -3   8    0.03    0.17 
  17  -2   8   -0.16    0.16 
  17  -1   8   -0.15    0.17 
 -17   0  -8   -0.09    0.18 
  17   0   8   -0.06    0.19 
 -17  -1  -8    0.30    0.21 
  17   1   8    0.22    0.21 
 -17  -2  -8    0.06    0.20 
  17   2   8    0.10    0.21 
  17   3   8    0.32    0.24 
  17   4   8    0.01    0.24 
  17   5   8   -0.34    0.22 
  17   6   8    0.15    0.24 
  17   7   8   -0.11    0.27 
  17  -7   9    0.17    0.29 
  17  -6   9    0.08    0.27 
  17  -5   9    0.27    0.26 
  17  -4   9    0.10    0.19 
  17  -3   9    0.37    0.21 
  17  -2   9    0.06    0.20 
  17  -1   9    1.03    0.30 
 -17   0  -9    0.38    0.22 
  17   0   9    0.03    0.21 
 -17  -1  -9    0.89    0.26 
  17   1   9    0.82    0.27 
 -17  -2  -9    0.37    0.23 
  17   2   9    0.03    0.22 
 -17  -3  -9    0.38    0.22 
  17   3   9    0.43    0.26 
 -17  -4  -9    0.15    0.22 
  17   4   9   -0.09    0.23 
 -17  -5  -9    0.14    0.24 
  17   5   9   -0.25    0.24 
  17   6   9    0.06    0.27 
  17  -6  10   -0.15    0.27 
  17  -5  10    0.24    0.23 
  17  -4  10    0.16    0.21 
  17  -3  10    0.12    0.20 
  17  -2  10    0.04    0.21 
  17  -1  10    0.15    0.24 
 -17   0 -10    0.63    0.30 
  17   0  10    0.34    0.25 
 -17  -1 -10    0.40    0.27 
  17   1  10    0.16    0.24 
 -17  -2 -10    0.16    0.26 
  17   2  10    0.17    0.26 
 -17  -3 -10    0.24    0.26 
  17   3  10    0.02    0.25 
 -17  -4 -10    0.39    0.27 
  17   4  10    0.64    0.29 
 -17  -5 -10    0.29    0.29 
  17   5  10    0.14    0.29 
 -17  -6 -10    0.11    0.31 
  17  -4  11    0.00    0.22 
  17  -3  11    0.21    0.23 
  17  -2  11    0.06    0.23 
 -17   1 -11    0.28    0.31 
  17  -1  11    0.04    0.22 
 -17   0 -11    0.02    0.29 
  17   0  11   -0.05    0.23 
 -17  -1 -11    0.13    0.31 
  17   1  11    0.13    0.25 
 -17  -2 -11    0.35    0.32 
  17   2  11    0.53    0.28 
 -17  -3 -11    0.53    0.34 
  17   3  11    0.13    0.26 
 -17  -4 -11    0.22    0.33 
  17   4  11    0.00    0.27 
  17  -1  12    0.12    0.26 
  17  -1  12    0.12    0.26 
 -17   0 -12    0.62    0.40 
  17   0  12    0.28    0.29 
 -17  -1 -12    0.23    0.37 
  17   1  12    0.08    0.28 
  18  -1 -11    0.31    0.41 
  18   0 -11   -0.25    0.38 
  18   1 -11   -0.49    0.37 
  18  -4 -10   -0.21    0.38 
  18  -3 -10    0.19    0.38 
 -18   2  10    0.03    0.16 
  18  -2 -10    0.02    0.36 
 -18   1  10    0.19    0.17 
  18  -1 -10   -0.11    0.35 
 -18   0  10    0.60    0.20 
  18   0 -10    0.69    0.40 
 -18  -1  10    0.13    0.16 
  18   1 -10   -0.23    0.36 
 -18  -2  10    0.02    0.15 
  18   2 -10    0.21    0.37 
 -18  -3  10    0.18    0.16 
  18   3 -10    0.38    0.40 
 -18  -4  10    0.10    0.16 
  18  -5  -9    0.30    0.39 
  18  -4  -9   -0.33    0.35 
  18  -3  -9   -0.09    0.35 
  18  -2  -9    0.24    0.35 
  18  -2  -9   -0.10    0.26 
  18  -1  -9    0.49    0.37 
 -18   0   9   -0.01    0.14 
  18   0  -9    0.38    0.36 
 -18  -1   9    0.56    0.19 
  18   1  -9    0.30    0.35 
 -18  -2   9    0.36    0.17 
  18   2  -9    0.00    0.35 
 -18  -3   9    0.09    0.15 
  18   3  -9   -0.06    0.36 
 -18  -4   9    0.06    0.14 
 -18  -5   9   -0.07    0.13 
  18  -7  -8    0.30    0.35 
  18  -6  -8   -0.01    0.34 
  18  -5  -8   -0.06    0.34 
  18  -4  -8    0.33    0.38 
  18  -3  -8    0.14    0.25 
  18  -3  -8    0.00    0.35 
  18  -2  -8   -0.22    0.21 
  18  -2  -8    0.07    0.33 
  18  -1  -8    0.41    0.28 
  18  -1  -8   -0.18    0.31 
  18   0  -8    0.40    0.29 
  18   0  -8   -0.02    0.32 
  18   1  -8    0.25    0.29 
  18   1  -8   -0.01    0.32 
 -18  -2   8    0.21    0.14 
  18   2  -8    0.09    0.34 
 -18  -3   8    0.23    0.17 
  18   3  -8    0.20    0.36 
 -18  -4   8    0.11    0.15 
 -18  -5   8    0.27    0.17 
 -18  -6   8    0.08    0.15 
  18  -7  -7    0.31    0.36 
  18  -6  -7   -0.19    0.32 
  18  -5  -7    0.06    0.34 
  18  -4  -7   -0.08    0.22 
  18  -4  -7    0.27    0.34 
  18  -3  -7    0.50    0.24 
  18  -3  -7    0.03    0.32 
  18  -2  -7   -0.34    0.18 
  18  -2  -7    0.24    0.35 
  18  -1  -7    0.00    0.23 
  18  -1  -7    0.17    0.32 
  18   0  -7    0.14    0.23 
  18   0  -7    0.01    0.31 
  18   1  -7   -0.19    0.30 
  18   1  -7   -0.15    0.25 
  18   2  -7    0.13    0.26 
  18   2  -7   -0.11    0.34 
  18   3  -7    0.32    0.31 
  18   3  -7    0.72    0.36 
 -18  -4   7   -0.08    0.13 
 -18  -5   7    0.04    0.14 
 -18  -6   7    0.03    0.16 
 -18  -7   7    0.10    0.22 
  18  -8  -6    0.57    0.34 
  18  -7  -6    0.16    0.31 
  18  -6  -6    0.15    0.31 
  18  -5  -6    0.04    0.25 
  18  -5  -6    0.21    0.31 
  18  -4  -6    0.03    0.30 
  18  -4  -6   -0.12    0.20 
  18  -3  -6    0.10    0.20 
  18  -3  -6    0.05    0.30 
  18  -2  -6    0.25    0.31 
  18  -2  -6    0.00    0.21 
  18  -1  -6   -0.03    0.27 
  18  -1  -6   -0.16    0.19 
  18   0  -6    0.70    0.31 
  18   0  -6    0.36    0.25 
  18   1  -6   -0.31    0.20 
  18   1  -6   -0.22    0.26 
  18   2  -6   -0.04    0.29 
  18   2  -6    0.36    0.27 
  18   3  -6   -0.25    0.23 
  18   4  -6   -0.04    0.27 
 -18  -6   6   -0.10    0.12 
 -18  -7   6    0.03    0.20 
 -18  -8   6   -0.06    0.21 
  18  -9  -5    0.01    0.30 
  18  -8  -5    0.26    0.32 
  18  -7  -5    0.01    0.30 
  18  -6  -5    0.38    0.31 
  18  -5  -5   -0.14    0.27 
  18  -5  -5    0.09    0.20 
  18  -4  -5    0.05    0.28 
  18  -4  -5    0.06    0.20 
  18  -3  -5   -0.14    0.25 
  18  -3  -5   -0.02    0.19 
  18  -2  -5    0.51    0.29 
  18  -2  -5    0.18    0.21 
  18  -1  -5   -0.01    0.20 
  18  -1  -5    0.47    0.28 
  18   0  -5   -0.06    0.19 
  18   0  -5    0.21    0.25 
  18   1  -5    0.14    0.25 
  18   1  -5    0.07    0.22 
  18   2  -5    0.14    0.29 
  18   2  -5    0.47    0.26 
  18   3  -5   -0.03    0.22 
  18   4  -5    0.10    0.26 
  18   5  -5    0.13    0.28 
  18   6  -5    0.11    0.28 
 -18  -7   5   -0.02    0.18 
 -18  -8   5    0.15    0.21 
 -18  -9   5   -0.07    0.22 
  18  -9  -4    0.14    0.28 
  18  -8  -4   -0.03    0.27 
  18  -7  -4    0.25    0.28 
  18  -6  -4    0.24    0.23 
  18  -6  -4    0.14    0.27 
  18  -5  -4    0.07    0.19 
  18  -5  -4   -0.05    0.26 
  18  -4  -4   -0.05    0.18 
  18  -4  -4    0.19    0.26 
  18  -3  -4    0.00    0.18 
  18  -3  -4    0.09    0.25 
  18  -2  -4    0.23    0.19 
  18  -2  -4    0.20    0.25 
  18  -1  -4    0.13    0.24 
  18  -1  -4    0.11    0.20 
  18   0  -4    0.18    0.21 
  18   0  -4    0.62    0.27 
  18   1  -4    0.14    0.24 
  18   1  -4    0.13    0.20 
  18   2  -4   -0.34    0.22 
  18   2  -4    0.07    0.19 
  18   3  -4   -0.06    0.20 
  18   4  -4   -0.11    0.24 
  18   5  -4    0.03    0.22 
  18   6  -4   -0.11    0.25 
  18   7  -4    0.25    0.31 
 -18  -8   4   -0.10    0.18 
 -18  -9   4    0.11    0.21 
  18  -8  -3    0.41    0.30 
  18  -7  -3    0.46    0.24 
  18  -7  -3    1.37    0.34 
  18  -6  -3   -0.03    0.19 
  18  -6  -3    0.25    0.26 
  18  -5  -3   -0.30    0.24 
  18  -5  -3    0.00    0.17 
  18  -4  -3    0.29    0.27 
  18  -4  -3   -0.05    0.16 
  18  -3  -3    0.53    0.26 
  18  -3  -3    0.75    0.23 
  18  -2  -3    0.04    0.17 
  18  -2  -3    0.21    0.24 
  18  -1  -3    0.16    0.22 
  18  -1  -3    0.27    0.20 
  18   0  -3    0.10    0.22 
  18   0  -3    0.09    0.18 
  18   1  -3    0.16    0.20 
  18   1  -3    0.69    0.27 
  18   2  -3    0.08    0.20 
  18   2  -3    0.38    0.24 
  18   3  -3    0.43    0.25 
  18   4  -3   -0.09    0.22 
  18   5  -3    0.08    0.21 
  18   6  -3    0.03    0.25 
  18   7  -3    0.65    0.32 
  18   8  -3   -0.05    0.27 
 -18  -9   3   -0.08    0.20 
  18  -7  -2    0.07    0.20 
  18  -6  -2   -0.08    0.17 
  18  -5  -2    0.08    0.19 
  18  -4  -2    0.14    0.18 
  18  -3  -2    0.33    0.19 
  18  -2  -2    0.10    0.17 
  18  -1  -2   -0.12    0.15 
  18   0  -2    0.30    0.20 
  18   1  -2   -0.07    0.17 
  18   2  -2   -0.10    0.17 
  18   3  -2    0.36    0.24 
  18   4  -2    0.31    0.24 
  18   5  -2    0.17    0.23 
  18   6  -2    0.07    0.23 
  18   7  -2    0.45    0.29 
  18   8  -2   -0.16    0.24 
  18   9  -2    0.09    0.29 
  18  -8  -1    0.35    0.25 
  18  -7  -1    0.17    0.21 
  18  -6  -1    0.50    0.24 
  18  -5  -1   -0.02    0.17 
  18  -4  -1    0.09    0.16 
  18  -3  -1    0.24    0.18 
  18  -2  -1    0.58    0.21 
  18  -1  -1    0.06    0.16 
  18   0  -1   -0.01    0.16 
  18   1  -1    0.15    0.19 
  18   2  -1    0.46    0.22 
  18   3  -1    0.12    0.19 
  18   4  -1    0.03    0.21 
  18   5  -1    0.03    0.22 
  18   6  -1    0.82    0.31 
  18   7  -1    0.47    0.27 
  18   8  -1    0.06    0.26 
  18   9  -1    0.00    0.29 
 -18 -10   1    0.02    0.21 
  18  -9   0   -0.25    0.24 
  18  -8   0    0.29    0.24 
  18  -7   0   -0.11    0.18 
  18  -6   0    0.09    0.18 
  18  -5   0    0.03    0.16 
  18  -4   0    0.95    0.26 
  18  -3   0    0.07    0.16 
  18  -2   0    0.22    0.16 
  18  -1   0    0.01    0.15 
  18   0   0    0.57    0.21 
  18   1   0    0.02    0.15 
  18   2   0    0.13    0.18 
  18   3   0   -0.11    0.17 
  18   4   0    0.95    0.29 
  18   5   0    0.15    0.23 
  18   6   0    0.08    0.22 
  18   7   0   -0.16    0.22 
  18   8   0    0.59    0.28 
  18   9   0    0.12    0.28 
  18  10   0   -0.14    0.30 
  18  -9   1    0.05    0.25 
  18  -8   1    0.01    0.22 
  18  -7   1    0.48    0.24 
  18  -6   1    0.77    0.24 
  18  -5   1   -0.11    0.16 
  18  -4   1    0.09    0.18 
  18  -3   1    0.06    0.17 
  18  -2   1    0.20    0.18 
  18  -1   1    0.12    0.16 
  18   0   1   -0.09    0.15 
  18   1   1    0.03    0.16 
  18   2   1    0.77    0.25 
  18   3   1    0.10    0.20 
  18   4   1   -0.09    0.18 
  18   5   1   -0.16    0.19 
  18   6   1    0.65    0.27 
  18   7   1    0.40    0.26 
  18   8   1    0.12    0.27 
  18   9   1    0.04    0.27 
  18  10   1    0.04    0.32 
  18 -10   2    0.07    0.31 
  18  -9   2   -0.05    0.25 
  18  -8   2   -0.03    0.22 
  18  -7   2   -0.01    0.20 
  18  -6   2    0.10    0.19 
  18  -5   2    0.11    0.18 
  18  -4   2    0.16    0.17 
  18  -3   2    0.29    0.18 
  18  -2   2   -0.02    0.16 
  18  -1   2   -0.04    0.16 
  18   0   2    0.28    0.21 
  18   1   2   -0.01    0.17 
  18   2   2   -0.07    0.17 
  18   3   2    0.13    0.20 
  18   4   2    0.24    0.21 
  18   5   2    0.30    0.22 
  18   6   2   -0.19    0.20 
  18   7   2    0.22    0.26 
  18   8   2    0.22    0.27 
  18   9   2    0.08    0.27 
  18  -9   3    0.08    0.26 
  18  -8   3    0.34    0.26 
  18  -7   3    0.70    0.27 
  18  -6   3    0.15    0.20 
  18  -5   3    0.02    0.18 
  18  -4   3    0.00    0.17 
  18  -3   3    0.42    0.20 
  18  -2   3   -0.15    0.14 
  18  -1   3    0.08    0.17 
  18   0   3   -0.05    0.16 
  18   1   3   -0.12    0.16 
  18   2   3    0.11    0.19 
  18   3   3    0.63    0.26 
  18   4   3   -0.01    0.19 
  18   5   3    0.10    0.21 
  18   6   3    0.16    0.22 
  18   7   3    0.76    0.30 
  18   8   3    0.53    0.29 
  18   9   3   -0.16    0.25 
  18  -9   4   -0.18    0.27 
  18  -8   4   -0.02    0.24 
  18  -7   4   -0.04    0.22 
  18  -6   4    0.32    0.23 
  18  -5   4    0.19    0.20 
  18  -4   4    0.08    0.19 
  18  -3   4    0.12    0.20 
  18  -2   4    0.04    0.17 
  18  -1   4    0.03    0.17 
  18   0   4    0.14    0.18 
  18   1   4   -0.04    0.18 
  18   2   4   -0.02    0.18 
  18   3   4   -0.03    0.19 
  18   4   4   -0.05    0.19 
  18   5   4   -0.03    0.21 
  18   6   4    0.18    0.23 
  18   7   4    0.35    0.27 
  18   8   4    0.20    0.28 
  18   9   4    0.08    0.28 
  18  -9   5    0.08    0.29 
  18  -8   5    0.40    0.30 
  18  -7   5    0.03    0.24 
  18  -6   5    0.10    0.23 
  18  -5   5    0.12    0.22 
  18  -4   5    0.14    0.19 
  18  -3   5    0.01    0.18 
  18  -2   5    0.13    0.20 
  18  -1   5    0.15    0.18 
  18   0   5    0.00    0.17 
  18   1   5   -0.11    0.18 
  18   2   5    0.32    0.22 
  18   3   5    0.15    0.22 
  18   4   5   -0.18    0.18 
  18   5   5    0.15    0.22 
  18   6   5    0.19    0.24 
  18   7   5    0.12    0.24 
  18   8   5    0.35    0.29 
  18   9   5    0.07    0.30 
  18  -8   6    0.08    0.28 
  18  -7   6   -0.10    0.25 
  18  -6   6   -0.03    0.24 
  18  -5   6    0.10    0.24 
  18  -4   6    0.03    0.22 
  18  -3   6    0.33    0.23 
  18  -2   6    0.01    0.17 
  18  -1   6    0.06    0.19 
  18   0   6    0.68    0.26 
  18   1   6   -0.15    0.18 
  18   2   6    0.00    0.20 
  18   3   6    0.08    0.21 
  18   4   6   -0.04    0.21 
  18   5   6    0.06    0.23 
  18   6   6   -0.21    0.20 
  18   7   6   -0.08    0.25 
  18   8   6    0.08    0.28 
  18  -7   7    0.25    0.29 
  18  -6   7    0.06    0.26 
  18  -5   7    0.06    0.24 
  18  -4   7    0.12    0.24 
  18  -3   7    0.28    0.25 
  18  -2   7    0.02    0.19 
  18  -1   7    0.09    0.20 
  18   0   7    0.04    0.20 
  18   1   7    0.20    0.23 
  18   2   7    0.04    0.22 
  18   3   7    0.38    0.27 
  18   4   7    0.30    0.25 
  18   5   7   -0.04    0.23 
  18   6   7    0.15    0.26 
  18   7   7    0.54    0.31 
  18  -6   8    0.07    0.28 
  18  -5   8   -0.05    0.26 
  18  -4   8    0.11    0.26 
  18  -3   8   -0.07    0.18 
  18  -2   8   -0.10    0.19 
  18  -1   8   -0.08    0.20 
  18   0   8    0.49    0.25 
  18   1   8    0.04    0.22 
  18   2   8    0.18    0.25 
  18   3   8    0.10    0.24 
  18   4   8    0.32    0.28 
  18   5   8    0.22    0.27 
  18   6   8    0.07    0.27 
  18  -5   9    0.08    0.28 
  18  -4   9    0.06    0.20 
  18  -3   9   -0.11    0.20 
  18  -2   9    0.41    0.24 
  18  -1   9    0.29    0.25 
  18   0   9    0.34    0.25 
  18   1   9    0.51    0.28 
  18   2   9    0.32    0.25 
  18   3   9    0.11    0.24 
  18   4   9    0.17    0.27 
  18   5   9    0.21    0.28 
  18  -4  10    0.01    0.22 
  18  -3  10    0.00    0.24 
  18  -2  10    0.18    0.24 
  18  -1  10    0.11    0.25 
  18   0  10    0.41    0.27 
  18   1  10    0.12    0.24 
  18   2  10    0.08    0.25 
  18   3  10    0.00    0.28 
  18   4  10    0.16    0.29 
  19  -3  -9    0.54    0.43 
  19  -2  -9   -0.08    0.37 
  19  -2  -9    0.18    0.34 
  19  -1  -9    0.47    0.39 
 -19   0   9   -0.21    0.15 
  19   0  -9    0.11    0.37 
 -19  -1   9    0.00    0.16 
  19   1  -9   -0.32    0.36 
 -19  -2   9   -0.03    0.16 
  19   2  -9   -0.45    0.37 
 -19  -3   9    0.10    0.17 
  19  -5  -8    0.48    0.39 
  19  -4  -8    0.09    0.39 
  19  -3  -8   -0.10    0.30 
  19  -3  -8   -0.25    0.36 
  19  -2  -8   -0.49    0.34 
  19  -2  -8   -0.10    0.29 
  19  -1  -8    0.23    0.38 
  19  -1  -8    0.00    0.30 
  19   0  -8    0.42    0.34 
  19   0  -8    0.30    0.38 
  19   1  -8   -0.15    0.37 
  19   1  -8   -0.03    0.33 
 -19  -2   8    0.06    0.18 
  19   2  -8   -0.55    0.35 
 -19  -3   8   -0.11    0.14 
 -19  -4   8   -0.13    0.14 
  19  -6  -7    0.10    0.38 
  19  -5  -7   -0.13    0.35 
  19  -4  -7    0.00    0.29 
  19  -4  -7    0.11    0.36 
  19  -3  -7   -0.17    0.35 
  19  -3  -7    0.03    0.26 
  19  -2  -7    0.14    0.27 
  19  -2  -7    0.91    0.39 
  19  -1  -7    0.42    0.36 
  19  -1  -7    0.07    0.27 
  19   0  -7   -0.06    0.28 
  19   0  -7    0.13    0.36 
  19   1  -7   -0.40    0.31 
  19   1  -7   -0.23    0.29 
  19   2  -7    0.35    0.32 
  19   2  -7   -0.21    0.33 
  19   3  -7    0.15    0.35 
 -19  -4   7    0.06    0.16 
 -19  -5   7   -0.13    0.15 
 -19  -6   7    0.18    0.17 
  19  -6  -6   -0.37    0.33 
  19  -5  -6    0.27    0.35 
  19  -4  -6    0.12    0.26 
  19  -4  -6    0.08    0.34 
  19  -3  -6   -0.18    0.33 
  19  -3  -6   -0.08    0.25 
  19  -2  -6   -0.33    0.24 
  19  -2  -6   -0.27    0.32 
  19  -1  -6    0.01    0.25 
  19  -1  -6    0.26    0.34 
  19   0  -6   -0.04    0.26 
  19   0  -6    0.20    0.34 
  19   1  -6   -0.26    0.25 
  19   1  -6    0.04    0.34 
  19   2  -6    0.24    0.29 
  19   2  -6   -0.16    0.34 
  19   3  -6   -0.17    0.30 
  19   4  -6    0.37    0.36 
 -19  -6   6    0.07    0.16 
  19  -7  -5    0.18    0.34 
  19  -6  -5   -0.15    0.35 
  19  -5  -5    0.07    0.25 
  19  -5  -5    0.37    0.34 
  19  -4  -5   -0.02    0.23 
  19  -4  -5    0.42    0.34 
  19  -3  -5    0.26    0.33 
  19  -3  -5   -0.31    0.21 
  19  -2  -5    0.15    0.30 
  19  -2  -5    0.03    0.24 
  19  -1  -5    0.16    0.31 
  19  -1  -5    0.02    0.25 
  19   0  -5    0.09    0.28 
  19   0  -5    0.07    0.26 
  19   1  -5   -0.09    0.28 
  19   1  -5   -0.08    0.23 
  19   2  -5    0.08    0.27 
  19   2  -5   -0.07    0.30 
  19   3  -5    0.00    0.30 
  19   4  -5    0.04    0.30 
  19   5  -5    0.24    0.36 
  19   6  -5    0.14    0.29 
 -19  -7   5   -0.14    0.18 
  19  -7  -4   -0.16    0.32 
  19  -6  -4   -0.02    0.25 
  19  -6  -4   -0.08    0.32 
  19  -5  -4    0.20    0.32 
  19  -5  -4    0.03    0.22 
  19  -4  -4    0.16    0.30 
  19  -4  -4    0.09    0.22 
  19  -3  -4    0.16    0.23 
  19  -3  -4   -0.11    0.30 
  19  -2  -4    0.07    0.22 
  19  -2  -4    0.19    0.29 
  19  -1  -4    0.30    0.28 
  19  -1  -4    0.06    0.23 
  19   0  -4    0.20    0.28 
  19   0  -4    0.15    0.25 
  19   1  -4    0.22    0.28 
  19   1  -4   -0.02    0.25 
  19   2  -4   -0.09    0.24 
  19   2  -4    0.54    0.30 
  19   3  -4   -0.02    0.26 
  19   4  -4   -0.35    0.24 
  19   5  -4   -0.10    0.26 
  19   6  -4    0.06    0.29 
  19   7  -4    0.16    0.33 
 -19  -8   4   -0.15    0.21 
  19  -6  -3    0.03    0.23 
  19  -5  -3   -0.14    0.20 
  19  -4  -3    0.25    0.24 
  19  -3  -3    0.00    0.20 
  19  -2  -3    0.66    0.26 
  19  -1  -3    0.10    0.21 
  19   0  -3    0.14    0.22 
  19   1  -3    0.06    0.24 
  19   2  -3    0.58    0.30 
  19   3  -3    0.01    0.25 
  19   4  -3   -0.13    0.25 
  19   5  -3    0.14    0.23 
  19   6  -3   -0.21    0.24 
  19   7  -3   -0.26    0.27 
  19   8  -3    0.50    0.35 
  19  -7  -2    0.07    0.25 
  19  -6  -2    0.00    0.20 
  19  -5  -2    0.05    0.20 
  19  -4  -2    0.02    0.20 
  19  -3  -2    0.01    0.20 
  19  -2  -2    0.14    0.22 
  19  -1  -2   -0.06    0.19 
  19   0  -2   -0.08    0.20 
  19   1  -2    0.07    0.21 
  19   2  -2   -0.03    0.22 
  19   3  -2    0.08    0.25 
  19   4  -2   -0.10    0.20 
  19   5  -2    0.00    0.23 
  19   6  -2    0.00    0.25 
  19   7  -2   -0.26    0.26 
  19   8  -2    0.25    0.31 
  19  -8  -1   -0.12    0.29 
  19  -7  -1   -0.29    0.21 
  19  -6  -1    0.13    0.23 
  19  -5  -1    0.23    0.22 
  19  -4  -1    0.02    0.20 
  19  -3  -1   -0.03    0.18 
  19  -2  -1    0.30    0.20 
  19  -1  -1   -0.03    0.19 
  19   0  -1    0.01    0.19 
  19   1  -1   -0.05    0.20 
  19   2  -1    0.34    0.26 
  19   3  -1   -0.07    0.21 
  19   4  -1    0.42    0.26 
  19   5  -1    0.03    0.24 
  19   6  -1    0.10    0.26 
  19   7  -1    0.30    0.27 
  19   8  -1    0.23    0.29 
  19  -8   0    0.11    0.28 
  19  -7   0    0.15    0.25 
  19  -6   0    0.00    0.22 
  19  -5   0   -0.04    0.21 
  19  -4   0   -0.16    0.17 
  19  -3   0    0.00    0.18 
  19  -2   0    0.04    0.19 
  19  -1   0    0.00    0.18 
  19   0   0   -0.01    0.19 
  19   1   0    0.02    0.20 
  19   2   0    0.07    0.23 
  19   3   0    0.00    0.20 
  19   4   0   -0.04    0.22 
  19   5   0    0.05    0.26 
  19   6   0    0.06    0.25 
  19   7   0    0.06    0.26 
  19   8   0    0.22    0.30 
  19  -8   1    0.30    0.29 
  19  -7   1   -0.08    0.24 
  19  -6   1    0.15    0.24 
  19  -5   1    0.00    0.20 
  19  -4   1    0.41    0.22 
  19  -3   1    0.00    0.19 
  19  -2   1    0.17    0.21 
  19  -1   1    0.06    0.19 
  19   0   1   -0.09    0.17 
  19   1   1   -0.02    0.20 
  19   2   1    0.19    0.22 
  19   3   1    0.04    0.20 
  19   4   1    0.29    0.25 
  19   5   1   -0.20    0.21 
  19   6   1    0.08    0.25 
  19   7   1   -0.12    0.25 
  19   8   1   -0.08    0.27 
  19  -8   2    0.21    0.29 
  19  -7   2    0.00    0.23 
  19  -6   2    0.16    0.24 
  19  -5   2   -0.06    0.22 
  19  -4   2    0.17    0.22 
  19  -3   2    0.02    0.20 
  19  -2   2    0.01    0.19 
  19  -1   2   -0.06    0.19 
  19   0   2   -0.01    0.19 
  19   1   2    0.07    0.19 
  19   2   2    0.05    0.20 
  19   3   2    0.06    0.21 
  19   4   2    0.06    0.23 
  19   5   2    0.03    0.23 
  19   6   2    0.32    0.26 
  19   7   2    0.36    0.28 
  19   8   2    0.18    0.28 
  19  -8   3    0.20    0.30 
  19  -7   3   -0.08    0.26 
  19  -6   3    0.10    0.25 
  19  -5   3    0.01    0.22 
  19  -4   3    0.31    0.23 
  19  -3   3   -0.06    0.19 
  19  -2   3    0.36    0.24 
  19  -1   3   -0.02    0.19 
  19   0   3   -0.12    0.20 
  19   1   3    0.13    0.20 
  19   2   3    0.33    0.22 
  19   3   3   -0.02    0.20 
  19   4   3    0.29    0.24 
  19   5   3    0.02    0.23 
  19   6   3   -0.02    0.23 
  19   7   3    0.09    0.27 
  19   8   3    0.11    0.30 
  19  -8   4   -0.14    0.29 
  19  -7   4    0.16    0.28 
  19  -6   4    0.17    0.24 
  19  -5   4    0.18    0.25 
  19  -4   4   -0.06    0.20 
  19  -3   4   -0.07    0.21 
  19  -2   4   -0.04    0.21 
  19  -1   4    0.05    0.22 
  19   0   4    0.01    0.20 
  19   1   4    0.06    0.21 
  19   2   4    0.35    0.25 
  19   3   4    0.07    0.21 
  19   4   4    0.05    0.23 
  19   5   4    0.04    0.24 
  19   6   4    0.07    0.26 
  19   7   4   -0.23    0.25 
  19   8   4    0.03    0.31 
  19  -7   5    0.10    0.30 
  19  -6   5    0.25    0.29 
  19  -5   5   -0.06    0.24 
  19  -4   5    0.15    0.25 
  19  -3   5    0.36    0.28 
  19  -2   5    0.04    0.22 
  19  -1   5    0.03    0.20 
  19   0   5    0.02    0.19 
  19   1   5    0.02    0.22 
  19   2   5    0.19    0.25 
  19   3   5   -0.10    0.20 
  19   4   5    0.66    0.27 
  19   5   5    0.23    0.25 
  19   6   5    0.15    0.26 
  19   7   5   -0.21    0.24 
  19  -6   6    0.03    0.28 
  19  -5   6    0.05    0.27 
  19  -4   6   -0.05    0.25 
  19  -3   6    0.09    0.25 
  19  -2   6    0.05    0.20 
  19  -1   6   -0.12    0.20 
  19   0   6    0.00    0.20 
  19   1   6   -0.10    0.21 
  19   2   6    0.14    0.25 
  19   3   6    0.20    0.26 
  19   4   6    0.09    0.26 
  19   5   6   -0.02    0.26 
  19   6   6    0.08    0.27 
  19  -6   7    0.07    0.30 
  19  -5   7    0.07    0.29 
  19  -4   7    0.01    0.28 
  19  -3   7    0.02    0.28 
  19  -2   7    0.35    0.23 
  19  -1   7    0.19    0.23 
  19   0   7   -0.03    0.23 
  19   1   7    0.05    0.23 
  19   2   7    0.18    0.25 
  19   3   7    0.10    0.24 
  19   4   7   -0.03    0.25 
  19   5   7    0.10    0.27 
  19   6   7    0.21    0.29 
  19  -4   8   -0.17    0.29 
  19  -3   8    0.21    0.24 
  19  -2   8    0.11    0.24 
  19  -1   8    0.19    0.26 
  19   0   8    0.07    0.25 
  19   1   8    0.09    0.25 
  19   2   8    0.25    0.28 
  19   3   8   -0.12    0.28 
  19   4   8   -0.16    0.25 
  19  -3   9   -0.04    0.24 
  19  -2   9    0.02    0.23 
  19  -1   9    0.07    0.23 
  19   0   9    0.39    0.28 
  19   1   9    0.01    0.26 
  19   2   9    0.10    0.26 
  19   3   9   -0.28    0.26 
  20   0  -8    0.59    0.42 
  20  -3  -7   -0.21    0.31 
  20  -3  -7    0.21    0.40 
  20  -2  -7   -0.25    0.30 
  20  -2  -7    0.16    0.38 
  20  -1  -7    0.22    0.34 
  20  -1  -7    0.34    0.39 
  20   0  -7    0.32    0.39 
  20   0  -7   -0.04    0.35 
  20   1  -7    0.60    0.41 
  20   1  -7    0.01    0.36 
  20   2  -7   -0.04    0.36 
  20   2  -7    0.27    0.40 
  20   3  -7   -0.08    0.40 
  20  -4  -6    0.14    0.33 
  20  -4  -6    0.16    0.39 
  20  -3  -6    0.27    0.38 
  20  -3  -6   -0.33    0.30 
  20  -2  -6    0.35    0.37 
  20  -2  -6   -0.21    0.30 
  20  -1  -6    0.11    0.30 
  20  -1  -6    0.49    0.39 
  20   0  -6   -0.18    0.30 
  20   0  -6   -0.35    0.34 
  20   1  -6    0.32    0.37 
  20   1  -6    0.08    0.35 
  20   2  -6    0.23    0.37 
  20   2  -6    0.61    0.39 
  20   3  -6    0.12    0.38 
  20   4  -6    0.42    0.41 
  20  -5  -5   -0.02    0.33 
  20  -5  -5    0.26    0.41 
  20  -4  -5    0.38    0.33 
  20  -4  -5    0.15    0.38 
  20  -3  -5    0.05    0.30 
  20  -3  -5    0.21    0.38 
  20  -2  -5    0.67    0.39 
  20  -2  -5    0.78    0.35 
  20  -1  -5    0.36    0.36 
  20  -1  -5   -0.07    0.28 
  20   0  -5   -0.14    0.27 
  20   0  -5   -0.40    0.32 
  20   1  -5   -0.05    0.34 
  20   1  -5    0.04    0.29 
  20   2  -5    1.05    0.41 
  20   2  -5    0.38    0.35 
  20   3  -5   -0.14    0.33 
  20   4  -5   -0.16    0.35 
  20   5  -5   -0.19    0.37 
  20  -5  -4   -0.06    0.29 
  20  -4  -4    0.04    0.28 
  20  -3  -4    0.11    0.29 
  20  -2  -4    0.17    0.29 
  20  -1  -4    0.07    0.29 
  20   0  -4    0.13    0.30 
  20   1  -4    0.29    0.31 
  20   2  -4   -0.25    0.29 
  20   3  -4    0.22    0.34 
  20   4  -4   -0.13    0.35 
  20   5  -4    0.26    0.37 
  20   6  -4    0.10    0.31 
  20  -6  -3    0.00    0.29 
  20  -5  -3    0.18    0.28 
  20  -4  -3    0.27    0.28 
  20  -3  -3   -0.16    0.24 
  20  -2  -3   -0.12    0.25 
  20  -1  -3    0.23    0.27 
  20   0  -3    0.02    0.25 
  20   1  -3   -0.19    0.26 
  20   2  -3   -0.07    0.28 
  20   3  -3    0.03    0.32 
  20   4  -3   -0.05    0.33 
  20   5  -3   -0.09    0.26 
  20   6  -3   -0.06    0.28 
  20  -7  -2    0.14    0.32 
  20  -6  -2    0.03    0.28 
  20  -5  -2    0.08    0.26 
  20  -4  -2   -0.09    0.24 
  20  -3  -2    0.22    0.25 
  20  -2  -2   -0.05    0.24 
  20  -1  -2    0.00    0.25 
  20   0  -2    0.03    0.25 
  20   1  -2    0.05    0.28 
  20   2  -2    0.18    0.30 
  20   3  -2    0.24    0.31 
  20   4  -2    0.29    0.27 
  20   5  -2    0.29    0.28 
  20   6  -2    0.02    0.27 
  20  -7  -1    0.06    0.30 
  20  -6  -1    0.10    0.27 
  20  -5  -1   -0.12    0.24 
  20  -4  -1   -0.07    0.24 
  20  -3  -1    0.10    0.25 
  20  -2  -1    0.99    0.33 
  20  -1  -1   -0.01    0.22 
  20   0  -1   -0.05    0.23 
  20   1  -1    0.03    0.25 
  20   2  -1    0.58    0.32 
  20   3  -1   -0.13    0.24 
  20   4  -1    0.00    0.25 
  20   5  -1   -0.26    0.25 
  20   6  -1    0.16    0.29 
  20   7  -1    0.22    0.30 
  20  -7   0    0.05    0.30 
  20  -6   0   -0.17    0.27 
  20  -5   0    0.01    0.26 
  20  -4   0    0.62    0.29 
  20  -3   0   -0.13    0.24 
  20  -2   0   -0.03    0.23 
  20  -1   0    0.01    0.23 
  20   0   0    0.17    0.25 
  20   1   0   -0.08    0.23 
  20   2   0    0.05    0.27 
  20   3   0   -0.03    0.22 
  20   4   0    0.59    0.28 
  20   5   0   -0.18    0.25 
  20   6   0    0.10    0.28 
  20   7   0   -0.10    0.29 
  20  -7   1    0.10    0.31 
  20  -6   1    0.21    0.29 
  20  -5   1    0.13    0.28 
  20  -4   1   -0.37    0.22 
  20  -3   1    0.18    0.25 
  20  -2   1    1.12    0.33 
  20  -1   1    0.06    0.24 
  20   0   1   -0.10    0.22 
  20   1   1   -0.04    0.25 
  20   2   1    0.94    0.29 
  20   3   1    0.08    0.22 
  20   4   1   -0.02    0.24 
  20   5   1    0.32    0.28 
  20   6   1    0.11    0.29 
  20   7   1    0.21    0.29 
  20  -7   2    0.06    0.30 
  20  -6   2    0.14    0.30 
  20  -5   2    0.16    0.27 
  20  -4   2    0.17    0.27 
  20  -3   2   -0.11    0.23 
  20  -2   2   -0.15    0.23 
  20  -1   2    0.30    0.26 
  20   0   2    0.21    0.25 
  20   1   2   -0.03    0.20 
  20   2   2   -0.07    0.19 
  20   3   2    0.06    0.23 
  20   4   2    0.01    0.25 
  20   5   2    0.21    0.27 
  20   6   2   -0.21    0.26 
  20   7   2    0.34    0.30 
  20  -6   3    0.11    0.30 
  20  -5   3    0.00    0.28 
  20  -4   3   -0.18    0.25 
  20  -3   3   -0.17    0.24 
  20  -2   3    0.05    0.26 
  20  -1   3    0.00    0.27 
  20   0   3    0.28    0.28 
  20   1   3   -0.07    0.19 
  20   2   3    0.06    0.22 
  20   3   3   -0.02    0.23 
  20   4   3    0.00    0.25 
  20   5   3   -0.08    0.25 
  20   6   3   -0.02    0.26 
  20  -6   4   -0.29    0.28 
  20  -5   4    0.20    0.31 
  20  -4   4    0.11    0.28 
  20  -3   4    0.19    0.28 
  20  -2   4   -0.05    0.25 
  20  -1   4    0.18    0.28 
  20   0   4    0.11    0.23 
  20   1   4    0.14    0.24 
  20   2   4   -0.03    0.23 
  20   3   4   -0.17    0.22 
  20   4   4    0.15    0.26 
  20   5   4   -0.05    0.26 
  20   6   4   -0.07    0.27 
  20  -5   5   -0.01    0.29 
  20  -4   5    0.38    0.31 
  20  -3   5    0.19    0.29 
  20  -2   5    0.41    0.32 
  20  -1   5   -0.05    0.19 
  20   0   5    0.13    0.24 
  20   1   5    0.05    0.23 
  20   2   5    0.16    0.25 
  20   3   5    0.06    0.24 
  20   4   5    0.35    0.28 
  20   5   5   -0.09    0.26 
  20  -4   6    0.01    0.30 
  20  -3   6    0.11    0.31 
  20  -2   6    0.04    0.29 
  20  -1   6    0.16    0.24 
  20   0   6    0.07    0.24 
  20   1   6   -0.13    0.25 
  20   2   6   -0.21    0.25 
  20   3   6   -0.02    0.25 
  20   4   6    0.06    0.27 
  20  -3   7    0.01    0.31 
  20  -2   7   -0.19    0.21 
  20  -1   7    0.09    0.25 
  20   0   7    0.14    0.24 
  20   1   7    0.34    0.29 
  20   2   7   -0.01    0.28 
  20   3   7    0.32    0.30 
  21  -1  -5    0.09    0.37 
  21   0  -5   -0.18    0.34 
  21   1  -5    0.03    0.35 
  21  -3  -4    0.12    0.35 
  21  -2  -4    0.00    0.34 
  21  -1  -4    0.07    0.35 
  21   0  -4   -0.26    0.34 
  21   1  -4    0.32    0.39 
  21   2  -4   -0.13    0.34 
  21   3  -4    0.09    0.37 
  21  -4  -3    0.22    0.33 
  21  -3  -3   -0.21    0.30 
  21  -2  -3   -0.11    0.32 
  21  -1  -3    0.07    0.34 
  21   0  -3    0.17    0.34 
  21   1  -3   -0.05    0.34 
  21   2  -3   -0.11    0.35 
  21   3  -3   -0.32    0.34 
  21   4  -3    0.20    0.38 
  21  -4  -2   -0.09    0.31 
  21  -3  -2   -0.15    0.30 
  21  -2  -2    0.32    0.34 
  21  -1  -2   -0.28    0.28 
  21   0  -2    0.50    0.35 
  21   1  -2    0.05    0.33 
  21   2  -2    0.08    0.35 
  21   3  -2    0.00    0.36 
  21   4  -2    0.13    0.28 
  21  -5  -1    0.03    0.32 
  21  -4  -1   -0.03    0.31 
  21  -3  -1    0.01    0.30 
  21  -2  -1   -0.13    0.28 
  21  -1  -1   -0.14    0.29 
  21   0  -1    0.38    0.34 
  21   1  -1    0.07    0.32 
  21   2  -1   -0.15    0.32 
  21   3  -1   -0.01    0.35 
  21   4  -1   -0.04    0.28 
  21  -5   0   -0.03    0.31 
  21  -4   0    0.08    0.31 
  21  -3   0   -0.21    0.27 
  21  -2   0    0.07    0.30 
  21  -1   0    0.23    0.30 
  21   0   0    0.07    0.31 
  21   1   0   -0.04    0.31 
  21   2   0   -0.17    0.32 
  21   3   0   -0.01    0.26 
  21   4   0    0.18    0.29 
  21   5   0    0.10    0.30 
  21  -5   1    0.05    0.32 
  21  -4   1    0.11    0.31 
  21  -3   1    0.05    0.30 
  21  -2   1    0.00    0.29 
  21  -1   1    0.08    0.29 
  21   0   1   -0.03    0.30 
  21   1   1   -0.05    0.32 
  21   2   1    0.04    0.25 
  21   3   1    0.23    0.26 
  21   4   1   -0.18    0.27 
  21  -4   2   -0.19    0.30 
  21  -3   2   -0.27    0.28 
  21  -2   2    0.29    0.33 
  21  -1   2    0.08    0.30 
  21   0   2    0.24    0.34 
  21   1   2    0.12    0.27 
  21   2   2    0.41    0.28 
  21   3   2   -0.06    0.25 
  21   4   2    0.06    0.27 
  21  -4   3    0.24    0.33 
  21  -3   3    0.08    0.31 
  21  -2   3    0.03    0.30 
  21  -1   3    0.04    0.31 
  21   0   3    0.05    0.31 
  21   1   3   -0.13    0.21 
  21   2   3    0.10    0.24 
  21   3   3    0.03    0.26 
  21   4   3    0.16    0.29 
  21  -3   4    0.10    0.32 
  21  -2   4    0.26    0.32 
  21  -1   4   -0.11    0.32 
  21   0   4   -0.20    0.23 
  21   1   4    0.29    0.27 
  21   2   4    0.10    0.27 
  21   3   4    0.29    0.30 
  21  -2   5    0.04    0.32 
  21  -1   5    0.11    0.27 
  21   0   5    0.07    0.26 
  21   1   5    0.17    0.28 
  21   2   5    0.02    0.26 
   0   0   0    0.00    0.00 
;
_shelx_hkl_checksum              10917
#END Tags that were not found in dictionaries
loop_
_space_group_symop_operation_xyz
'x, y, z'
'-x+1/2, -y+1/2, z+1/2'
'-x, y, -z+1/2'
'x+1/2, -y+1/2, -z'
'-x, -y, -z'
'x-1/2, y-1/2, -z-1/2'
'x, -y, z-1/2'
'-x-1/2, y-1/2, z'
loop_
_atom_site_label
_atom_site_type_symbol
_atom_site_fract_x
_atom_site_fract_y
_atom_site_fract_z
_atom_site_U_iso_or_equiv
_atom_site_adp_type
_atom_site_occupancy
_atom_site_site_symmetry_order
_atom_site_calc_flag
_atom_site_refinement_flags_posn
_atom_site_refinement_flags_adp
S1 S 0.70116(5) 0.89712(5) 0.85662(5) 0.0493(3) Uani 1 1 d . .
N1 N 0.69243(12) 0.84735(15) 0.75344(14) 0.0431(5) Uani 1 1 d . .
O1 O 0.54190(11) 0.68857(14) 0.63897(13) 0.0554(5) Uani 1 1 d . .
O2 O 0.57558(17) 0.52718(18) 0.6362(2) 0.0987(9) Uani 1 1 d . .
O3 O 0.78444(12) 0.92573(16) 0.86687(14) 0.0646(6) Uani 1 1 d . .
O4 O 0.66547(13) 0.82788(15) 0.92101(13) 0.0665(6) Uani 1 1 d . .
C1 C 0.74503(17) 0.8784(2) 0.6741(2) 0.0501(7) Uani 1 1 d . .
H1 H 0.7986 0.8959 0.6993 0.060 Uiso 1 1 calc R U
C2 C 0.75567(18) 0.7860(2) 0.6130(2) 0.0590(8) Uani 1 1 d . .
H2A H 0.7862 0.7357 0.6470 0.071 Uiso 1 1 calc R U
H2B H 0.7870 0.8041 0.5584 0.071 Uiso 1 1 calc R U
C3 C 0.67460(17) 0.7413(2) 0.58232(19) 0.0559(8) Uani 1 1 d . .
H3A H 0.6459 0.7888 0.5431 0.067 Uiso 1 1 calc R U
H3B H 0.6842 0.6808 0.5465 0.067 Uiso 1 1 calc R U
C4 C 0.62337(15) 0.7168(2) 0.66643(18) 0.0455(7) Uani 1 1 d . .
H4 H 0.6486 0.6623 0.7019 0.055 Uiso 1 1 calc R U
C5 C 0.61241(15) 0.80747(19) 0.72750(18) 0.0441(7) Uani 1 1 d . .
H5A H 0.5816 0.8584 0.6945 0.053 Uiso 1 1 calc R U
H5B H 0.5823 0.7891 0.7830 0.053 Uiso 1 1 calc R U
C6 C 0.7135(2) 0.9690(2) 0.6214(2) 0.0699(9) Uani 1 1 d . .
H6A H 0.6622 0.9528 0.5931 0.105 Uiso 1 1 calc R U
H6B H 0.7519 0.9874 0.5742 0.105 Uiso 1 1 calc R U
H6C H 0.7063 1.0240 0.6637 0.105 Uiso 1 1 calc R U
C7 C 0.5251(2) 0.5908(2) 0.6274(2) 0.0600(8) Uani 1 1 d . .
C8 C 0.4388(2) 0.5739(3) 0.6010(2) 0.0750(10) Uani 1 1 d . .
H8A H 0.4365 0.5439 0.5403 0.113 Uiso 1 1 calc R U
H8B H 0.4105 0.6368 0.6001 0.113 Uiso 1 1 calc R U
H8C H 0.4136 0.5299 0.6453 0.113 Uiso 1 1 calc R U
C9 C 0.64133(16) 1.0067(2) 0.86080(18) 0.0451(7) Uani 1 1 d . .
C10 C 0.55939(19) 1.0007(3) 0.8830(2) 0.0610(8) Uani 1 1 d . .
H10 H 0.5356 0.9387 0.8950 0.073 Uiso 1 1 calc R U
C11 C 0.5134(2) 1.0866(3) 0.8873(2) 0.0697(9) Uani 1 1 d . .
H11 H 0.4584 1.0817 0.9023 0.084 Uiso 1 1 calc R U
C12 C 0.5460(2) 1.1790(2) 0.8703(2) 0.0615(8) Uani 1 1 d . .
C13 C 0.6273(2) 1.1843(2) 0.8480(2) 0.0638(9) Uani 1 1 d . .
H13 H 0.6506 1.2465 0.8358 0.077 Uiso 1 1 calc R U
C14 C 0.67520(19) 1.0989(2) 0.8432(2) 0.0556(8) Uani 1 1 d . .
H14 H 0.7301 1.1040 0.8282 0.067 Uiso 1 1 calc R U
C15 C 0.4951(2) 1.2738(3) 0.8790(3) 0.0964(13) Uani 1 1 d . .
H15A H 0.4675 1.2739 0.9378 0.145 Uiso 1 1 calc R U
H15B H 0.4558 1.2759 0.8296 0.145 Uiso 1 1 calc R U
H15C H 0.5300 1.3314 0.8749 0.145 Uiso 1 1 calc R U
loop_
_atom_site_aniso_label
_atom_site_aniso_U_11
_atom_site_aniso_U_22
_atom_site_aniso_U_33
_atom_site_aniso_U_23
_atom_site_aniso_U_13
_atom_site_aniso_U_12
S1 0.0463(5) 0.0521(5) 0.0496(4) 0.0007(3) -0.0107(3) -0.0036(3)
N1 0.0302(12) 0.0484(13) 0.0506(12) -0.0026(11) -0.0018(9) -0.0051(10)
O1 0.0377(11) 0.0516(12) 0.0770(13) -0.0146(10) -0.0088(9) -0.0064(9)
O2 0.0695(18) 0.0553(15) 0.171(3) -0.0159(17) -0.0157(16) -0.0006(13)
O3 0.0408(12) 0.0718(14) 0.0811(15) -0.0096(11) -0.0200(10) -0.0020(10)
O4 0.0837(16) 0.0635(13) 0.0524(12) 0.0131(10) -0.0068(10) -0.0110(12)
C1 0.0345(16) 0.0582(19) 0.0577(16) 0.0010(15) 0.0006(12) -0.0077(13)
C2 0.0435(19) 0.067(2) 0.0667(19) -0.0061(17) 0.0095(14) -0.0002(15)
C3 0.0482(19) 0.0649(19) 0.0547(17) -0.0120(15) 0.0016(14) -0.0001(15)
C4 0.0345(16) 0.0494(17) 0.0525(16) -0.0058(13) -0.0065(12) -0.0034(13)
C5 0.0340(15) 0.0454(16) 0.0530(15) -0.0034(13) 0.0006(12) -0.0060(12)
C6 0.081(3) 0.0581(19) 0.070(2) 0.0118(17) 0.0040(17) -0.0099(18)
C7 0.051(2) 0.059(2) 0.070(2) -0.0131(17) 0.0072(15) -0.0121(17)
C8 0.057(2) 0.082(2) 0.087(2) -0.022(2) 0.0035(17) -0.0231(18)
C9 0.0395(17) 0.0500(17) 0.0458(15) -0.0059(13) -0.0020(12) -0.0050(13)
C10 0.047(2) 0.064(2) 0.072(2) -0.0086(17) 0.0036(15) -0.0162(15)
C11 0.041(2) 0.076(2) 0.092(2) -0.020(2) 0.0049(16) -0.0017(18)
C12 0.053(2) 0.067(2) 0.0637(19) -0.0193(17) -0.0056(15) 0.0064(17)
C13 0.070(2) 0.0516(19) 0.070(2) -0.0098(16) 0.0022(16) -0.0097(17)
C14 0.0449(18) 0.0573(19) 0.0645(19) -0.0082(15) 0.0060(13) -0.0088(16)
C15 0.086(3) 0.085(3) 0.118(3) -0.028(3) -0.007(2) 0.024(2)
loop_
_atom_type_symbol
_atom_type_description
_atom_type_scat_dispersion_real
_atom_type_scat_dispersion_imag
_atom_type_scat_source
C C 0.0033 0.0016 'International Tables Vol C Tables 4.2.6.8 and 6.1.1.4'
H H 0.0000 0.0000 'International Tables Vol C Tables 4.2.6.8 and 6.1.1.4'
N N 0.0061 0.0033 'International Tables Vol C Tables 4.2.6.8 and 6.1.1.4'
O O 0.0106 0.0060 'International Tables Vol C Tables 4.2.6.8 and 6.1.1.4'
S S 0.1246 0.1234 'International Tables Vol C Tables 4.2.6.8 and 6.1.1.4'
loop_
_geom_angle_atom_site_label_1
_geom_angle_atom_site_label_2
_geom_angle_atom_site_label_3
_geom_angle
O3 S1 O4 119.81(13)
O3 S1 N1 106.66(11)
O4 S1 N1 106.88(12)
O3 S1 C9 108.04(13)
O4 S1 C9 106.48(13)
N1 S1 C9 108.60(12)
C5 N1 C1 115.2(2)
C5 N1 S1 117.23(16)
C1 N1 S1 122.21(17)
C7 O1 C4 118.4(2)
N1 C1 C6 113.9(2)
N1 C1 C2 106.5(2)
C6 C1 C2 113.3(3)
N1 C1 H1 107.6
C6 C1 H1 107.6
C2 C1 H1 107.6
C1 C2 C3 112.5(2)
C1 C2 H2A 109.1
C3 C2 H2A 109.1
C1 C2 H2B 109.1
C3 C2 H2B 109.1
H2A C2 H2B 107.8
C4 C3 C2 109.9(2)
C4 C3 H3A 109.7
C2 C3 H3A 109.7
C4 C3 H3B 109.7
C2 C3 H3B 109.7
H3A C3 H3B 108.2
O1 C4 C5 104.9(2)
O1 C4 C3 110.7(2)
C5 C4 C3 111.1(2)
O1 C4 H4 110.0
C5 C4 H4 110.0
C3 C4 H4 110.0
N1 C5 C4 109.4(2)
N1 C5 H5A 109.8
C4 C5 H5A 109.8
N1 C5 H5B 109.8
C4 C5 H5B 109.8
H5A C5 H5B 108.2
C1 C6 H6A 109.5
C1 C6 H6B 109.5
H6A C6 H6B 109.5
C1 C6 H6C 109.5
H6A C6 H6C 109.5
H6B C6 H6C 109.5
O2 C7 O1 122.3(3)
O2 C7 C8 125.6(3)
O1 C7 C8 112.0(3)
C7 C8 H8A 109.5
C7 C8 H8B 109.5
H8A C8 H8B 109.5
C7 C8 H8C 109.5
H8A C8 H8C 109.5
H8B C8 H8C 109.5
C14 C9 C10 119.2(3)
C14 C9 S1 120.7(2)
C10 C9 S1 120.1(2)
C11 C10 C9 119.8(3)
C11 C10 H10 120.1
C9 C10 H10 120.1
C12 C11 C10 121.9(3)
C12 C11 H11 119.1
C10 C11 H11 119.1
C11 C12 C13 118.0(3)
C11 C12 C15 121.3(3)
C13 C12 C15 120.7(3)
C12 C13 C14 121.4(3)
C12 C13 H13 119.3
C14 C13 H13 119.3
C9 C14 C13 119.8(3)
C9 C14 H14 120.1
C13 C14 H14 120.1
C12 C15 H15A 109.5
C12 C15 H15B 109.5
H15A C15 H15B 109.5
C12 C15 H15C 109.5
H15A C15 H15C 109.5
H15B C15 H15C 109.5
loop_
_geom_bond_atom_site_label_1
_geom_bond_atom_site_label_2
_geom_bond_distance
S1 O3 1.428(2)
S1 O4 1.433(2)
S1 N1 1.632(2)
S1 C9 1.761(3)
N1 C5 1.466(3)
N1 C1 1.491(3)
O1 C7 1.343(4)
O1 C4 1.445(3)
O2 C7 1.192(4)
C1 C6 1.516(4)
C1 C2 1.523(4)
C1 H1 0.9800
C2 C3 1.524(4)
C2 H2A 0.9700
C2 H2B 0.9700
C3 C4 1.510(4)
C3 H3A 0.9700
C3 H3B 0.9700
C4 C5 1.505(3)
C4 H4 0.9800
C5 H5A 0.9700
C5 H5B 0.9700
C6 H6A 0.9600
C6 H6B 0.9600
C6 H6C 0.9600
C7 C8 1.486(4)
C8 H8A 0.9600
C8 H8B 0.9600
C8 H8C 0.9600
C9 C14 1.373(4)
C9 C10 1.386(4)
C10 C11 1.374(4)
C10 H10 0.9300
C11 C12 1.365(4)
C11 H11 0.9300
C12 C13 1.376(4)
C12 C15 1.520(4)
C13 C14 1.385(4)
C13 H13 0.9300
C14 H14 0.9300
C15 H15A 0.9600
C15 H15B 0.9600
C15 H15C 0.9600
loop_
_geom_torsion_atom_site_label_1
_geom_torsion_atom_site_label_2
_geom_torsion_atom_site_label_3
_geom_torsion_atom_site_label_4
_geom_torsion
O3 S1 N1 C5 177.36(18)
O4 S1 N1 C5 48.1(2)
C9 S1 N1 C5 -66.4(2)
O3 S1 N1 C1 -29.8(2)
O4 S1 N1 C1 -159.1(2)
C9 S1 N1 C1 86.4(2)
C5 N1 C1 C6 67.4(3)
S1 N1 C1 C6 -85.9(3)
C5 N1 C1 C2 -58.1(3)
S1 N1 C1 C2 148.5(2)
N1 C1 C2 C3 55.5(3)
C6 C1 C2 C3 -70.5(3)
C1 C2 C3 C4 -56.3(3)
C7 O1 C4 C5 -146.0(2)
C7 O1 C4 C3 94.0(3)
C2 C3 C4 O1 171.4(2)
C2 C3 C4 C5 55.2(3)
C1 N1 C5 C4 59.4(3)
S1 N1 C5 C4 -145.92(19)
O1 C4 C5 N1 -175.51(19)
C3 C4 C5 N1 -55.8(3)
C4 O1 C7 O2 -2.4(5)
C4 O1 C7 C8 179.0(2)
O3 S1 C9 C14 20.4(3)
O4 S1 C9 C14 150.4(2)
N1 S1 C9 C14 -94.9(2)
O3 S1 C9 C10 -158.8(2)
O4 S1 C9 C10 -28.9(3)
N1 S1 C9 C10 85.9(2)
C14 C9 C10 C11 -0.1(4)
S1 C9 C10 C11 179.2(2)
C9 C10 C11 C12 -0.1(5)
C10 C11 C12 C13 0.3(5)
C10 C11 C12 C15 -177.6(3)
C11 C12 C13 C14 -0.4(5)
C15 C12 C13 C14 177.6(3)
C10 C9 C14 C13 0.0(4)
S1 C9 C14 C13 -179.2(2)
C12 C13 C14 C9 0.2(5)
