#------------------------------------------------------------------------------
#$Date: 2016-02-18 17:37:37 +0200 (Thu, 18 Feb 2016) $
#$Revision: 176729 $
#$URL: svn://www.crystallography.net/cod/cif/1/51/83/1518301.cif $
#------------------------------------------------------------------------------
#
# This file is available in the Crystallography Open Database (COD),
# http://www.crystallography.net/
#
# All data on this site have been placed in the public domain by the
# contributors.
#
data_1518301
loop_
_publ_author_name
'Chang, Meng-Yang'
'Cheng, Yu-Chieh'
'Lu, Yi-Ju'
_publ_section_title
;
 One-Pot Access to Sulfonylmethyl Arylpyrroles via the Domino Aerobic
 Wacker-Type Aminocyclization/1,4-Sulfonyl Migration.
;
_journal_issue                   23
_journal_name_full               'Organic letters'
_journal_page_first              6252
_journal_paper_doi               10.1021/ol5032238
_journal_volume                  16
_journal_year                    2014
_chemical_formula_sum            'C18 H16 F N O2 S'
_chemical_formula_weight         329.38
_space_group_crystal_system      triclinic
_space_group_IT_number           2
_space_group_name_Hall           '-P 1'
_space_group_name_H-M_alt        'P -1'
_symmetry_space_group_name_Hall  '-P 1'
_symmetry_space_group_name_H-M   'P -1'
_atom_sites_solution_hydrogens   geom
_audit_creation_method           SHELXL-2014/6
_cell_angle_alpha                111.443(11)
_cell_angle_beta                 92.219(13)
_cell_angle_gamma                94.247(12)
_cell_formula_units_Z            2
_cell_length_a                   8.850(2)
_cell_length_b                   9.016(2)
_cell_length_c                   10.514(3)
_cell_measurement_reflns_used    4996
_cell_measurement_temperature    100(2)
_cell_measurement_theta_max      26.4347
_cell_measurement_theta_min      3.0040
_cell_volume                     776.8(3)
_computing_cell_refinement       'SAINT V8.34A (Bruker AXS Inc., 2013)'
_computing_data_collection       'APEX2 (Bruker AXS, 2010)'
_computing_data_reduction        'SAINT V8.34A (Bruker AXS Inc., 2013)'
_computing_molecular_graphics    'SHELXTL (Sheldrick, 2008)'
_computing_publication_material  SHELXTL
_computing_structure_refinement  'SHELXL-2014/6 (Sheldrick, 2014)'
_diffrn_ambient_temperature      100(2)
_diffrn_detector_area_resol_mean 8.3333
_diffrn_measured_fraction_theta_full 0.999
_diffrn_measured_fraction_theta_max 0.989
_diffrn_measurement_device_type  'Bruker APEX-II CCD'
_diffrn_measurement_method       '\f and \w scans'
_diffrn_radiation_type           MoK\a
_diffrn_radiation_wavelength     0.71073
_diffrn_reflns_av_R_equivalents  0.0293
_diffrn_reflns_av_unetI/netI     0.0274
_diffrn_reflns_Laue_measured_fraction_full 0.999
_diffrn_reflns_Laue_measured_fraction_max 0.989
_diffrn_reflns_limit_h_max       11
_diffrn_reflns_limit_h_min       -11
_diffrn_reflns_limit_k_max       11
_diffrn_reflns_limit_k_min       -8
_diffrn_reflns_limit_l_max       11
_diffrn_reflns_limit_l_min       -13
_diffrn_reflns_number            11787
_diffrn_reflns_point_group_measured_fraction_full 0.999
_diffrn_reflns_point_group_measured_fraction_max 0.989
_diffrn_reflns_theta_full        25.242
_diffrn_reflns_theta_max         26.534
_diffrn_reflns_theta_min         2.086
_exptl_absorpt_coefficient_mu    0.228
_exptl_absorpt_correction_T_max  0.9485
_exptl_absorpt_correction_T_min  0.8595
_exptl_absorpt_correction_type   multi-scan
_exptl_absorpt_process_details   'SADABS V2014/4 (Bruker AXS Inc.)'
_exptl_crystal_colour            Colorless
_exptl_crystal_density_diffrn    1.408
_exptl_crystal_density_meas      ?
_exptl_crystal_density_method    'not measured'
_exptl_crystal_description       Lump
_exptl_crystal_F_000             344
_exptl_crystal_size_max          0.20
_exptl_crystal_size_mid          0.15
_exptl_crystal_size_min          0.15
_refine_diff_density_max         0.532
_refine_diff_density_min         -0.518
_refine_diff_density_rms         0.114
_refine_ls_extinction_method     none
_refine_ls_goodness_of_fit_ref   1.201
_refine_ls_hydrogen_treatment    constr
_refine_ls_matrix_type           full
_refine_ls_number_parameters     209
_refine_ls_number_reflns         3201
_refine_ls_number_restraints     0
_refine_ls_restrained_S_all      1.201
_refine_ls_R_factor_all          0.0515
_refine_ls_R_factor_gt           0.0400
_refine_ls_shift/su_max          0.000
_refine_ls_shift/su_mean         0.000
_refine_ls_structure_factor_coef Fsqd
_refine_ls_weighting_details
'w=1/[\s^2^(Fo^2^)+(0.0797P)^2^+0.2560P] where P=(Fo^2^+2Fc^2^)/3'
_refine_ls_weighting_scheme      calc
_refine_ls_wR_factor_gt          0.1208
_refine_ls_wR_factor_ref         0.1505
_reflns_Friedel_coverage         0.000
_reflns_number_gt                2706
_reflns_number_total             3201
_reflns_threshold_expression     'I > 2\s(I)'
_cod_data_source_file            ol5032238_si_002.cif
_cod_data_source_block           140919LT_0m
_cod_depositor_comments
;
The following automatic conversions were performed:

'_exptl_crystal_density_meas' value 'not measured' was changed to '?'
- the value is perceived as not measured.

Automatic conversion script
Id: cif_fix_values 3008 2015-01-20 13:52:24Z robertas 

 Adding full bibliography for 1518300--1518302.cif.
;
_cod_original_cell_volume        776.7(3)
_cod_database_code               1518301
#BEGIN Tags that were not found in dictionaries:
_shelx_space_group_comment
;
The symmetry employed for this shelxl refinement is uniquely defined
by the following loop, which should always be used as a source of
symmetry information in preference to the above space-group names.
They are only intended as comments.
;
_shelxl_version_number           2014/6
_shelx_res_file
;
TITL 140919LT_0m in P-1
CELL 0.71073 8.8499 9.0155 10.5145 111.443 92.219 94.247
ZERR 2.00 0.0022 0.0022 0.0027 0.011 0.013 0.012
LATT 1
SFAC C  H  N  O  F  S
UNIT 36  32  2  4  2  2
L.S. 4
ACTA
BOND $H
FMAP 2
PLAN 5
TEMP -173.000
WGHT    0.079700    0.256000
FVAR       0.80122
S1    6    0.826778    0.372638    0.851310    11.00000    0.03021    0.03998 =
         0.03129    0.02243    0.00022    0.00009
F1    5    0.795875    1.477379    1.455328    11.00000    0.03368    0.02761 =
         0.01785    0.00207    0.00089   -0.00236
O1    4    0.920417    0.240648    0.807255    11.00000    0.03572    0.04426 =
         0.04697    0.02729   -0.00055    0.00616
O2    4    0.806665    0.445481    0.994669    11.00000    0.04211    0.05009 =
         0.03015    0.02328   -0.00063   -0.00485
N1    3    0.861621    0.788628    0.966439    11.00000    0.02471    0.04037 =
         0.03305    0.02334   -0.00074    0.00053
AFIX  43
H11   2    0.924943    0.782277    1.030476    11.00000   -1.20000
AFIX   0
C1    1    0.206562    0.147902    0.551048    11.00000    0.03321    0.06321 =
         0.05593    0.03563   -0.00280   -0.00182
AFIX 137
H16   2    0.175705    0.040386    0.549098    11.00000   -1.50000
H2    2    0.210693    0.144659    0.457071    11.00000   -1.50000
H1    2    0.132757    0.221253    0.598424    11.00000   -1.50000
AFIX   0
C2    1    0.361013    0.205377    0.625638    11.00000    0.03209    0.03796 =
         0.04209    0.02425    0.00030    0.00037
C3    1    0.490354    0.196114    0.553887    11.00000    0.03658    0.04459 =
         0.03067    0.01889    0.00164   -0.00171
AFIX  43
H13   2    0.481064    0.154179    0.456583    11.00000   -1.20000
AFIX   0
C4    1    0.632250    0.246814    0.621552    11.00000    0.03156    0.04180 =
         0.03261    0.01875    0.00706    0.00058
AFIX  43
H14   2    0.720085    0.239156    0.571191    11.00000   -1.20000
AFIX   0
C5    1    0.645976    0.308936    0.763286    11.00000    0.02909    0.03379 =
         0.03241    0.01982    0.00228    0.00117
C6    1    0.907229    0.523608    0.793859    11.00000    0.02727    0.04194 =
         0.03104    0.02184    0.00107   -0.00151
AFIX  23
H4    2    1.015521    0.550019    0.827798    11.00000   -1.20000
H12   2    0.903073    0.479310    0.692508    11.00000   -1.20000
AFIX   0
C7    1    0.830386    0.672892    0.839171    11.00000    0.02706    0.04235 =
         0.03491    0.02441    0.00062   -0.00245
C8    1    0.779421    0.916856    0.979885    11.00000    0.02408    0.04332 =
         0.04078    0.02820    0.00242    0.00183
C9    1    0.785521    1.058417    1.105184    11.00000    0.02356    0.03972 =
         0.04080    0.02750    0.00523    0.00111
C10   1    0.891738    1.086167    1.215228    11.00000    0.02663    0.04502 =
         0.04215    0.02582    0.00552    0.00779
AFIX  43
H5    2    0.962500    1.010166    1.209758    11.00000   -1.20000
AFIX   0
C11   1    0.895058    1.222800    1.331865    11.00000    0.02960    0.04716 =
         0.03970    0.02504    0.00431    0.00552
AFIX  43
H8    2    0.967357    1.241189    1.406466    11.00000   -1.20000
AFIX   0
C12   1    0.792080    1.331564    1.338126    11.00000    0.03149    0.03948 =
         0.04471    0.02531    0.00832    0.00130
C13   1    0.377332    0.268167    0.766783    11.00000    0.03085    0.04303 =
         0.04358    0.02544    0.00991    0.00500
AFIX  43
H3    2    0.289564    0.275366    0.817178    11.00000   -1.20000
AFIX   0
C14   1    0.518700    0.320995    0.836818    11.00000    0.03617    0.03701 =
         0.03219    0.01846    0.00805    0.00454
AFIX  43
H15   2    0.527872    0.364908    0.934110    11.00000   -1.20000
AFIX   0
C15   1    0.684772    1.308774    1.232941    11.00000    0.03469    0.03995 =
         0.05671    0.02843    0.00539    0.00929
AFIX  43
H7    2    0.614189    1.385301    1.239749    11.00000   -1.20000
AFIX   0
C16   1    0.682507    1.172564    1.118013    11.00000    0.02959    0.04606 =
         0.05252    0.03260   -0.00279    0.00318
AFIX  43
H6    2    0.608639    1.155147    1.044769    11.00000   -1.20000
AFIX   0
C17   1    0.695261    0.879146    0.857033    11.00000    0.02961    0.04807 =
         0.04514    0.02808   -0.00286    0.00373
AFIX  43
H10   2    0.627710    0.945015    0.835409    11.00000   -1.20000
AFIX   0
C18   1    0.726917    0.726669    0.769787    11.00000    0.03063    0.05165 =
         0.03884    0.02576   -0.00463   -0.00090
AFIX  43
H9    2    0.684287    0.670635    0.678847    11.00000   -1.20000
AFIX   0
HKLF 4 1 1 0 0 0 1 0 0 0 1

REM  140919LT_0m in P-1
REM R1 =  0.0400 for    2706 Fo > 4sig(Fo)  and  0.0515 for all    3201 data
REM    209 parameters refined using      0 restraints

END

WGHT      0.0797      0.2560

REM Highest difference peak  0.532,  deepest hole -0.518,  1-sigma level  0.114
Q1    1   0.1993  0.0504  0.4604  11.00000  0.05    0.35
Q2    1   0.4286  0.2110  0.5992  11.00000  0.05    0.32
Q3    1   0.1282  0.1223  0.5982  11.00000  0.05    0.29
Q4    1   0.4645  0.0835  0.4331  11.00000  0.05    0.28
Q5    1   0.5674  0.1769  0.5818  11.00000  0.05    0.27
;
_shelx_res_checksum              98825
_shelx_hkl_file
;
  -1   0   0 -5.9746 0.09728   1
  -1   0   0 -6.0313 0.06857   2
  -1   0   0 -6.0265 0.06111   4
  -1   0   0 -6.0136 0.07350   6
  -1   0   0 -6.0915 0.09085   1
   1   0   0 -5.9229 0.10884   1
   1   0   0 -6.0969 0.09316   2
   1   0   0 -6.0472 0.08987   4
   1   0   0 -6.0015 0.06902   1
   1   0   0 -6.0631 0.07036   6
  -2   0   0 3770.13 129.075   6
  -2   0   0 4040.93 129.083   1
  -2   0   0 3932.40 129.349   1
   2   0   0 3909.76 130.178   1
   2   0   0 4203.92 130.839   6
   2   0   0 4125.36 129.356   2
   2   0   0 4053.29 129.302   4
  -3   0   0 1527.26 51.3107   1
  -3   0   0 1594.58 51.3336   2
  -3   0   0 1680.57 51.3918   6
  -3   0   0 1566.18 51.1890   4
   3   0   0 1571.95 51.3952   1
   3   0   0 1626.41 51.5412   6
   3   0   0 1524.53 51.2916   2
   3   0   0 1565.72 51.3792   1
  -4   0   0 296.782 10.7017   1
  -4   0   0 315.260 10.7072   6
  -4   0   0 302.769 10.7302   2
   4   0   0 293.524 10.7901   1
   4   0   0 285.017 10.6419   2
   4   0   0 314.659 10.6239   4
   4   0   0 312.821 11.0267   6
   4   0   0 288.010 10.7368   1
  -5   0   0 49.3380 2.79280   1
  -5   0   0 46.2794 2.75646   2
  -5   0   0 50.6007 2.72588   6
   5   0   0 55.7675 3.16583   6
   5   0   0 50.1628 2.73315   4
   5   0   0 51.7731 3.01961   5
   5   0   0 54.0750 2.94359   1
  -6   0   0 319.377 12.3589   1
  -6   0   0 333.723 12.1618   6
   6   0   0 351.271 12.6567   1
   6   0   0 347.227 12.8034   5
   6   0   0 339.202 12.2476   4
   6   0   0 330.741 12.8937   6
  -7   0   0 357.641 13.0544   2
  -7   0   0 337.129 12.8944   1
  -7   0   0 320.517 12.4409   6
   7   0   0 333.738 13.5140   6
   7   0   0 347.601 13.3178   5
   7   0   0 356.551 13.2071   1
   7   0   0 351.663 12.7557   4
  -8   0   0 40.3637 3.17459   1
  -8   0   0 44.6982 3.87363   2
   8   0   0 45.3623 3.16123   4
   8   0   0 47.9025 3.62210   5
   8   0   0 52.3964 3.68785   1
  -9   0   0 -0.1255 1.00119   2
   9   0   0 0.02312 0.96497   5
   9   0   0 -0.1894 1.03220   1
   9   0   0 0.43966 1.08737   4
 -10   0   0 65.0619 4.75437   2
  10   0   0 68.7716 4.51104   4
  10   0   0 59.7513 4.78440   5
  10   0   0 77.3482 5.27571   1
 -11   0   0 26.1836 3.68725   2
  11   0   0 25.1913 3.29565   4
  11   0   0 25.1891 3.88000   1
  11  -1   0 27.9825 3.91831   1
  11  -1   0 21.9321 3.66540   5
  11  -1   0 26.2091 3.42790   4
 -11   1   0 23.6929 3.50499   2
  10  -1   0 0.64698 1.11782   5
  10  -1   0 1.91771 1.35660   4
  10  -1   0 2.70752 1.57143   1
 -10   1   0 2.44048 1.42425   2
   9  -1   0 201.231 9.34471   1
   9  -1   0 205.318 8.87666   4
   9  -1   0 197.604 9.21078   5
  -9   1   0 208.821 10.3070   1
  -9   1   0 189.026 8.89167   2
   8  -1   0 232.549 9.65387   1
   8  -1   0 220.859 9.13203   4
   8  -1   0 221.823 9.47316   5
  -8   1   0 202.294 8.90838   6
  -8   1   0 216.965 9.25088   2
  -8   1   0 222.552 9.38561   1
   7  -1   0 36.4758 3.00935   4
   7  -1   0 37.1761 2.85326   5
   7  -1   0 33.8075 3.34957   1
   7  -1   0 31.2444 3.27623   6
  -7   1   0 31.9309 2.54064   6
  -7   1   0 35.1345 3.08950   2
  -7   1   0 33.1098 3.12376   1
   6  -1   0 229.863 8.86648   1
   6  -1   0 210.172 9.07714   6
   6  -1   0 215.564 8.45884   4
  -6   1   0 217.744 8.57834   2
  -6   1   0 212.785 8.63894   6
  -6   1   0 216.167 8.72199   1
   5  -1   0 141.256 5.98894   1
   5  -1   0 143.067 5.76408   4
   5  -1   0 140.778 6.24985   6
  -5   1   0 135.835 5.89381   6
  -5   1   0 137.171 5.80554   2
  -5   1   0 146.402 5.99126   1
   4  -1   0 2.52475 0.65336   2
   4  -1   0 0.70066 0.46624   6
   4  -1   0 3.64157 0.80629   4
   4  -1   0 2.60236 0.88012   3
   4  -1   0 3.40781 0.85056   1
  -4   1   0 2.62020 0.75601   1
  -4   1   0 3.76562 0.81194   2
  -4   1   0 2.81851 0.76337   6
   3  -1   0 87.3237 3.67114   1
   3  -1   0 90.1589 3.86262   3
   3  -1   0 85.0861 3.50596   2
  -3   1   0 84.8341 3.48448   4
  -3   1   0 83.1757 3.64101   1
  -3   1   0 91.4301 3.58184   2
  -3   1   0 82.3112 3.64027   1
  -3   1   0 87.5209 3.74552   6
   2  -1   0 6.64314 1.02852   6
   2  -1   0 9.96455 0.97472   1
   2  -1   0 9.70016 1.11425   3
   2  -1   0 9.36659 0.94983   1
   2  -1   0 9.91379 0.89831   4
   2  -1   0 11.4623 0.92880   2
  -2   1   0 10.3750 0.89931   4
  -2   1   0 10.2979 1.02748   1
  -2   1   0 9.32087 0.91284   6
  -2   1   0 13.6874 1.27446   3
  -2   1   0 8.69239 0.81513   2
  -2   1   0 11.4283 1.05408   1
  -1   1   0 483.388 15.8234   1
   0  -1   0 -3.6897 0.12324   3
   0  -1   0 -3.7960 0.04857   1
   0   1   0 -3.3509 0.19530   3
   0   1   0 -3.8498 0.06909   1
   0   1   0 -3.7141 0.06646   1
  -1  -1   0 16.8769 0.73465   1
   1   1   0 18.5307 1.02731   5
   1   1   0 17.5864 0.81524   2
   1   1   0 12.1595 0.66157   4
  -2  -1   0 506.951 16.4944   2
  -2  -1   0 491.661 16.3778   1
  -2  -1   0 500.277 16.3070   4
   2   1   0 491.996 16.4543   1
   2   1   0 493.346 16.7379   5
   2   1   0 496.034 16.3097   4
   2   1   0 502.404 16.4174   6
   2   1   0 488.733 16.4696   2
   2   1   0 491.693 16.4299   1
  -3  -1   0 1293.40 41.5172   2
  -3  -1   0 1323.75 41.1153   6
  -3  -1   0 1276.48 41.3611   1
  -3  -1   0 1240.64 41.2402   4
   3   1   0 1294.80 41.4923   1
   3   1   0 1209.90 41.4273   1
   3   1   0 1286.04 41.2766   4
   3   1   0 1294.72 41.5291   6
   3   1   0 1270.88 41.7897   5
   3   1   0 1239.43 41.4600   2
  -4  -1   0 59.4397 2.79927   1
  -4  -1   0 57.2781 2.90702   2
  -4  -1   0 59.5634 2.56389   6
   4   1   0 61.6425 2.95072   1
   4   1   0 62.4051 3.00819   1
   4   1   0 61.6766 3.06337   6
   4   1   0 58.4152 2.73920   4
   4   1   0 61.7703 3.23384   5
  -5  -1   0 293.942 10.0116   6
  -5  -1   0 275.270 10.3383   1
  -5  -1   0 290.691 10.5923   2
   5   1   0 292.207 10.3243   4
   5   1   0 290.437 10.8332   6
   5   1   0 290.937 10.9658   5
   5   1   0 270.517 10.5061   1
   5   1   0 285.522 10.6236   1
  -6  -1   0 39.6493 2.65271   2
  -6  -1   0 37.5520 2.06602   6
  -6  -1   0 38.4444 2.48928   1
   6   1   0 37.2844 2.44696   4
   6   1   0 41.2597 2.92424   6
   6   1   0 36.3525 2.77625   5
   6   1   0 39.2061 2.68569   1
  -7  -1   0 76.0753 4.08034   2
  -7  -1   0 61.1001 3.66226   1
   7   1   0 65.0720 4.27593   6
   7   1   0 69.5758 4.30551   5
   7   1   0 68.7701 4.10774   1
   7   1   0 74.9766 3.81678   4
  -8  -1   0 0.30420 0.88442   2
   8   1   0 0.49617 0.87790   4
   8   1   0 -0.1882 0.82909   6
   8   1   0 -0.1634 0.77402   1
   8   1   0 -0.0194 0.93579   5
  -9  -1   0 -0.7094 0.96990   2
   9   1   0 -1.9836 0.84054   1
   9   1   0 0.62949 1.07770   5
   9   1   0 0.01692 1.06082   4
 -10  -1   0 1.32413 1.46934   2
  10   1   0 0.85484 1.44833   5
  10   1   0 0.31584 1.32812   4
  10   1   0 0.81939 1.34942   1
  11  -2   0 1.47752 1.67626   4
  11  -2   0 3.63872 1.95577   1
  11  -2   0 2.24435 1.66993   5
 -11   2   0 3.92019 1.80543   2
  10  -2   0 0.82485 1.29303   4
  10  -2   0 -1.3907 1.15582   1
  10  -2   0 1.73929 1.22132   5
 -10   2   0 0.40978 1.09692   2
   9  -2   0 23.9975 3.20724   1
   9  -2   0 23.3958 2.93288   4
   9  -2   0 16.0498 2.40665   5
  -9   2   0 22.0552 3.05098   1
  -9   2   0 22.2221 2.74834   2
   8  -2   0 48.9719 3.51806   4
   8  -2   0 55.6607 3.83814   1
   8  -2   0 47.6092 3.48591   5
  -8   2   0 50.0160 3.51724   2
  -8   2   0 48.8179 3.70603   1
   7  -2   0 226.217 9.09501   1
   7  -2   0 208.134 9.36458   6
   7  -2   0 202.805 8.59209   4
  -7   2   0 205.907 8.95042   1
  -7   2   0 213.964 8.70732   2
  -7   2   0 208.171 8.87731   6
   6  -2   0 16.6671 1.92573   4
   6  -2   0 15.2409 1.96057   1
   6  -2   0 17.9855 2.32958   6
  -6   2   0 13.7480 1.84527   6
  -6   2   0 18.4200 2.25782   1
  -6   2   0 20.2745 2.18256   2
   5  -2   0 153.166 6.41900   1
   5  -2   0 149.933 6.18106   4
   5  -2   0 149.788 6.70632   6
  -5   2   0 149.924 6.48023   6
  -5   2   0 153.563 6.16550   2
  -5   2   0 152.974 6.47361   1
   4  -2   0 50.2416 2.92936   6
   4  -2   0 46.1961 2.66796   1
   4  -2   0 45.5818 2.43236   2
   4  -2   0 46.8977 2.88818   3
   4  -2   0 47.8244 2.52666   4
  -4   2   0 46.9939 2.47999   2
  -4   2   0 49.9187 2.76258   1
  -4   2   0 48.3920 2.78658   6
   3  -2   0 1573.71 50.1270   4
   3  -2   0 1486.84 49.9677   2
   3  -2   0 1522.11 50.5538   3
   3  -2   0 1558.50 50.2951   1
   3  -2   0 1623.17 50.5871   6
  -3   2   0 1481.94 50.2680   1
  -3   2   0 1511.73 50.3341   1
  -3   2   0 1560.46 50.0249   2
  -3   2   0 1534.60 50.5723   3
  -3   2   0 1569.63 50.4834   6
   2  -2   0 22.6523 1.44482   1
   2  -2   0 24.6876 1.39606   4
   2  -2   0 23.1103 1.65665   3
   2  -2   0 25.1599 1.57612   6
   2  -2   0 26.4811 1.50801   1
   2  -2   0 24.1451 1.26773   2
  -2   2   0 22.6154 1.67639   3
  -2   2   0 23.0636 1.45364   1
  -2   2   0 24.9010 1.52979   1
  -2   2   0 24.7253 1.28996   2
  -2   2   0 23.3521 1.32331   4
  -2   2   0 25.5608 1.59743   6
   1  -2   0 4919.69 159.692   1
   1  -2   0 5000.42 160.083   6
   1  -2   0 5093.13 160.502   3
   1  -2   0 5057.24 158.848   2
   1  -2   0 4913.70 159.455   4
   1  -2   0 4583.79 159.411   1
   1  -2   0 4983.74 160.371   6
  -1   2   0 4736.78 158.910   4
  -1   2   0 4764.15 160.006   1
  -1   2   0 4999.44 158.978   2
  -1   2   0 5091.62 160.647   1
  -1   2   0 4955.02 160.410   6
  -1   2   0 5108.79 159.934   6
  -1   2   0 4964.95 162.053   3
   0  -2   0 2515.81 80.7994   1
   0  -2   0 2399.00 80.9642   1
   0   2   0 2606.12 82.0860   3
   0   2   0 2400.00 80.4122   4
   0   2   0 2581.91 80.7973   6
   0   2   0 2543.21 81.0781   6
   0   2   0 2504.69 80.5691   1
  -1  -2   0 290.447 9.32365   1
  -1  -2   0 272.660 9.30892   1
  -1  -2   0 282.392 9.86426   5
  -1  -2   0 287.458 9.46319   2
   1   2   0 287.319 9.89124   5
   1   2   0 290.131 9.27259   4
   1   2   0 288.819 9.49669   1
   1   2   0 289.260 9.48827   1
  -2  -2   0 350.724 11.4637   4
  -2  -2   0 348.527 11.7361   2
  -2  -2   0 348.780 11.4807   1
  -2  -2   0 339.897 11.4815   1
  -2  -2   0 352.325 12.1374   5
   2   2   0 359.268 11.5363   6
   2   2   0 352.730 12.1802   5
   2   2   0 343.542 11.6594   1
   2   2   0 350.517 11.4779   4
   2   2   0 342.562 11.7083   1
  -3  -2   0 40.0341 1.88218   1
  -3  -2   0 49.9907 2.26460   2
  -3  -2   0 41.0877 1.86849   4
   3   2   0 40.2898 2.10017   1
   3   2   0 42.2119 1.90569   4
   3   2   0 42.0269 2.08418   1
   3   2   0 44.3515 2.54683   5
   3   2   0 42.5471 2.10468   1
   3   2   0 42.1416 2.07557   6
  -4  -2   0 1769.76 56.6165   2
  -4  -2   0 1734.69 56.1983   4
   4   2   0 1808.58 57.1825   5
   4   2   0 1748.39 56.6427   6
   4   2   0 1629.85 56.4750   1
   4   2   0 1632.77 56.4802   1
   4   2   0 1827.84 56.6456   1
   4   2   0 1744.05 56.2248   4
  -5  -2   0 660.167 22.3164   2
   5   2   0 662.029 21.9023   4
   5   2   0 608.070 22.1640   1
   5   2   0 673.612 22.3515   1
   5   2   0 674.328 22.9045   5
   5   2   0 682.333 22.5470   6
   5   2   0 604.113 22.1598   1
  -6  -2   0 240.495 9.15388   1
  -6  -2   0 264.741 9.73538   2
   6   2   0 252.263 9.22538   4
   6   2   0 248.133 9.92756   6
   6   2   0 238.941 9.68692   1
   6   2   0 255.580 10.2407   5
   6   2   0 236.679 9.55776   1
   6   2   0 239.145 9.54126   1
  -7  -2   0 255.554 10.2288   2
   7   2   0 266.838 10.4150   1
   7   2   0 253.549 10.8187   5
   7   2   0 245.772 10.5485   6
   7   2   0 249.150 9.67643   4
  -8  -2   0 45.6956 3.41034   2
   8   2   0 52.3089 3.22732   4
   8   2   0 44.0234 3.67597   6
   8   2   0 44.8801 3.50763   1
   8   2   0 49.2706 4.62978   5
  -9  -2   0 63.1913 4.30947   2
   9   2   0 57.3701 4.24516   1
   9   2   0 61.4155 4.71319   5
   9   2   0 56.7936 3.81180   4
 -10  -2   0 57.1352 4.96605   2
  10   2   0 58.0880 4.63481   1
  10   2   0 52.7927 7.74041   5
  10   2   0 57.4185 4.01973   4
  10  -3   0 0.07360 1.30918   1
  10  -3   0 -0.9900 1.16955   4
  10  -3   0 0.10514 1.12762   5
 -10   3   0 -1.6833 1.01960   2
   9  -3   0 85.1105 5.38664   1
   9  -3   0 82.0688 4.97421   5
   9  -3   0 83.1614 5.01325   4
  -9   3   0 80.8260 5.30304   1
  -9   3   0 86.3872 5.03019   2
   8  -3   0 81.1354 4.82842   4
   8  -3   0 92.1546 5.29309   1
  -8   3   0 88.2659 4.88124   2
  -8   3   0 86.7482 5.21680   1
   7  -3   0 0.01243 0.90326   1
   7  -3   0 0.27461 1.00339   4
   7  -3   0 1.46029 1.07983   6
  -7   3   0 -0.1420 0.85750   1
  -7   3   0 -1.4387 0.84080   2
  -7   3   0 0.89908 0.94113   6
   6  -3   0 33.6910 2.88456   4
   6  -3   0 33.4327 2.62252   1
   6  -3   0 31.6752 2.79330   6
  -6   3   0 32.0868 2.36356   2
  -6   3   0 29.2412 2.55928   6
  -6   3   0 34.0490 2.73439   1
   5  -3   0 350.848 12.8172   1
   5  -3   0 349.808 13.1846   6
   5  -3   0 343.196 12.5523   4
  -5   3   0 346.770 12.4428   2
  -5   3   0 341.540 12.9723   6
  -5   3   0 341.520 12.8946   1
   4  -3   0 771.007 25.5199   1
   4  -3   0 754.738 25.8182   6
   4  -3   0 762.265 25.2940   4
   4  -3   0 689.775 24.9803   2
  -4   3   0 767.665 25.7743   6
  -4   3   0 767.388 25.9624   3
  -4   3   0 747.389 25.6116   1
  -4   3   0 758.687 25.1211   2
   3  -3   0 47.2204 2.58932   6
   3  -3   0 46.6859 2.24641   2
   3  -3   0 49.6389 2.49459   4
   3  -3   0 48.3906 2.61507   1
   3  -3   0 44.1722 2.81171   3
   3  -3   0 50.6978 2.78667   6
  -3   3   0 50.9639 2.71730   1
  -3   3   0 49.5462 2.75569   6
  -3   3   0 50.7596 2.32236   2
  -3   3   0 51.9023 2.97715   3
  -3   3   0 46.4779 2.57588   1
   2  -3   0 331.284 11.8898   1
   2  -3   0 337.713 12.3850   3
   2  -3   0 342.480 12.0296   6
   2  -3   0 362.847 11.8040   4
   2  -3   0 337.017 11.5262   2
   2  -3   0 352.663 11.9574   6
  -2   3   0 333.022 11.6891   4
  -2   3   0 351.206 11.5535   2
  -2   3   0 358.756 12.4856   3
  -2   3   0 344.953 12.0718   1
  -2   3   0 329.582 11.9524   1
  -2   3   0 362.704 12.2038   6
   1  -3   0 695.262 22.8155   6
   1  -3   0 702.850 23.5887   3
   1  -3   0 711.778 22.8005   4
   1  -3   0 736.586 22.8311   6
   1  -3   0 690.027 22.5438   2
  -1   3   0 685.420 23.0252   1
  -1   3   0 710.678 23.1294   6
  -1   3   0 684.782 23.0718   6
  -1   3   0 702.822 23.1039   1
  -1   3   0 703.390 23.5788   3
  -1   3   0 657.469 22.7378   4
   0  -3   0 48.4994 2.02010   1
   0  -3   0 53.1109 2.39691   5
   0  -3   0 52.4214 2.04602   1
   0   3   0 53.0767 2.25099   1
   0   3   0 51.5510 1.92255   4
   0   3   0 48.5085 2.16422   1
   0   3   0 51.8470 2.14266   6
   0   3   0 48.8518 2.74344   3
   0   3   0 54.5441 2.22437   6
  -1  -3   0 75.2503 3.26360   5
  -1  -3   0 73.0412 2.69965   2
   1   3   0 74.1068 2.87337   1
   1   3   0 73.9870 2.48753   4
   1   3   0 68.3595 2.82359   1
  -2  -3   0 102.448 3.82758   2
  -2  -3   0 96.1694 4.30362   5
   2   3   0 102.510 3.86318   1
   2   3   0 103.143 3.49488   4
   2   3   0 95.8743 3.78131   1
   2   3   0 98.9040 4.37111   5
  -3  -3   0 105.343 4.14828   2
  -3  -3   0 101.204 3.71439   4
  -3  -3   0 99.7599 3.59107   1
  -3  -3   0 92.1729 4.49155   5
   3   3   0 96.8809 3.71523   4
   3   3   0 98.5262 4.02001   1
   3   3   0 102.507 4.68422   5
   3   3   0 107.398 4.04656   6
   3   3   0 106.627 4.16113   1
  -4  -3   0 480.093 16.5003   4
  -4  -3   0 527.542 17.0962   2
  -4  -3   0 485.414 16.4079   1
   4   3   0 504.306 17.0520   1
   4   3   0 489.228 17.7045   5
   4   3   0 509.882 17.0689   6
   4   3   0 470.615 16.9010   1
   4   3   0 498.991 16.5578   4
  -5  -3   0 1.32058 0.51907   1
  -5  -3   0 2.49759 0.87824   2
   5   3   0 1.84370 0.79141   6
   5   3   0 1.93600 0.72105   1
   5   3   0 2.62146 0.99212   5
   5   3   0 0.98987 0.67093   1
   5   3   0 2.45291 0.72587   4
  -6  -3   0 123.667 5.38107   2
  -6  -3   0 103.592 4.50612   1
   6   3   0 117.098 5.34357   1
   6   3   0 109.826 4.75948   4
   6   3   0 118.771 5.96536   5
   6   3   0 100.431 5.06451   1
   6   3   0 113.981 5.48350   6
  -7  -3   0 88.6150 4.69225   2
   7   3   0 79.9604 5.06043   5
   7   3   0 83.0322 4.88544   6
   7   3   0 90.4025 4.82183   1
   7   3   0 85.8771 4.15436   4
  -8  -3   0 19.5220 2.63120   2
   8   3   0 18.9587 2.19874   4
   8   3   0 19.6350 2.90655   5
   8   3   0 19.7798 2.67164   1
   8   3   0 14.9496 2.54951   6
  -9  -3   0 29.1638 3.39320   2
   9   3   0 22.4195 3.49392   5
   9   3   0 26.8868 3.36258   1
   9   3   0 27.6655 2.80673   4
 -10  -3   0 48.2940 4.65111   2
  10   3   0 51.4038 4.93637   1
  10   3   0 58.2008 3.91749   4
  10  -4   0 5.10234 1.93622   1
  10  -4   0 2.03649 1.40352   4
  10  -4   0 2.29800 1.31593   5
 -10   4   0 2.88286 1.50911   2
 -10   4   0 4.82927 1.96037   1
   9  -4   0 3.91632 1.70826   1
   9  -4   0 3.11270 1.46768   4
   9  -4   0 2.07438 1.18257   5
  -9   4   0 3.90042 1.66427   1
  -9   4   0 5.11185 1.62431   2
   8  -4   0 202.840 9.29905   1
   8  -4   0 206.191 9.04444   4
  -8   4   0 204.711 8.78357   2
  -8   4   0 215.548 9.66538   1
   7  -4   0 48.0933 3.45216   1
   7  -4   0 39.0884 3.47764   6
   7  -4   0 46.4121 3.22978   4
  -7   4   0 49.5275 3.67718   1
  -7   4   0 39.8797 2.98541   2
   6  -4   0 88.7622 4.55065   4
   6  -4   0 92.7332 4.79505   1
   6  -4   0 80.3336 4.87958   6
  -6   4   0 87.6189 4.30511   2
  -6   4   0 87.6198 4.88849   6
  -6   4   0 90.5596 4.94070   1
   5  -4   0 18.0851 2.11064   1
   5  -4   0 13.4449 1.90810   6
   5  -4   0 15.1162 1.78747   4
  -5   4   0 19.2655 1.84777   2
  -5   4   0 14.9034 2.02796   1
  -5   4   0 17.5413 2.17380   6
  -5   4   0 17.8370 2.38854   3
   4  -4   0 123.877 5.14557   4
   4  -4   0 124.099 5.34887   1
   4  -4   0 114.175 4.79606   2
   4  -4   0 119.524 5.49244   6
   4  -4   0 117.323 5.32176   6
  -4   4   0 120.165 5.76478   3
  -4   4   0 117.094 5.51195   6
  -4   4   0 120.251 5.48080   1
  -4   4   0 119.935 4.84525   2
   3  -4   0 15.4799 1.15344   2
   3  -4   0 20.6276 1.99791   6
   3  -4   0 18.5031 1.79745   1
   3  -4   0 20.4664 2.06570   6
   3  -4   0 18.4733 1.70765   4
  -3   4   0 16.3961 1.17920   2
  -3   4   0 16.1021 2.08291   3
  -3   4   0 16.2899 1.80462   1
  -3   4   0 20.6087 2.16741   6
   2  -4   0 269.089 9.17273   6
   2  -4   0 256.956 9.20241   1
   2  -4   0 252.402 8.70446   2
   2  -4   0 270.847 9.09906   4
   2  -4   0 265.893 9.21083   6
  -2   4   0 241.035 9.29916   1
  -2   4   0 250.197 8.70471   2
  -2   4   0 256.655 9.46736   1
  -2   4   0 260.369 9.47594   6
  -2   4   0 251.123 9.87695   3
  -2   4   0 246.684 8.94353   4
  -2   4   0 263.507 9.54287   6
   1  -4   0 26.0344 2.06821   3
  -1   4   0 30.5477 2.26015   3
  -1   4   0 28.7956 1.78046   6
  -1   4   0 32.8321 1.84480   6
  -1   4   0 24.4862 1.62184   1
  -1   4   0 26.4267 1.71745   1
  -1   4   0 27.0094 1.39768   4
   0  -4   0 110.652 4.00648   1
   0  -4   0 111.078 4.53580   5
   0   4   0 107.232 4.27544   1
   0   4   0 112.349 5.11019   3
   0   4   0 115.797 4.30699   6
   0   4   0 112.079 4.35632   6
   0   4   0 106.568 3.87728   4
   0   4   0 113.192 4.38502   1
  -1  -4   0 4.36014 0.91804   5
  -1  -4   0 4.35158 0.50099   2
   1   4   0 4.17494 0.63629   6
   1   4   0 4.75200 0.75027   1
   1   4   0 5.58353 1.29841   3
   1   4   0 5.15495 0.74616   1
   1   4   0 4.58786 0.57807   6
  -2  -4   0 38.4909 1.81379   2
  -2  -4   0 36.2680 2.33499   5
   2   4   0 35.0104 1.39753   4
   2   4   0 37.9435 1.96017   1
   2   4   0 37.0004 1.80905   6
   2   4   0 35.7524 1.88013   1
   2   4   0 37.9690 1.69914   6
  -3  -4   0 491.869 15.9668   2
  -3  -4   0 453.377 16.7075   5
   3   4   0 482.626 16.0573   1
   3   4   0 486.568 16.8956   5
   3   4   0 467.869 15.9103   6
   3   4   0 452.829 15.3794   4
   3   4   0 452.403 15.9106   1
  -4  -4   0 8.65054 1.18894   2
   4   4   0 6.36564 1.45730   5
   4   4   0 7.09851 0.85418   4
   4   4   0 8.31487 1.22714   1
   4   4   0 9.21981 1.30954   6
   4   4   0 7.68991 1.17429   1
  -5  -4   0 82.0990 3.90051   2
   5   4   0 71.2368 3.23338   4
   5   4   0 79.6138 3.91293   1
   5   4   0 67.2358 3.62620   1
   5   4   0 71.8416 3.86835   6
   5   4   0 84.5435 4.69599   5
  -6  -4   0 232.187 8.89476   2
   6   4   0 216.919 9.03289   6
   6   4   0 209.960 9.59186   5
   6   4   0 213.118 8.80165   1
   6   4   0 213.603 8.07334   4
  -7  -4   0 54.5750 3.56950   2
   7   4   0 52.1787 3.85088   6
   7   4   0 56.2783 3.69764   1
   7   4   0 56.3877 3.09849   4
   7   4   0 58.0124 4.36280   5
  -8  -4   0 8.48948 1.96768   2
   8   4   0 9.66106 2.07062   1
   8   4   0 9.49760 2.35857   5
   8   4   0 9.67514 1.58781   4
  -9  -4   0 47.0869 4.27565   2
   9   4   0 46.4866 3.29619   4
   9   4   0 52.8480 4.18987   1
  10  -5   0 33.2973 4.18112   1
  10  -5   0 31.5050 3.79281   4
 -10   5   0 29.2346 3.47655   2
 -10   5   0 28.1964 4.14688   1
   9  -5   0 2.55476 1.55397   4
   9  -5   0 1.98559 1.45115   1
  -9   5   0 3.84039 1.49717   2
  -9   5   0 5.51132 1.95701   1
   8  -5   0 36.6179 3.85972   1
   8  -5   0 36.2741 3.68497   4
  -8   5   0 45.3351 4.72854   1
  -8   5   0 32.3536 3.22911   2
   7  -5   0 51.7129 3.81733   1
   7  -5   0 51.3805 3.59581   4
  -7   5   0 52.8722 3.36461   2
  -7   5   0 61.4205 4.29559   1
   6  -5   0 0.32201 0.97717   4
   6  -5   0 0.40042 0.72226   6
   6  -5   0 1.60158 1.04265   1
   6  -5   0 0.15617 0.99490   6
  -6   5   0 0.72125 1.25004   3
  -6   5   0 1.29530 0.90399   6
  -6   5   0 0.63320 0.71584   2
  -6   5   0 -0.0316 0.88722   1
   5  -5   0 25.5917 2.65275   6
   5  -5   0 29.7636 2.90209   1
   5  -5   0 29.8539 2.65595   4
   5  -5   0 27.5196 2.33650   6
  -5   5   0 28.8076 3.05372   1
  -5   5   0 26.3133 3.08448   3
  -5   5   0 22.8731 2.56701   6
  -5   5   0 28.7157 1.99671   2
   4  -5   0 73.1901 3.62683   4
   4  -5   0 63.7712 3.15033   2
   4  -5   0 70.2159 3.75030   1
   4  -5   0 71.0181 3.73427   6
   4  -5   0 68.9759 3.81456   6
  -4   5   0 69.9124 3.24164   2
  -4   5   0 76.8957 4.14779   6
  -4   5   0 74.7106 4.09103   1
  -4   5   0 75.4065 4.42205   3
   3  -5   0 31.2475 1.72731   2
   3  -5   0 36.3003 2.16979   6
   3  -5   0 32.3183 2.13392   6
   3  -5   0 33.0404 2.06084   4
   3  -5   0 32.5073 2.18506   1
  -3   5   0 34.5110 2.45395   1
  -3   5   0 31.2308 3.10699   3
  -3   5   0 32.3932 1.73919   2
  -3   5   0 35.4410 2.49876   6
   2  -5   0 2.77463 0.46352   2
   2  -5   0 2.65625 0.74015   1
  -2   5   0 2.23464 0.74560   6
  -2   5   0 1.61624 0.71769   1
  -2   5   0 3.19392 1.14973   3
  -2   5   0 2.75132 0.79269   1
  -2   5   0 2.08221 0.75635   6
   1  -5   0 2.43529 0.57660   1
  -1   5   0 1.60994 0.45496   4
  -1   5   0 2.97685 0.77155   6
  -1   5   0 1.83873 0.64906   6
  -1   5   0 1.57350 0.65990   1
  -1   5   0 1.80341 1.00298   3
  -1   5   0 2.17363 0.64033   1
   0  -5   0 64.5592 2.54594   1
   0  -5   0 71.1741 3.34270   5
   0   5   0 62.2534 2.48707   4
   0   5   0 69.8742 3.19118   6
   0   5   0 62.7219 2.99235   1
   0   5   0 68.4332 3.06875   6
   0   5   0 64.5526 3.12022   1
   0   5   0 70.4551 3.98114   3
  -1  -5   0 30.3682 1.32162   2
  -1  -5   0 31.5396 2.15721   5
   1   5   0 30.2232 1.70806   6
   1   5   0 29.9939 1.84516   6
   1   5   0 31.8963 3.17284   3
   1   5   0 28.7264 1.83605   1
   1   5   0 27.5381 1.75084   1
  -2  -5   0 296.910 10.0792   2
  -2  -5   0 287.730 11.0959   5
   2   5   0 306.779 10.2519   6
   2   5   0 298.520 10.4384   6
   2   5   0 276.545 10.3620   1
   2   5   0 301.460 10.5242   1
  -3  -5   0 35.5218 1.96002   2
   3   5   0 32.9549 2.05054   1
   3   5   0 32.7388 2.07010   6
   3   5   0 33.4499 2.12052   1
  -4  -5   0 46.3675 2.57261   2
   4   5   0 42.0693 2.55029   1
   4   5   0 49.2225 3.43010   5
   4   5   0 43.0854 1.96166   4
   4   5   0 48.2542 2.76936   6
   4   5   0 45.2484 2.69211   1
  -5  -5   0 14.8595 1.73869   2
   5   5   0 14.5093 1.28557   4
   5   5   0 12.9379 1.71398   1
   5   5   0 14.7855 1.91797   6
   5   5   0 13.5556 2.19868   5
  -6  -5   0 103.102 4.94110   2
   6   5   0 93.8543 4.14157   4
   6   5   0 104.457 5.11132   1
   6   5   0 92.4262 5.66876   5
   6   5   0 100.735 5.24512   6
  -7  -5   0 1.97060 1.14328   2
   7   5   0 3.42390 1.68875   5
   7   5   0 1.91796 1.17632   4
   7   5   0 2.06853 1.26790   6
   7   5   0 3.02161 1.21861   1
  -8  -5   0 15.4273 2.42029   2
   8   5   0 13.6005 2.80694   5
   8   5   0 14.3117 2.39925   1
  -9  -5   0 48.8592 4.52175   2
   9   5   0 55.2771 4.35726   1
   9  -6   0 20.1709 3.00618   4
  -9   6   0 25.8647 3.92413   1
  -9   6   0 23.9593 2.96406   2
   8  -6   0 72.4593 4.67379   4
   8  -6   0 67.3868 4.84655   1
  -8   6   0 77.1705 5.32877   1
  -8   6   0 71.0598 4.36687   2
   7  -6   0 1.75494 1.28413   1
   7  -6   0 1.47264 1.20415   4
  -7   6   0 0.12575 1.28767   3
  -7   6   0 3.18540 1.52194   1
  -7   6   0 0.72930 0.92991   2
   6  -6   0 96.5888 6.42960   6
   6  -6   0 104.967 5.45287   1
   6  -6   0 103.261 5.24172   4
  -6   6   0 98.1072 5.70349   1
  -6   6   0 98.7459 4.69945   2
  -6   6   0 96.8944 6.02247   3
   5  -6   0 -0.1205 0.74919   4
   5  -6   0 -0.5345 0.80768   1
  -5   6   0 1.54564 0.74293   2
  -5   6   0 0.55463 0.99572   1
  -5   6   0 0.02882 0.83230   6
  -5   6   0 2.12386 1.32553   3
   4  -6   0 42.2592 2.87782   1
   4  -6   0 39.1105 2.24702   2
  -4   6   0 49.8235 3.32142   1
  -4   6   0 45.7113 3.27822   6
  -4   6   0 42.4893 2.30516   2
  -4   6   0 47.7989 3.63415   3
   3  -6   0 20.3791 2.04878   1
   3  -6   0 16.3405 1.17684   2
  -3   6   0 19.6709 2.32520   1
  -3   6   0 19.4593 2.23895   6
  -3   6   0 16.0790 2.55709   3
  -2   6   0 102.174 5.61445   3
  -2   6   0 113.935 5.15986   1
  -2   6   0 108.340 5.11232   6
  -2   6   0 120.267 5.25779   6
  -2   6   0 98.6902 4.84920   1
   1  -6   0 93.4805 4.31766   5
   1  -6   0 100.358 3.86779   1
  -1   6   0 105.888 4.60434   1
  -1   6   0 85.7100 4.25449   1
  -1   6   0 97.7951 4.49122   6
  -1   6   0 98.8278 4.54602   6
  -1   6   0 90.4162 3.69706   4
  -1   6   0 92.9445 5.22102   3
   0  -6   0 7.54344 1.27565   5
   0   6   0 9.85941 1.26910   6
   0   6   0 7.05437 1.71060   3
   0   6   0 8.34444 1.16761   1
   0   6   0 8.15514 1.26318   1
   0   6   0 7.59317 0.69846   4
   0   6   0 8.18559 1.33848   6
  -1  -6   0 -0.5496 0.53354   5
   1   6   0 0.39640 0.51152   1
   1   6   0 0.20661 0.56567   6
   1   6   0 0.27457 0.42338   6
   1   6   0 -0.5138 0.82783   3
   1   6   0 0.16026 0.50798   1
  -2  -6   0 24.1951 1.36595   2
   2   6   0 21.7216 1.70481   1
   2   6   0 24.0232 2.98934   3
   2   6   0 24.2316 1.88564   1
   2   6   0 26.7671 1.73193   6
   2   6   0 27.5045 1.99937   6
  -3  -6   0 29.5723 1.78123   2
   3   6   0 29.3283 2.02601   1
   3   6   0 30.9758 2.18306   1
   3   6   0 27.1286 2.11247   6
  -4  -6   0 12.3419 1.44887   2
   4   6   0 14.1380 1.75628   1
   4   6   0 10.8401 1.64195   6
  -5  -6   0 1.09216 0.78230   2
   5   6   0 1.65252 0.86532   1
   5   6   0 -0.1678 0.67399   6
  -6  -6   0 48.2235 3.14800   2
   6   6   0 43.3866 3.37060   6
   6   6   0 47.1483 3.29806   1
   6   6   0 36.5741 4.08586   5
  -7  -6   0 -0.2852 0.91321   2
   7   6   0 0.01469 1.33395   5
   7   6   0 0.11645 1.07365   6
   7   6   0 -1.2457 0.83439   1
  -8  -6   0 -1.0898 1.11997   2
   8   6   0 0.42065 1.16272   1
  -8   7   0 8.52981 2.37719   1
  -8   7   0 5.60557 1.56240   2
  -7   7   0 0.63831 0.88083   2
  -7   7   0 -0.8896 1.29579   1
  -7   7   0 0.08700 1.47549   3
  -6   7   0 8.37893 2.19035   3
  -6   7   0 7.20745 1.28843   2
  -6   7   0 4.86056 1.81596   1
  -5   7   0 23.9718 2.86045   6
  -5   7   0 25.3092 3.53600   3
  -5   7   0 26.7785 1.95989   2
  -5   7   0 29.6025 3.39817   1
  -4   7   0 19.7687 2.67065   1
  -4   7   0 17.0322 2.98536   3
  -4   7   0 16.7285 2.41262   6
  -3   7   0 577.661 21.2290   6
  -3   7   0 589.586 22.0778   3
  -3   7   0 599.220 21.1816   1
   2  -7   0 107.246 4.92716   5
  -2   7   0 111.437 5.50427   6
  -2   7   0 105.914 6.11768   3
  -2   7   0 117.621 5.55735   1
  -2   7   0 112.245 5.49513   6
   1  -7   0 171.284 6.97417   5
  -1   7   0 178.020 7.23893   1
  -1   7   0 158.146 7.07465   6
  -1   7   0 172.396 7.18093   6
  -1   7   0 159.122 8.05667   3
   0  -7   0 160.325 7.11515   5
   0   7   0 171.135 7.05482   6
   0   7   0 166.291 8.27091   3
   0   7   0 175.039 7.21136   6
   0   7   0 178.704 7.15886   1
   1   7   0 18.4681 3.06846   3
   1   7   0 18.5576 1.93787   6
   1   7   0 18.9134 2.10738   6
   1   7   0 19.0125 2.05862   1
  -2  -7   0 53.6907 2.73519   2
   2   7   0 54.9343 4.38723   3
   2   7   0 62.3167 3.36123   1
   2   7   0 54.6993 3.31657   6
  -3  -7   0 9.23592 1.23360   2
   3   7   0 12.1099 2.55880   3
   3   7   0 9.80207 1.66949   6
   3   7   0 8.69372 1.48454   1
  -4  -7   0 18.4118 2.27538   2
   4   7   0 15.8868 2.10341   6
   4   7   0 16.7956 2.06493   1
   5   7   0 1.77746 1.07535   1
   5   7   0 1.60617 1.09765   6
   6   7   0 -0.4029 1.02470   6
   6   7   0 0.36070 0.89511   1
   7   7   0 13.7019 2.34258   1
  -7   8   0 1.08760 1.71559   3
  -7   8   0 0.55483 1.49024   1
  -6   8   0 -0.2500 1.07232   1
  -6   8   0 0.47006 1.56782   3
  -5   8   0 20.1178 3.24235   3
  -5   8   0 35.2989 3.84417   1
  -4   8   0 43.9710 3.66837   6
  -4   8   0 50.1841 3.85349   1
  -4   8   0 43.1844 4.88305   3
  -3   8   0 6.30574 1.63057   1
  -3   8   0 7.63223 2.07233   3
  -3   8   0 9.13951 1.98779   6
  -2   8   0 3.45456 1.78310   3
  -2   8   0 7.15025 1.69128   6
  -2   8   0 6.45708 1.45243   6
  -2   8   0 6.04747 1.47050   1
  -1   8   0 82.1264 5.43769   3
  -1   8   0 87.1621 4.56457   1
  -1   8   0 71.7005 4.28323   6
  -1   8   0 76.7110 4.38962   6
   0   8   0 0.93005 1.34370   3
   0   8   0 -0.4157 0.72287   1
   0   8   0 -0.0404 0.62198   6
   0   8   0 -0.4966 0.63114   6
   1   8   0 4.66508 1.30342   6
   1   8   0 7.25766 2.25218   3
   1   8   0 5.96244 1.28692   6
   1   8   0 7.27537 1.48478   1
   2   8   0 15.1310 2.00667   1
   2   8   0 13.9319 2.08420   6
   2   8   0 15.8007 3.02224   3
   3   8   0 1.04312 0.94118   6
   3   8   0 0.14866 1.45600   3
   3   8   0 0.80787 0.81569   1
   4   8   0 0.84794 0.98835   1
   4   8   0 0.08391 1.60170   3
   4   8   0 0.77995 1.05206   6
   5   8   0 0.38907 0.97534   1
   5   8   0 1.13635 1.09223   6
   6   8   0 9.73289 2.00774   1
  -6   9   0 13.5476 2.83751   1
  -6   9   0 11.4293 2.68443   3
  -5   9   0 6.94435 2.06066   1
  -5   9   0 2.99915 1.98333   3
  -4   9   0 32.2752 3.78273   1
  -4   9   0 24.8531 3.88970   3
  -3   9   0 2.38919 1.40764   1
  -3   9   0 1.62677 1.69539   3
  -3   9   0 1.03818 1.03406   6
  -2   9   0 5.44643 2.27479   3
  -2   9   0 4.24283 1.41838   6
  -2   9   0 5.07226 1.59101   1
  -1   9   0 11.9378 2.06307   6
  -1   9   0 11.7804 2.81717   3
  -1   9   0 11.7972 2.16048   6
  -1   9   0 14.8206 2.27604   1
   0   9   0 -0.3175 0.85538   1
   0   9   0 -0.0254 0.84189   6
   0   9   0 0.16064 0.94892   6
   0   9   0 0.31089 1.63785   3
   1   9   0 21.6217 2.65347   1
   1   9   0 19.3526 2.55228   6
   1   9   0 22.7082 3.83846   3
   2   9   0 60.4978 6.06668   3
   2   9   0 53.0565 3.68085   1
   2   9   0 56.2820 3.93174   6
   3   9   0 3.27893 1.33343   1
   3   9   0 1.16531 1.19117   6
   3   9   0 2.60836 1.89037   3
   4   9   0 63.7715 3.99338   1
   4   9   0 45.6456 3.95313   6
   4   9   0 60.4061 6.52236   3
  -4  10   0 18.6773 3.50002   3
  -4  10   0 23.0957 3.30994   1
  -3  10   0 -0.6077 1.21301   1
  -3  10   0 3.77674 2.25911   3
  -2  10   0 25.5325 4.19287   3
  -2  10   0 17.9852 2.75384   6
  -2  10   0 19.1512 2.84220   1
  -1  10   0 0.98470 1.05636   6
  -1  10   0 3.70347 1.52056   1
  -1  10   0 2.26992 2.10765   3
   0  10   0 0.40073 1.17272   1
   0  10   0 1.61981 1.78428   3
   1  10   0 21.0046 2.80778   1
   1  10   0 17.1356 3.33094   3
   2  10   0 6.90171 1.81359   1
   2  10   0 5.62286 2.47180   3
   3  10  -1 17.7582 3.73110   3
   3  10  -1 19.2742 2.49906   1
   3  10  -1 14.4616 2.33521   6
   2  10  -1 27.9589 4.23169   3
   2  10  -1 26.5127 2.90868   1
   2  10  -1 20.9905 2.73860   6
   1  10  -1 -0.9702 1.66135   3
   1  10  -1 1.36500 0.96511   6
   1  10  -1 -0.1783 1.05060   1
   1  10  -1 0.25097 0.99865   6
   0  10  -1 0.27104 0.96800   1
   0  10  -1 0.37344 0.86000   6
   0  10  -1 1.06510 1.02553   6
   0  10  -1 -0.6017 1.27601   3
  -1  10  -1 19.7451 3.41283   3
  -1  10  -1 23.5131 2.93824   1
  -1  10  -1 21.6065 2.80193   6
  -2  10  -1 1.89414 1.83590   3
  -2  10  -1 1.02610 1.07770   6
  -2  10  -1 0.41066 1.09022   1
  -3  10  -1 -0.0380 1.17152   6
  -3  10  -1 -0.1255 1.55481   3
  -3  10  -1 0.96131 1.29363   1
  -4  10  -1 2.32563 1.54676   1
  -4  10  -1 0.99370 1.73150   3
  -5  10  -1 -2.3535 1.27252   3
  -5  10  -1 -0.7858 1.26733   1
   5   9  -1 8.33646 3.00223   3
   5   9  -1 4.90696 1.58833   6
   5   9  -1 6.79313 1.62869   1
   4   9  -1 3.83437 1.28315   1
   4   9  -1 1.84865 2.00498   3
   4   9  -1 2.27668 1.13234   6
   3   9  -1 -0.3791 0.82327   6
   3   9  -1 0.53389 1.58366   3
   3   9  -1 1.36456 0.97904   1
   2   9  -1 20.6371 2.21770   6
   2   9  -1 21.5828 2.51563   6
   2   9  -1 21.2504 2.40063   1
   2   9  -1 23.6411 3.79723   3
   1   9  -1 8.91103 2.52874   3
   1   9  -1 8.76137 1.69801   6
   1   9  -1 7.93691 1.56065   1
   1   9  -1 6.88938 1.36017   6
   0   9  -1 20.3788 2.47117   1
   0   9  -1 19.2449 3.20275   3
   0   9  -1 17.0569 2.30811   6
   0   9  -1 20.9944 2.39398   6
  -1   9  -1 10.8503 2.61473   3
  -1   9  -1 7.68663 1.59657   6
  -1   9  -1 6.66240 1.63099   1
  -1   9  -1 6.33991 1.51350   6
  -2   9  -1 5.29432 1.62275   6
  -2   9  -1 8.09454 2.12199   3
  -2   9  -1 7.23127 1.82180   6
  -2   9  -1 6.08708 1.58794   1
  -3   9  -1 0.41027 1.14560   1
  -3   9  -1 1.41198 1.08216   6
  -3   9  -1 0.61865 1.29207   3
  -4   9  -1 16.9145 2.65876   1
  -4   9  -1 16.4019 2.68423   6
  -4   9  -1 15.5754 3.25577   3
  -5   9  -1 1.20168 1.33834   1
  -5   9  -1 4.08056 1.90258   3
  -6   9  -1 2.81007 1.63690   1
  -6   9  -1 0.80924 1.63242   3
  -7   9  -1 3.07784 2.06401   3
   6   8  -1 15.6460 2.17645   1
   6   8  -1 15.2202 2.48326   6
   5   8  -1 22.5156 2.64535   6
   5   8  -1 21.6464 2.40611   1
   4   8  -1 0.14787 0.72591   6
   4   8  -1 0.23695 1.45470   3
   4   8  -1 0.04617 0.83682   1
   3   8  -1 -0.6590 1.20323   3
   3   8  -1 1.96289 0.94147   6
   3   8  -1 1.22641 0.74846   1
   2   8  -1 136.897 6.14908   1
   2   8  -1 149.770 6.03641   6
   2   8  -1 144.200 6.23898   6
   2   8  -1 160.301 8.08400   3
   1   8  -1 121.028 6.80246   3
   1   8  -1 109.220 5.06069   6
   1   8  -1 121.896 5.28134   1
   1   8  -1 115.826 5.29273   6
   0   8  -1 24.5003 2.07673   6
   0   8  -1 27.0563 2.46796   1
   0   8  -1 23.7564 3.38809   3
   0   8  -1 22.8177 2.34785   6
   0  -8   1 18.9538 2.37098   5
  -1   8  -1 350.388 14.6956   3
  -1   8  -1 353.747 13.3815   6
  -1   8  -1 379.454 13.4986   1
  -1   8  -1 353.397 13.4096   6
  -2   8  -1 39.7034 2.98850   1
  -2   8  -1 35.5415 2.82787   6
  -2   8  -1 39.1161 4.27907   3
  -2   8  -1 35.8673 2.89147   6
  -3   8  -1 48.6265 3.61103   6
  -3   8  -1 51.8923 4.28297   3
  -3   8  -1 58.6113 3.83999   1
  -4   8  -1 17.2208 2.97733   3
  -4   8  -1 14.8934 2.31005   6
  -4   8  -1 17.7221 2.53660   1
  -5   8  -1 -1.1748 0.98086   3
  -5   8  -1 0.18208 1.10697   1
  -6   8  -1 7.79774 2.47785   3
  -6   8  -1 4.72050 1.78922   1
  -7   8  -1 -2.0525 1.05952   1
  -7   8  -1 -0.0599 1.58408   3
  -8   8  -1 1.73089 1.77128   1
   7   7  -1 50.8462 5.20535   5
   7   7  -1 53.1847 3.68797   1
   7   7  -1 50.2958 3.90393   6
   6   7  -1 0.85786 1.35272   5
   6   7  -1 0.91470 0.90840   6
   6   7  -1 -0.6504 0.82068   1
   5   7  -1 42.9664 2.91575   6
   5   7  -1 45.6186 2.91933   1
  -5  -7   1 41.5043 2.63930   2
   4   7  -1 30.5533 2.19368   6
   4   7  -1 30.2006 2.26173   1
  -4  -7   1 29.4881 1.91680   2
   3   7  -1 1.89494 0.72898   6
   3   7  -1 -0.0316 1.26770   3
   3   7  -1 1.12419 0.68901   1
  -3  -7   1 0.44314 0.45863   2
   2   7  -1 208.326 9.05267   1
   2   7  -1 225.293 8.04622   6
   2   7  -1 219.849 8.33551   1
   2   7  -1 225.493 8.28046   6
   2   7  -1 227.266 10.0934   3
   1   7  -1 0.43559 0.53276   1
   1   7  -1 0.01268 1.15097   3
   1   7  -1 0.41433 0.47548   6
   1   7  -1 0.51930 0.56463   6
   1   7  -1 0.64335 0.43518   4
   1   7  -1 0.35939 0.60901   1
  -1  -7   1 0.36385 0.66528   5
   0   7  -1 74.1903 3.40233   6
   0   7  -1 69.0373 3.39900   6
   0   7  -1 64.9130 4.38266   3
   0   7  -1 66.4097 3.38908   1
   0   7  -1 59.0074 2.70231   4
   0   7  -1 60.0646 3.19550   1
   0  -7   1 65.3279 3.39000   5
  -1   7  -1 5.55688 1.13792   6
  -1   7  -1 6.88430 1.32262   1
  -1   7  -1 6.40081 1.75736   3
  -1   7  -1 5.92927 1.24707   6
  -1   7  -1 4.98428 1.06923   1
   1  -7   1 6.16060 1.03177   5
  -2   7  -1 63.3268 4.47024   3
  -2   7  -1 71.3371 3.91017   6
  -2   7  -1 76.3303 4.03543   6
  -2   7  -1 79.6770 4.07377   1
   2  -7   1 66.4525 3.22638   5
  -3   7  -1 11.9588 2.29480   3
  -3   7  -1 19.2015 2.42576   6
  -3   7  -1 17.8334 2.28447   1
   3  -7   1 17.9465 1.55515   5
  -4   7  -1 113.207 6.28547   3
  -4   7  -1 119.565 5.87681   1
  -4   7  -1 109.307 4.39843   2
  -4   7  -1 104.908 5.71148   6
  -5   7  -1 1.08268 0.73733   2
  -5   7  -1 0.54275 0.89544   6
  -5   7  -1 0.71621 1.21457   3
  -5   7  -1 2.24989 1.22070   1
  -6   7  -1 20.4346 2.92994   1
  -6   7  -1 19.7388 1.99642   2
  -6   7  -1 12.6109 2.74966   3
  -7   7  -1 1.94369 0.98068   2
  -7   7  -1 1.92919 1.56173   3
  -7   7  -1 -0.1710 1.15856   1
  -8   7  -1 -0.7065 0.89933   2
  -8   7  -1 -0.7146 1.35766   1
  -9   7  -1 13.2959 2.29216   2
  -9   7  -1 22.8794 3.71080   1
   8   6  -1 30.9685 3.38797   1
  -8  -6   1 33.2251 3.29687   2
   7   6  -1 20.1395 3.25486   5
   7   6  -1 19.6541 2.66435   6
   7   6  -1 21.0142 2.61791   1
  -7  -6   1 24.2629 2.62775   2
   6   6  -1 0.39351 0.84266   1
   6   6  -1 0.35909 0.79752   6
   6   6  -1 -0.3280 1.06857   5
  -6  -6   1 -0.0502 0.65236   2
   5   6  -1 90.1335 4.42033   6
   5   6  -1 95.7701 4.50966   1
   5   6  -1 95.9814 5.52809   5
   5   6  -1 94.8755 3.83439   4
  -5  -6   1 96.3476 4.43737   2
   4   6  -1 139.656 5.51605   6
   4   6  -1 133.789 5.62114   1
   4   6  -1 139.614 6.74740   5
   4   6  -1 132.288 4.98167   4
  -4  -6   1 142.990 5.56005   2
   3   6  -1 198.828 6.99380   4
   3   6  -1 219.060 8.75469   5
   3   6  -1 205.549 7.61862   1
   3   6  -1 195.024 7.49853   1
  -3  -6   1 211.205 7.38252   2
   2   6  -1 262.767 8.83991   4
   2   6  -1 274.141 9.42896   1
   2   6  -1 245.048 9.29365   1
   2   6  -1 268.288 10.9788   3
  -2  -6   1 271.744 8.91973   2
   1   6  -1 16.0413 1.28307   1
   1   6  -1 18.5516 1.05197   4
   1   6  -1 20.2315 1.45964   1
   1   6  -1 14.7385 2.25282   3
  -1  -6   1 14.7997 1.70113   5
   0   6  -1 376.475 14.1959   3
   0   6  -1 349.350 12.3740   4
   0   6  -1 379.496 12.7997   6
   0   6  -1 380.525 12.8274   6
   0   6  -1 389.693 12.9339   1
   0   6  -1 339.519 12.7302   1
   0  -6   1 367.068 13.0068   5
  -1   6  -1 215.818 7.99824   6
  -1   6  -1 212.779 7.94075   6
  -1   6  -1 217.533 8.97083   3
  -1   6  -1 190.520 7.75556   1
  -1   6  -1 198.383 8.36154   4
  -1   6  -1 210.986 7.99719   1
   1  -6   1 213.174 7.70211   5
  -2   6  -1 138.068 6.64996   3
  -2   6  -1 135.611 5.82683   1
  -2   6  -1 152.449 6.17232   6
  -2   6  -1 142.565 6.00304   6
  -2   6  -1 146.398 6.06844   1
   2  -6   1 137.503 5.38757   1
   2  -6   1 137.415 5.36543   5
  -3   6  -1 102.412 4.93988   6
  -3   6  -1 106.473 4.89957   1
  -3   6  -1 85.7764 4.79937   1
  -3   6  -1 95.2851 5.31394   3
  -3   6  -1 97.8233 3.75454   2
   3  -6   1 95.5430 4.27054   1
  -4   6  -1 1.07521 1.22094   3
  -4   6  -1 1.78554 0.63375   2
  -4   6  -1 0.83788 0.88494   6
  -4   6  -1 0.57258 0.81384   1
   4  -6   1 1.47414 0.82935   1
  -5   6  -1 1.20338 1.03630   1
  -5   6  -1 0.76592 0.85851   6
  -5   6  -1 0.72259 0.64747   2
  -5   6  -1 2.07058 1.39410   3
   5  -6   1 2.00458 1.02245   1
  -6   6  -1 11.0386 1.94360   6
  -6   6  -1 19.7314 3.14409   3
  -6   6  -1 11.0810 2.12794   1
  -6   6  -1 11.1351 1.59632   2
   6  -6   1 10.7546 1.94326   1
  -7   6  -1 -0.3296 0.80502   2
  -7   6  -1 0.54620 1.13446   1
   7  -6   1 0.60502 1.15003   1
  -8   6  -1 55.9890 4.58319   1
  -8   6  -1 53.8627 3.70283   2
   8  -6   1 52.4776 4.82498   1
  -9   6  -1 2.03060 1.70792   1
  -9   6  -1 2.29158 1.26871   2
   9   5  -1 24.4678 3.15754   1
  -9  -5   1 22.2600 2.99077   2
   8   5  -1 0.82126 1.05304   1
   8   5  -1 1.91622 1.01731   4
   8   5  -1 1.84327 1.22394   6
   8   5  -1 1.70391 1.51536   5
  -8  -5   1 0.59783 1.10356   2
   7   5  -1 35.0972 2.89766   1
   7   5  -1 30.5214 3.31386   6
   7   5  -1 41.9063 4.31937   5
   7   5  -1 35.6914 2.42995   4
  -7  -5   1 44.8728 3.12754   2
   6   5  -1 39.9523 2.76390   1
   6   5  -1 36.6972 2.31262   4
   6   5  -1 38.2803 3.93098   5
   6   5  -1 41.4342 2.85332   6
  -6  -5   1 44.0246 2.92469   2
   5   5  -1 71.3876 3.24504   4
   5   5  -1 65.9272 4.62296   1
   5   5  -1 78.6177 3.74949   1
   5   5  -1 71.5984 4.50314   5
   5   5  -1 72.7977 3.62283   6
  -5  -5   1 80.9063 3.81708   2
   4   5  -1 30.2020 2.96855   5
   4   5  -1 29.5413 1.83241   1
   4   5  -1 29.5476 1.62970   4
   4   5  -1 27.8426 1.87469   1
  -4  -5   1 27.6299 1.89321   2
   3   5  -1 533.402 17.6694   1
   3   5  -1 491.902 17.5191   1
   3   5  -1 531.620 18.7036   5
   3   5  -1 520.273 17.2902   4
  -3  -5   1 548.500 17.6777   2
   2   5  -1 1.08981 0.45130   1
   2   5  -1 0.67491 0.41942   1
   2   5  -1 0.86909 0.31800   4
   2   5  -1 1.11820 0.63443   5
  -2  -5   1 -0.0595 0.27813   2
   1   5  -1 79.9421 4.30982   3
   1   5  -1 79.7852 3.20888   1
   1   5  -1 81.9159 3.27261   1
  -1  -5   1 81.2968 3.70952   5
   0   5  -1 15.2438 1.07404   6
   0   5  -1 16.0487 1.20442   1
   0   5  -1 15.9110 1.04935   6
   0   5  -1 15.1880 1.10395   1
   0   5  -1 16.1998 1.02359   4
   0   5  -1 11.7450 1.75547   3
   0  -5   1 15.3144 1.23375   5
  -1   5  -1 599.330 19.0685   1
  -1   5  -1 536.432 18.8663   1
  -1   5  -1 547.890 18.9143   6
  -1   5  -1 569.149 19.8616   3
  -1   5  -1 568.340 18.9934   6
  -1   5  -1 538.377 18.6353   4
   1  -5   1 551.276 18.4193   1
   1  -5   1 582.774 18.7619   5
  -2   5  -1 398.489 13.2001   2
  -2   5  -1 411.208 14.1669   1
  -2   5  -1 378.889 13.9739   1
  -2   5  -1 413.198 14.8315   3
  -2   5  -1 404.303 14.2057   6
  -3   5  -1 291.540 10.0032   2
  -3   5  -1 292.994 11.3937   3
  -3   5  -1 274.251 10.6858   1
  -3   5  -1 300.074 10.9323   1
  -3   5  -1 288.537 11.0298   6
   3  -5   1 284.587 10.4046   6
   3  -5   1 298.610 10.2981   6
   3  -5   1 293.974 10.5553   1
  -4   5  -1 26.8916 2.61610   1
  -4   5  -1 28.3797 2.37313   6
  -4   5  -1 25.7740 1.68572   2
  -4   5  -1 25.9408 2.88577   3
   4  -5   1 23.5384 2.04394   6
   4  -5   1 29.4104 2.16138   1
   4  -5   1 25.2602 1.96400   6
  -5   5  -1 52.0056 3.50490   1
  -5   5  -1 51.4916 2.84934   2
  -5   5  -1 51.0010 3.49003   6
  -5   5  -1 52.7139 3.77450   3
   5  -5   1 46.3908 3.33314   6
   5  -5   1 49.6719 3.18213   6
   5  -5   1 57.8430 3.39646   1
   5  -5   1 58.1406 3.32428   4
  -6   5  -1 8.41920 1.77977   6
  -6   5  -1 7.04835 1.68306   1
  -6   5  -1 6.55618 1.86079   3
  -6   5  -1 7.42355 1.31116   2
   6  -5   1 6.24442 2.09000   6
   6  -5   1 8.70213 1.64057   4
   6  -5   1 7.40088 1.64675   1
  -7   5  -1 30.7626 2.82901   2
  -7   5  -1 23.3733 3.01242   1
   7  -5   1 24.3364 2.76312   4
   7  -5   1 31.5050 3.36998   1
  -8   5  -1 36.3282 3.42702   2
  -8   5  -1 36.2932 3.92695   1
   8  -5   1 40.7881 3.84394   4
   8  -5   1 37.1059 3.85292   1
   8  -5   1 33.5195 2.65018   5
  -9   5  -1 5.80238 2.02844   1
  -9   5  -1 7.60693 1.79761   2
   9  -5   1 6.39888 1.85841   4
   9  -5   1 8.34705 2.12297   1
 -10   5  -1 4.69198 2.28824   1
 -10   5  -1 8.12807 2.14681   2
  10  -5   1 2.55717 1.76037   1
  10  -5   1 6.29053 1.98967   4
   9   4  -1 16.2579 2.24755   4
   9   4  -1 14.4090 2.80415   5
   9   4  -1 18.9636 2.76511   1
  -9  -4   1 21.8843 2.82373   2
   8   4  -1 13.9648 2.23657   1
   8   4  -1 13.7692 1.87813   4
   8   4  -1 14.7723 2.40094   6
   8   4  -1 12.0306 2.37561   5
  -8  -4   1 11.2127 2.06915   2
   7   4  -1 118.812 5.11078   4
   7   4  -1 109.655 5.52456   1
   7   4  -1 104.213 6.17929   5
   7   4  -1 109.973 5.65922   6
  -7  -4   1 111.366 5.56051   2
   6   4  -1 223.845 8.45494   4
   6   4  -1 220.814 8.86765   1
   6   4  -1 228.939 9.91959   5
   6   4  -1 221.383 8.97227   6
  -6  -4   1 234.994 9.07150   2
   5   4  -1 42.2694 2.47893   6
   5   4  -1 39.9121 3.10320   5
   5   4  -1 44.3708 2.31994   4
   5   4  -1 42.8859 2.60047   1
   5   4  -1 44.3489 2.52582   1
  -5  -4   1 49.6442 2.78981   2
   4   4  -1 423.154 15.0109   5
   4   4  -1 385.834 13.6449   4
   4   4  -1 403.221 13.9429   1
   4   4  -1 416.935 13.6710   6
   4   4  -1 388.432 13.8291   1
  -4  -4   1 407.789 14.0927   2
   3   4  -1 153.139 5.69750   1
   3   4  -1 155.444 5.73874   1
   3   4  -1 155.286 5.60109   4
   3   4  -1 159.984 6.63261   5
  -3  -4   1 164.428 5.93026   2
   2   4  -1 25.0974 1.82643   5
   2   4  -1 24.9344 1.18664   4
   2   4  -1 22.8074 1.20852   1
   2   4  -1 22.2497 1.17458   1
  -2  -4   1 23.8979 1.29303   2
   1   4  -1 14.4445 1.39495   5
   1   4  -1 17.5799 1.92370   3
   1   4  -1 15.7579 0.91771   1
   1   4  -1 15.1779 0.88455   1
  -1  -4   1 16.8006 0.78915   2
  -1  -4   1 15.8413 1.27023   5
   0   4  -1 113.382 4.21492   1
   0   4  -1 111.367 4.15778   1
   0   4  -1 114.109 5.02832   3
   0  -4   1 116.905 4.38673   5
  -1   4  -1 535.748 18.4197   6
  -1   4  -1 535.813 18.3734   1
  -1   4  -1 573.302 18.3894   6
  -1   4  -1 510.323 18.1917   4
  -1   4  -1 567.108 19.1321   3
  -1   4  -1 556.643 18.4312   1
   1  -4   1 560.399 18.1579   5
   1  -4   1 567.824 18.1157   1
   1  -4   1 552.515 19.1378   3
  -2   4  -1 89.8622 4.31642   3
  -2   4  -1 92.1404 3.87135   1
  -2   4  -1 89.6719 3.94424   6
  -2   4  -1 87.5890 3.27736   2
  -2   4  -1 79.4864 3.69219   1
   2  -4   1 84.0800 3.39294   6
   2  -4   1 89.9422 3.65420   1
   2  -4   1 85.7143 4.24638   3
   2  -4   1 91.1912 3.48680   6
  -3   4  -1 159.216 5.81309   2
  -3   4  -1 163.015 6.41982   1
  -3   4  -1 151.738 6.30212   1
  -3   4  -1 157.620 6.73091   3
  -3   4  -1 155.906 6.49623   6
   3  -4   1 153.055 6.18584   1
   3  -4   1 161.685 6.33551   6
   3  -4   1 162.157 6.14223   6
  -4   4  -1 138.936 6.31758   3
  -4   4  -1 138.399 5.96207   1
  -4   4  -1 139.354 6.14247   6
  -4   4  -1 131.754 5.35586   2
   4  -4   1 139.525 5.72486   4
   4  -4   1 132.399 5.94362   6
   4  -4   1 136.117 5.76980   1
  -5   4  -1 163.460 7.69213   3
  -5   4  -1 189.019 7.72081   1
  -5   4  -1 171.529 7.70002   6
  -5   4  -1 179.164 7.04173   2
   5  -4   1 185.413 7.52562   1
   5  -4   1 184.617 7.35128   4
   5  -4   1 180.895 7.78231   6
  -6   4  -1 -0.3755 0.73263   2
  -6   4  -1 0.34726 0.78290   1
  -6   4  -1 1.55824 1.06183   6
   6  -4   1 -0.0292 0.73694   4
   6  -4   1 2.06725 1.04198   6
   6  -4   1 -0.1254 0.80819   1
  -7   4  -1 184.764 9.67146   6
  -7   4  -1 197.455 8.40091   2
  -7   4  -1 214.647 9.17251   1
   7  -4   1 208.359 8.25592   5
   7  -4   1 214.815 8.93806   1
   7  -4   1 201.358 8.60798   4
   7  -4   1 201.392 9.29244   6
  -8   4  -1 19.9245 2.54334   2
  -8   4  -1 22.7557 3.01344   1
   8  -4   1 22.7165 2.50710   5
   8  -4   1 23.7501 3.07669   1
   8  -4   1 23.2504 2.70958   4
  -9   4  -1 0.96907 1.27392   1
  -9   4  -1 -0.1691 1.15352   2
   9  -4   1 0.28444 0.95504   5
   9  -4   1 -0.0426 1.06856   4
   9  -4   1 0.34837 1.09993   1
 -10   4  -1 5.35169 1.71206   2
 -10   4  -1 1.12027 1.57783   1
  10  -4   1 4.50110 1.71705   4
  10  -4   1 7.36026 2.15198   1
  10   3  -1 22.9052 3.31523   1
  10   3  -1 13.9245 2.36048   4
 -10  -3   1 19.7689 2.98679   2
   9   3  -1 18.5747 2.82724   1
   9   3  -1 13.2710 2.76801   5
   9   3  -1 15.7440 2.23946   4
  -9  -3   1 17.4812 2.55331   2
   8   3  -1 113.349 6.41858   5
   8   3  -1 100.753 5.83542   6
   8   3  -1 113.989 5.27713   4
   8   3  -1 107.778 5.67213   1
  -8  -3   1 104.502 5.67044   2
   7   3  -1 59.9806 3.70832   1
   7   3  -1 63.5617 3.90678   6
   7   3  -1 59.1702 4.14963   5
   7   3  -1 51.0125 3.19858   4
  -7  -3   1 57.8944 3.63338   2
   6   3  -1 3.85231 1.23942   5
   6   3  -1 5.33589 1.04637   4
   6   3  -1 3.42422 1.05450   1
   6   3  -1 4.20368 1.09640   6
   6   3  -1 3.77825 1.04566   1
   6   3  -1 2.73461 1.00510   1
  -6  -3   1 3.85546 1.13590   2
  -6  -3   1 2.89346 0.67030   1
   5   3  -1 106.485 4.66711   1
   5   3  -1 116.044 5.46126   5
   5   3  -1 99.5796 4.57700   1
   5   3  -1 111.532 4.64814   6
   5   3  -1 105.941 4.43185   4
  -5  -3   1 112.777 4.83393   2
  -5  -3   1 102.218 3.90939   1
   4   3  -1 565.886 18.4630   6
   4   3  -1 536.866 18.4727   4
   4   3  -1 562.338 18.6930   1
   4   3  -1 526.841 18.5720   1
   4   3  -1 558.944 19.5016   5
  -4  -3   1 568.416 18.8513   2
   3   3  -1 19.9366 1.17906   1
   3   3  -1 15.2701 1.64870   5
   3   3  -1 18.6293 1.26754   2
   3   3  -1 17.3695 1.12507   1
   3   3  -1 16.4592 1.08335   4
  -3  -3   1 16.8020 1.26264   2
   2   3  -1 499.211 16.9731   5
   2   3  -1 505.619 16.1691   1
   2   3  -1 502.445 16.2872   4
   2   3  -1 474.598 16.1467   1
   2   3  -1 485.706 16.3956   2
  -2  -3   1 509.341 16.4362   2
   1   3  -1 210.510 7.33354   2
   1   3  -1 231.501 7.90795   5
  -1  -3   1 222.300 7.34857   2
   0   3  -1 1976.82 62.9833   3
   0   3  -1 1935.73 62.2205   1
   0   3  -1 1853.24 62.4136   1
   0  -3   1 1993.70 62.4137   5
  -1   3  -1 1553.05 48.8321   6
  -1   3  -1 1588.92 48.7415   6
  -1   3  -1 1440.99 48.6825   4
  -1   3  -1 1557.45 48.8154   1
  -1   3  -1 1522.03 48.3716   2
  -1   3  -1 1529.61 49.2796   3
  -1   3  -1 1477.15 48.7430   1
   1  -3   1 1468.46 49.2590   3
   1  -3   1 1496.58 48.6382   1
   1  -3   1 1450.67 48.6109   1
  -2   3  -1 50.0762 2.40614   4
  -2   3  -1 54.6137 2.72513   6
  -2   3  -1 57.9368 2.66619   1
  -2   3  -1 54.4128 2.24944   2
  -2   3  -1 54.3060 2.55754   1
  -2   3  -1 51.2585 2.78460   3
   2  -3   1 56.7382 2.89334   3
   2  -3   1 54.6242 2.50681   1
   2  -3   1 55.5774 2.45773   6
   2  -3   1 59.1094 2.61312   6
  -3   3  -1 66.3998 3.23771   1
  -3   3  -1 67.0497 3.33933   6
  -3   3  -1 66.2800 2.84788   2
  -3   3  -1 62.7862 3.12195   1
  -3   3  -1 68.4521 3.44543   3
   3  -3   1 67.3909 3.47633   3
   3  -3   1 66.1028 3.06837   4
   3  -3   1 62.4476 3.06659   1
   3  -3   1 62.5713 2.81703   2
   3  -3   1 64.5293 3.25179   6
  -4   3  -1 416.213 14.6286   1
  -4   3  -1 410.440 14.8263   6
  -4   3  -1 399.970 14.1327   2
  -4   3  -1 410.796 14.8267   3
   4  -3   1 422.537 14.3703   4
   4  -3   1 425.200 14.8789   6
   4  -3   1 385.261 14.0783   2
   4  -3   1 404.397 14.4987   1
  -5   3  -1 653.145 22.4133   1
  -5   3  -1 632.193 21.9139   2
  -5   3  -1 628.404 22.5542   6
   5  -3   1 625.217 22.6738   6
   5  -3   1 661.365 22.1151   4
   5  -3   1 661.127 22.3324   1
  -6   3  -1 11.3332 1.63876   2
  -6   3  -1 11.9504 1.90635   1
  -6   3  -1 9.75921 1.60680   6
   6  -3   1 12.4107 1.70194   4
   6  -3   1 10.9080 1.83891   1
   6  -3   1 13.3187 2.11260   6
  -7   3  -1 756.229 26.1461   1
  -7   3  -1 721.584 25.5589   2
  -7   3  -1 726.173 26.1440   6
   7  -3   1 754.221 26.0488   1
   7  -3   1 728.559 25.4686   5
   7  -3   1 762.413 25.7340   4
   7  -3   1 714.626 26.5077   6
  -8   3  -1 5.26631 1.59164   1
  -8   3  -1 3.51421 1.29818   2
   8  -3   1 3.97269 1.62441   1
   8  -3   1 3.53457 1.34553   4
   8  -3   1 5.21535 1.39236   5
  -9   3  -1 9.33749 2.14803   1
  -9   3  -1 11.4895 2.24205   2
   9  -3   1 8.65932 2.11753   1
   9  -3   1 11.0206 2.22820   4
   9  -3   1 8.89232 1.88031   5
 -10   3  -1 90.7328 5.62771   2
 -10   3  -1 87.5572 5.85633   1
  10  -3   1 84.4464 5.77634   1
  10  -3   1 94.7747 5.60550   4
  10  -3   1 84.7728 5.33397   5
  10   2  -1 43.3792 4.45511   1
  10   2  -1 40.7048 5.22701   5
  10   2  -1 48.6898 4.12545   4
 -10  -2   1 45.2484 4.55364   2
   9   2  -1 9.82853 1.82611   4
   9   2  -1 10.9219 2.16606   1
   9   2  -1 7.38323 2.09588   5
  -9  -2   1 10.1820 2.01060   2
   8   2  -1 32.8096 3.27629   1
   8   2  -1 26.8972 3.29184   5
   8   2  -1 31.1699 2.94816   4
   8   2  -1 34.0752 3.75453   6
  -8  -2   1 30.5684 3.20523   2
   7   2  -1 95.0471 4.64682   4
   7   2  -1 98.2189 5.01953   1
   7   2  -1 92.5795 5.41887   5
   7   2  -1 103.542 5.27450   6
  -7  -2   1 97.9562 4.99352   2
   6   2  -1 74.7648 4.26181   5
   6   2  -1 72.5428 3.77300   1
   6   2  -1 66.4768 3.74983   6
   6   2  -1 65.6556 3.64728   1
   6   2  -1 72.8144 3.51562   4
  -6  -2   1 67.4796 3.73238   2
   5   2  -1 1.78580 0.87298   5
   5   2  -1 3.03687 0.80468   1
   5   2  -1 3.12522 0.80588   6
   5   2  -1 3.37337 0.86028   1
   5   2  -1 4.34114 0.85564   4
  -5  -2   1 3.83419 0.73824   1
  -5  -2   1 2.62862 0.89202   2
   4   2  -1 12.6150 1.29809   1
   4   2  -1 13.1488 1.12715   6
   4   2  -1 11.3879 1.54638   5
   4   2  -1 11.6826 1.26722   1
   4   2  -1 14.6626 1.33897   4
  -4  -2   1 12.0074 1.08298   1
  -4  -2   1 13.0930 1.44145   2
   3   2  -1 3.94604 0.89027   5
   3   2  -1 3.06913 0.44180   6
   3   2  -1 2.31165 0.50458   4
   3   2  -1 3.46345 0.60594   1
   3   2  -1 2.47185 0.60473   2
   3   2  -1 2.03550 0.49013   1
  -3  -2   1 3.00541 0.57640   4
  -3  -2   1 2.53977 0.38633   1
  -3  -2   1 2.92037 0.63838   2
  -3  -2   1 3.23348 0.44089   1
   2   2  -1 306.122 9.96183   1
   2   2  -1 291.865 9.92233   1
   2   2  -1 295.877 10.0573   4
   2   2  -1 316.231 10.6106   5
   2   2  -1 287.047 10.1610   2
  -2  -2   1 306.026 10.2052   2
  -2  -2   1 303.845 10.0484   4
   1   2  -1 291.027 9.71841   2
   1   2  -1 296.013 10.0354   5
  -1  -2   1 296.665 9.72122   2
   0   2  -1 1059.90 33.1108   3
   0   2  -1 987.694 32.6178   1
   0   2  -1 1051.58 32.7574   5
   0  -2   1 967.365 33.0483   3
  -1   2  -1 1.44740 0.44547   1
  -1   2  -1 1.15922 0.58935   3
  -1   2  -1 2.96803 0.42187   2
  -1   2  -1 1.52579 0.45143   1
  -1   2  -1 1.79612 0.45727   4
  -1   2  -1 2.03064 0.50953   6
   1  -2   1 2.83656 0.47437   1
   1  -2   1 2.89507 0.43123   6
   1  -2   1 2.40928 0.45408   6
   1  -2   1 2.67533 0.67948   3
  -2   2  -1 323.834 11.3441   1
  -2   2  -1 338.109 11.5431   6
  -2   2  -1 327.449 11.3305   1
  -2   2  -1 333.474 11.5367   3
  -2   2  -1 333.684 11.1044   2
  -2   2  -1 325.347 11.2097   4
   2  -2   1 339.110 11.5649   3
   2  -2   1 325.305 11.3055   1
   2  -2   1 328.175 11.2384   4
   2  -2   1 319.975 11.2953   1
   2  -2   1 338.845 11.4854   6
   2  -2   1 328.458 11.2870   1
  -3   2  -1 65.2476 2.79975   2
  -3   2  -1 64.7243 3.18474   6
  -3   2  -1 57.7954 2.94130   1
   3  -2   1 56.6025 2.71609   2
   3  -2   1 60.2382 2.96339   1
   3  -2   1 65.7848 3.17955   3
   3  -2   1 64.9854 3.23297   6
   3  -2   1 65.7816 2.91010   4
  -4   2  -1 153.794 6.20757   1
  -4   2  -1 148.096 6.30867   6
  -4   2  -1 148.428 5.89587   2
   4  -2   1 161.389 6.02726   4
   4  -2   1 152.465 6.39531   3
   4  -2   1 144.706 6.09328   1
   4  -2   1 158.054 6.48035   6
   4  -2   1 147.290 5.87865   2
  -5   2  -1 6.62696 1.29753   1
  -5   2  -1 4.08730 1.11211   6
  -5   2  -1 4.00116 1.00211   2
   5  -2   1 5.30540 1.21426   1
   5  -2   1 4.25665 0.93592   4
   5  -2   1 5.24812 1.02185   5
   5  -2   1 5.10708 1.20778   6
  -6   2  -1 18.1415 1.99698   2
  -6   2  -1 18.4369 2.34195   6
  -6   2  -1 20.9990 2.33968   1
   6  -2   1 16.3733 2.22491   6
   6  -2   1 19.0414 2.02350   5
   6  -2   1 16.8416 1.95005   4
   6  -2   1 17.4989 2.24753   1
  -7   2  -1 0.25183 0.80277   6
  -7   2  -1 1.50157 1.09181   1
  -7   2  -1 -0.0067 0.79840   2
   7  -2   1 0.25390 0.89710   1
   7  -2   1 0.39492 0.74365   5
   7  -2   1 1.79824 1.01362   4
   7  -2   1 1.67625 1.14223   6
  -8   2  -1 58.6262 3.95101   2
  -8   2  -1 64.6631 4.31645   1
   8  -2   1 65.2733 4.10054   5
   8  -2   1 71.9187 4.14526   4
   8  -2   1 67.2174 4.39723   1
  -9   2  -1 2.64867 1.43072   2
  -9   2  -1 4.02692 1.65002   1
   9  -2   1 5.77280 1.86310   1
   9  -2   1 5.52175 1.59608   5
   9  -2   1 6.49581 1.76536   4
 -10   2  -1 4.83661 1.69996   2
  10  -2   1 8.31032 2.19633   1
  10  -2   1 4.80395 1.83477   5
  10  -2   1 11.3505 2.35838   4
  11  -2   1 -0.5774 1.28030   4
  11  -2   1 0.31840 1.33364   5
  10   1  -1 38.4636 4.49956   5
  10   1  -1 46.4094 4.58770   1
  10   1  -1 42.9032 4.01384   4
 -10  -1   1 42.7926 4.22397   2
   9   1  -1 154.422 7.49604   1
   9   1  -1 142.973 6.87931   4
   9   1  -1 144.865 7.71145   5
  -9  -1   1 151.516 7.31804   2
   8   1  -1 11.9650 2.06726   1
   8   1  -1 10.9919 1.78674   4
   8   1  -1 11.9753 2.27745   6
   8   1  -1 11.8846 2.21440   5
  -8  -1   1 13.7057 2.04867   2
   7   1  -1 217.447 8.98886   1
   7   1  -1 213.448 9.25629   6
   7   1  -1 220.731 8.69800   4
   7   1  -1 225.223 9.49488   5
  -7  -1   1 226.376 9.04489   2
  -7  -1   1 209.471 8.61927   1
   6   1  -1 62.3380 3.66003   6
   6   1  -1 66.7478 3.61415   1
   6   1  -1 73.5065 3.52156   4
   6   1  -1 66.2539 3.91467   5
  -6  -1   1 62.4175 3.36940   1
  -6  -1   1 69.3881 3.67699   2
   5   1  -1 6.91189 1.18708   1
   5   1  -1 13.1449 1.71176   6
   5   1  -1 11.0592 1.43503   1
   5   1  -1 10.0131 1.22298   4
  -5  -1   1 12.8731 1.58323   2
  -5  -1   1 9.64468 1.23163   1
   4   1  -1 309.140 11.0960   1
   4   1  -1 330.523 11.1598   6
   4   1  -1 295.439 11.0398   1
   4   1  -1 324.946 11.0030   4
  -4  -1   1 314.623 10.9516   1
  -4  -1   1 309.296 11.1305   2
   3   1  -1 4.60035 0.69407   6
   3   1  -1 3.56843 0.66632   4
   3   1  -1 3.86666 0.68068   1
   3   1  -1 4.14775 0.69388   1
   3   1  -1 3.67334 0.73653   2
  -3  -1   1 3.88636 0.74378   2
  -3  -1   1 3.54448 0.62078   4
   2   1  -1 4719.47 154.567   1
   2   1  -1 4968.54 155.180   1
   2   1  -1 4755.30 154.224   2
   2   1  -1 4890.94 155.212   4
  -2  -1   1 4773.19 154.138   1
  -2  -1   1 4966.96 155.395   2
  -2  -1   1 4878.91 154.291   4
  -2  -1   1 4380.67 154.206   1
   1   1  -1 -11.844 0.34082   4
   1   1  -1 -11.834 0.34187   2
  -1  -1   1 -14.420 0.14670   2
   0   1  -1 -14.752 0.08208   3
   0   1  -1 -14.663 0.05060   1
   0   1  -1 -14.623 0.05180   1
   0  -1   1 -14.607 0.08999   3
  -1   1  -1 1462.97 44.2405   3
  -1   1  -1 1135.02 43.5128   1
   1  -1   1 1419.61 43.8408   5
   1  -1   1 1400.82 43.5591   1
  -2   1  -1 99.8520 3.76740   2
  -2   1  -1 98.3132 3.89084   1
  -2   1  -1 101.057 4.05373   6
  -2   1  -1 97.1870 3.75086   4
   2  -1   1 100.618 3.87878   1
   2  -1   1 99.0300 3.88879   1
   2  -1   1 99.0565 3.78493   4
   2  -1   1 101.757 3.71776   5
   2  -1   1 103.117 4.07897   6
  -3   1  -1 692.266 22.5634   2
  -3   1  -1 663.776 22.6897   1
  -3   1  -1 672.926 22.4855   4
  -3   1  -1 675.052 22.7069   1
  -3   1  -1 707.637 22.9166   6
   3  -1   1 668.229 22.6738   1
   3  -1   1 697.550 22.5451   5
   3  -1   1 687.259 22.5191   4
   3  -1   1 667.493 22.6932   1
   3  -1   1 661.449 22.6784   1
  -4   1  -1 370.119 12.8726   2
  -4   1  -1 348.246 12.9938   1
  -4   1  -1 364.712 13.1787   6
   4  -1   1 385.724 13.0878   1
   4  -1   1 370.540 12.8233   4
   4  -1   1 366.273 12.8886   5
  -5   1  -1 331.874 11.9502   2
  -5   1  -1 332.668 12.1133   1
  -5   1  -1 316.872 12.1125   6
   5  -1   1 336.078 11.8662   4
   5  -1   1 330.968 12.1257   1
   5  -1   1 328.415 12.0041   5
  -6   1  -1 307.607 11.5779   6
  -6   1  -1 295.875 11.4927   1
  -6   1  -1 310.278 11.4339   2
   6  -1   1 314.856 11.5957   5
   6  -1   1 302.816 11.6271   1
   6  -1   1 290.066 11.2223   4
  -7   1  -1 0.78418 0.91720   1
  -7   1  -1 2.51765 0.96600   6
  -7   1  -1 1.93557 1.01721   2
   7  -1   1 1.86607 1.07520   4
   7  -1   1 3.38450 1.11709   5
   7  -1   1 1.89296 1.00980   1
   7  -1   1 -0.0510 0.44970   6
  -8   1  -1 -0.0583 0.89416   6
  -8   1  -1 0.50908 0.87412   2
  -8   1  -1 0.17754 0.92999   1
   8  -1   1 2.94330 1.21492   5
   8  -1   1 2.89515 1.36885   1
   8  -1   1 1.38779 1.09463   4
  -9   1  -1 255.312 10.9673   2
  -9   1  -1 258.639 11.1059   1
   9  -1   1 239.493 11.0590   5
   9  -1   1 275.763 11.4708   1
   9  -1   1 276.148 10.8708   4
 -10   1  -1 32.6618 3.74306   2
  10  -1   1 44.3118 4.62826   1
  10  -1   1 27.6154 3.55129   5
  10  -1   1 35.9003 3.63579   4
 -11   1  -1 104.624 6.41708   2
  11  -1   1 102.442 6.02873   4
  11  -1   1 106.305 6.86708   1
  11  -1   1 87.2841 6.71599   5
  11   0  -1 68.3185 5.27467   1
  11   0  -1 59.9348 5.24038   4
 -11   0   1 68.5370 5.84771   2
  10   0  -1 147.896 7.84622   1
  10   0  -1 144.566 7.90581   5
  10   0  -1 147.214 7.32762   4
 -10   0   1 147.406 7.51293   2
   9   0  -1 3.48894 1.51162   4
   9   0  -1 5.71838 1.71484   1
   9   0  -1 4.67421 1.60250   5
  -9   0   1 6.47486 1.77823   2
   8   0  -1 0.65522 0.90126   5
   8   0  -1 1.22020 1.02443   4
   8   0  -1 1.24356 1.02078   1
   8   0  -1 0.08816 1.01643   6
  -8   0   1 1.02162 1.01335   1
  -8   0   1 -0.0762 0.76864   2
   7   0  -1 274.587 10.3659   4
   7   0  -1 271.839 10.6928   1
   7   0  -1 276.121 11.0311   6
  -7   0   1 267.305 10.4560   1
  -7   0   1 256.404 10.4669   2
  -7   0   1 253.059 10.5808   6
   6   0  -1 2.84303 0.95823   4
   6   0  -1 4.99352 1.19188   1
   6   0  -1 2.01495 0.76864   6
  -6   0   1 4.09081 0.86106   6
  -6   0   1 2.96319 0.93331   2
  -6   0   1 2.16731 0.81556   1
   5   0  -1 36.8174 2.18855   4
   5   0  -1 34.7389 2.29725   1
   5   0  -1 33.2825 2.35380   6
  -5   0   1 35.0963 2.05461   6
  -5   0   1 31.2702 2.16783   1
  -5   0   1 36.2512 2.28520   2
   4   0  -1 80.4616 3.86659   2
   4   0  -1 86.5382 3.82475   6
   4   0  -1 79.3596 3.67047   1
   4   0  -1 78.1812 3.63518   1
   4   0  -1 84.0624 3.57825   4
  -4   0   1 85.7043 3.54136   6
  -4   0   1 78.8560 3.61897   1
  -4   0   1 80.0594 3.62206   2
   3   0  -1 24.3078 1.50593   1
   3   0  -1 24.2470 1.50154   2
   3   0  -1 24.9101 1.56397   1
   3   0  -1 22.5983 1.44426   4
   3   0  -1 26.5647 1.58487   6
  -3   0   1 24.7336 1.40523   4
  -3   0   1 26.1582 1.46075   6
  -3   0   1 22.5350 1.47742   1
  -3   0   1 25.4844 1.55565   2
   2   0  -1 -0.3674 0.29527   4
   2   0  -1 0.72581 0.35558   1
   2   0  -1 0.85820 0.40719   6
   2   0  -1 0.40549 0.36310   1
   2   0  -1 0.30967 0.36142   2
  -2   0   1 -0.0388 0.27694   2
  -2   0   1 0.03803 0.28342   4
  -2   0   1 -0.2226 0.28034   6
  -2   0   1 0.22852 0.33235   1
  -2   0   1 0.85523 0.38713   1
   0   0  -1 -0.5883 0.07086   6
   0   0  -1 -0.5046 0.05975   1
   0   0  -1 -0.4548 0.09583   1
   0   0   1 -0.5276 0.06545   6
   0   0   1 -0.5021 0.09088   1
   0   0   1 -0.5355 0.07060   1
  -2   0  -1 950.029 31.7493   1
  -2   0  -1 999.083 31.9102   6
  -2   0  -1 968.730 31.5539   4
  -2   0  -1 1010.84 31.8148   5
  -2   0  -1 941.067 31.7293   1
  -2   0  -1 1005.48 31.7322   2
  -2   0  -1 958.117 31.7609   1
   2   0   1 914.588 31.7299   1
   2   0   1 993.100 31.9678   6
   2   0   1 992.813 31.8151   5
   2   0   1 960.268 31.7698   1
   2   0   1 961.877 31.5545   4
  -3   0  -1 286.888 10.2638   6
  -3   0  -1 280.275 9.93000   4
  -3   0  -1 312.642 10.1946   2
  -3   0  -1 304.806 10.2384   1
   3   0   1 281.590 10.2090   1
   3   0   1 300.301 10.3001   5
   3   0   1 291.812 9.98709   4
   3   0   1 287.493 10.4367   6
   3   0   1 264.639 10.1196   1
  -4   0  -1 30.1767 1.95845   6
  -4   0  -1 31.6537 1.95953   2
  -4   0  -1 27.5796 1.90274   1
   4   0   1 28.8610 1.92329   1
   4   0   1 28.5056 1.92819   1
   4   0   1 31.7707 2.06738   1
   4   0   1 31.7861 2.08933   5
   4   0   1 35.4331 1.94037   4
   4   0   1 30.6097 2.18730   6
  -5   0  -1 -0.0173 0.46271   2
  -5   0  -1 0.05717 0.40894   6
  -5   0  -1 -0.0780 0.52012   1
   5   0   1 0.07511 0.59737   1
   5   0   1 0.56299 0.58168   4
   5   0   1 -0.1204 0.47425   6
   5   0   1 0.94513 0.73304   5
  -6   0  -1 112.331 5.01630   6
  -6   0  -1 108.962 5.10339   1
   6   0   1 107.948 4.91589   4
   6   0   1 109.230 5.56344   6
   6   0   1 112.375 5.36622   5
   6   0   1 108.914 5.27120   1
  -7   0  -1 0.43710 0.75702   2
  -7   0  -1 1.52378 0.82527   1
  -7   0  -1 1.03485 0.79556   6
   7   0   1 0.80133 0.99249   1
   7   0   1 -1.1867 0.75177   4
   7   0   1 -0.2498 0.82543   6
   7   0   1 2.50107 1.10968   5
  -8   0  -1 217.295 9.26886   2
  -8   0  -1 216.030 9.16639   1
   8   0   1 212.350 8.88372   4
   8   0   1 221.435 9.54798   1
   8   0   1 217.914 9.61596   5
  -9   0  -1 9.67584 1.98999   2
   9   0   1 7.66291 1.97247   1
   9   0   1 8.43921 1.85410   4
   9   0   1 6.81999 1.92558   5
 -10   0  -1 99.5036 5.99704   2
  10   0   1 98.4590 6.28036   5
  10   0   1 108.427 5.83761   4
  10   0   1 100.601 6.34762   1
  11  -1  -1 1.30899 1.61570   4
  11  -1  -1 3.46402 2.96512   5
  11  -1  -1 2.31403 1.73473   1
 -11   1   1 -0.9383 1.44490   2
  10  -1  -1 10.5825 2.33625   5
  10  -1  -1 12.6080 2.32512   4
  10  -1  -1 27.2144 3.55605   1
 -10   1   1 15.3833 2.53716   2
   9  -1  -1 3.90898 1.52801   5
   9  -1  -1 4.78132 1.57706   4
   9  -1  -1 6.25174 1.82299   1
  -9   1   1 8.29268 1.96415   2
   8  -1  -1 61.6040 4.16899   1
   8  -1  -1 72.1555 4.12321   4
  -8   1   1 65.4971 4.09658   2
  -8   1   1 68.9892 4.28790   1
   7  -1  -1 500.788 19.9153   6
   7  -1  -1 547.839 19.3786   4
   7  -1  -1 584.135 19.8353   1
  -7   1   1 554.266 19.6605   1
  -7   1   1 551.148 19.5048   2
  -7   1   1 536.044 19.2905   6
   6  -1  -1 16.3871 2.05843   1
   6  -1  -1 18.1675 1.97823   4
   6  -1  -1 14.7036 2.14076   6
  -6   1   1 16.6952 2.02941   1
  -6   1   1 14.1270 1.81285   2
  -6   1   1 14.1248 1.64526   6
   5  -1  -1 290.055 11.0410   6
   5  -1  -1 291.079 10.8195   1
   5  -1  -1 285.805 10.5624   4
  -5   1   1 299.919 10.7766   6
  -5   1   1 293.312 10.6865   2
  -5   1   1 279.850 10.7839   1
   4  -1  -1 9.78234 1.39671   3
   4  -1  -1 10.2174 1.33477   2
   4  -1  -1 11.8637 1.43054   1
   4  -1  -1 10.2511 1.16732   4
   4  -1  -1 11.7399 1.51909   6
  -4   1   1 7.55368 1.14807   1
  -4   1   1 12.6269 1.52744   6
  -4   1   1 12.7216 1.36854   2
   3  -1  -1 11.8968 1.23867   1
   3  -1  -1 9.75802 1.02252   2
   3  -1  -1 12.1394 1.41429   3
   3  -1  -1 12.1018 1.30877   1
   3  -1  -1 10.9462 1.09202   4
  -3   1   1 11.6881 1.12479   2
  -3   1   1 14.3176 1.42829   1
  -3   1   1 9.35221 1.02439   6
  -3   1   1 13.9582 1.45683   3
   2  -1  -1 71.6564 3.18978   3
   2  -1  -1 72.3737 2.92134   2
   2  -1  -1 65.3779 3.03031   1
   2  -1  -1 74.5885 2.94536   4
   2  -1  -1 77.6579 3.11140   1
  -2   1   1 74.0228 3.06203   1
  -2   1   1 75.3371 2.93882   2
  -2   1   1 75.1336 3.21009   3
  -2   1   1 69.2063 2.87560   4
  -2   1   1 75.6758 3.13021   6
  -2   1   1 79.8939 3.18619   1
   1  -1  -1 1582.64 50.8681   4
   1  -1  -1 1637.47 50.7083   6
   1  -1  -1 1539.21 50.4612   2
   1  -1  -1 1563.70 50.7116   6
   1  -1  -1 1493.66 50.6366   1
  -1   1   1 1553.80 50.6239   1
  -1   1   1 1624.00 50.7781   3
  -1   1   1 1567.31 50.6933   6
   0  -1  -1 27.0206 1.20790   1
   0  -1  -1 21.7574 1.14404   6
  -1  -1  -1 39.3066 1.70064   1
  -1  -1  -1 36.2083 1.71404   6
  -1  -1  -1 36.8122 1.40450   4
  -1  -1  -1 37.1317 1.69874   1
   1   1   1 37.7374 1.70543   1
   1   1   1 40.8771 1.86083   6
  -2  -1  -1 757.634 24.3724   1
  -2  -1  -1 746.719 24.6328   5
  -2  -1  -1 733.004 24.0569   4
  -2  -1  -1 716.614 24.3437   1
  -2  -1  -1 751.820 24.3562   6
  -2  -1  -1 736.234 24.3383   1
   2   1   1 749.103 24.5634   6
   2   1   1 741.939 24.6364   5
   2   1   1 745.839 24.3898   1
   2   1   1 721.715 24.0501   4
   2   1   1 760.157 24.4517   1
  -3  -1  -1 315.898 10.9214   1
  -3  -1  -1 304.786 11.1859   5
  -3  -1  -1 305.855 10.6253   4
  -3  -1  -1 320.365 10.8579   6
  -3  -1  -1 316.614 10.9591   2
   3   1   1 323.330 11.2355   6
   3   1   1 322.544 11.0739   1
   3   1   1 301.292 10.9477   1
   3   1   1 316.428 11.2809   5
   3   1   1 312.325 10.6707   4
  -4  -1  -1 211.562 8.00764   2
  -4  -1  -1 214.508 7.94112   1
  -4  -1  -1 213.594 7.78644   6
   4   1   1 209.993 8.29840   6
   4   1   1 221.771 8.15058   1
   4   1   1 202.950 7.98497   1
   4   1   1 215.566 8.36737   5
   4   1   1 222.021 7.74424   4
  -5  -1  -1 43.7168 2.34506   6
  -5  -1  -1 41.2280 2.53342   1
  -5  -1  -1 40.5532 2.57497   2
   5   1   1 44.2725 2.72610   1
   5   1   1 47.9864 3.01162   5
   5   1   1 46.2306 2.94969   6
   5   1   1 42.5165 2.42006   4
  -6  -1  -1 0.88746 0.66976   1
  -6  -1  -1 1.04804 0.70966   2
  -6  -1  -1 0.13108 0.50700   6
   6   1   1 -0.0337 0.76184   5
   6   1   1 -0.2952 0.60764   4
   6   1   1 -0.0080 0.66625   6
   6   1   1 1.21347 0.74822   1
  -7  -1  -1 22.2873 2.36751   1
  -7  -1  -1 23.1165 2.58294   2
   7   1   1 23.2482 2.88246   6
   7   1   1 23.0853 2.28672   4
   7   1   1 22.1853 2.54424   1
   7   1   1 21.2845 2.66904   5
  -8  -1  -1 0.57164 0.92496   2
   8   1   1 1.59089 1.15438   1
   8   1   1 -0.3468 0.89479   5
   8   1   1 1.83575 1.00232   4
  -9  -1  -1 8.89656 1.92059   2
   9   1   1 7.92892 1.64855   4
   9   1   1 5.76030 1.77449   1
   9   1   1 6.14857 1.88165   5
 -10  -1  -1 97.9543 5.95525   2
  10   1   1 104.034 5.60414   4
  10   1   1 96.9938 6.17519   1
  10   1   1 96.8907 6.41252   5
  11  -2  -1 0.82369 1.41373   1
  11  -2  -1 -0.7874 1.41612   5
  11  -2  -1 -1.7162 1.18385   4
  10  -2  -1 3.44463 1.69356   4
  10  -2  -1 1.52110 1.36757   5
  10  -2  -1 3.03203 1.64557   1
 -10   2   1 1.46085 1.41016   2
   9  -2  -1 1.96970 1.33663   4
   9  -2  -1 0.47883 1.19411   1
  -9   2   1 3.82290 1.57365   1
  -9   2   1 0.79483 1.11103   2
   8  -2  -1 57.1866 4.09412   1
   8  -2  -1 54.8871 3.74415   4
  -8   2   1 60.6026 3.86769   2
  -8   2   1 66.7102 4.27693   1
   7  -2  -1 32.3824 3.36511   6
   7  -2  -1 38.1455 2.79502   4
   7  -2  -1 33.1883 3.19219   1
  -7   2   1 31.7265 3.13093   1
  -7   2   1 33.7839 3.01836   2
  -7   2   1 37.0005 2.78464   6
   6  -2  -1 180.527 7.48942   1
   6  -2  -1 172.733 7.18688   4
   6  -2  -1 169.241 7.67464   6
  -6   2   1 173.161 7.40612   6
  -6   2   1 179.369 7.54318   1
  -6   2   1 164.143 7.06808   2
   5  -2  -1 14.7046 1.68374   4
   5  -2  -1 13.9659 1.99974   6
   5  -2  -1 10.9800 1.55100   1
  -5   2   1 11.2118 1.62055   1
  -5   2   1 12.3597 1.53545   2
  -5   2   1 10.5937 1.46877   6
   4  -2  -1 89.6850 4.41014   6
   4  -2  -1 97.9311 4.34105   1
  -4   2   1 94.3792 4.35410   1
  -4   2   1 93.6217 4.51824   3
  -4   2   1 90.2048 4.31054   6
  -4   2   1 92.8333 4.01294   2
   3  -2  -1 257.463 9.25419   1
   3  -2  -1 241.002 9.45870   3
   3  -2  -1 241.139 8.90049   2
   3  -2  -1 263.728 9.43659   6
   3  -2  -1 262.179 9.02713   4
  -3   2   1 249.469 9.34515   6
  -3   2   1 258.112 9.51251   3
  -3   2   1 253.934 9.33592   1
  -3   2   1 253.955 8.95130   2
   2  -2  -1 5.74252 0.96383   6
   2  -2  -1 7.16031 1.08973   6
   2  -2  -1 7.07708 0.94815   1
   2  -2  -1 4.88409 0.92949   3
   2  -2  -1 7.67242 0.85646   4
   2  -2  -1 6.22450 0.72206   2
  -2   2   1 5.97633 0.93498   1
  -2   2   1 6.08270 0.73240   4
  -2   2   1 7.23259 1.12552   3
  -2   2   1 5.87683 0.72089   2
  -2   2   1 5.59829 0.91871   6
  -2   2   1 6.18305 0.89760   1
   1  -2  -1 111.340 3.94233   4
   1  -2  -1 108.406 4.20249   1
   1  -2  -1 103.077 4.20477   1
   1  -2  -1 111.219 4.53544   3
   1  -2  -1 113.731 4.33185   6
   1  -2  -1 115.663 4.28420   6
   1  -2  -1 112.260 3.95019   2
  -1   2   1 117.846 4.35810   6
  -1   2   1 103.021 3.88901   4
  -1   2   1 114.372 4.35431   6
  -1   2   1 110.391 4.52933   3
  -1   2   1 107.085 4.28482   1
  -1   2   1 106.484 4.22570   1
   0  -2  -1 180.803 6.14653   6
   0  -2  -1 168.978 6.18278   1
   0  -2  -1 173.760 5.78169   4
   0  -2  -1 182.635 6.26633   6
   0  -2  -1 173.562 6.19852   1
   0   2   1 177.879 6.30527   1
   0   2   1 183.912 6.28135   6
   0   2   1 185.585 6.69428   3
   0   2   1 171.837 6.35623   6
   0   2   1 168.609 6.20958   1
   0   2   1 168.514 5.76580   4
  -1  -2  -1 63.8417 2.92482   5
  -1  -2  -1 62.7594 2.36962   6
  -1  -2  -1 59.2353 2.53688   1
  -1  -2  -1 64.5901 2.45642   6
   1   2   1 62.7032 2.69168   1
   1   2   1 66.1164 2.79029   6
   1   2   1 62.1715 2.63768   1
  -2  -2  -1 10.0884 0.60836   4
  -2  -2  -1 11.4517 1.34604   5
   2   2   1 10.3205 1.16092   6
   2   2   1 11.2316 1.15232   1
   2   2   1 8.81721 1.21419   5
   2   2   1 10.1720 0.62487   4
   2   2   1 9.54436 1.02188   1
  -3  -2  -1 32.0967 1.51549   4
  -3  -2  -1 31.9154 1.86050   2
  -3  -2  -1 27.9166 1.69467   1
   3   2   1 32.8115 2.23297   5
   3   2   1 32.1677 1.87326   1
   3   2   1 33.4648 2.05488   6
   3   2   1 34.6341 1.98223   1
   3   2   1 30.9861 1.53637   4
  -4  -2  -1 91.7136 3.80609   1
  -4  -2  -1 82.2905 3.45911   4
  -4  -2  -1 88.3931 4.31639   5
  -4  -2  -1 91.3860 3.98673   2
   4   2   1 87.8566 3.56908   4
   4   2   1 77.3550 3.82437   1
   4   2   1 91.9071 4.22179   6
   4   2   1 87.1333 4.40084   5
   4   2   1 87.7011 4.05704   1
  -5  -2  -1 180.640 7.05790   2
  -5  -2  -1 170.555 6.75152   1
   5   2   1 160.952 6.89990   1
   5   2   1 176.505 7.15599   1
   5   2   1 175.531 6.58101   4
   5   2   1 170.802 7.33948   6
   5   2   1 179.070 7.60971   5
  -6  -2  -1 9.67359 1.38083   1
  -6  -2  -1 10.3898 1.60767   2
   6   2   1 12.4941 1.53488   4
   6   2   1 11.2501 1.70360   1
   6   2   1 10.8304 1.77017   6
   6   2   1 11.0088 1.97923   5
  -7  -2  -1 103.490 5.15602   2
   7   2   1 96.3545 5.50215   6
   7   2   1 95.7430 4.58443   4
   7   2   1 103.643 5.38387   1
   7   2   1 92.5434 5.47808   5
  -8  -2  -1 0.67720 0.96063   2
   8   2   1 -0.2847 0.98037   5
   8   2   1 0.85287 0.85021   4
   8   2   1 0.97248 1.04866   1
  -9  -2  -1 20.2054 2.73577   2
   9   2   1 21.3051 3.09890   1
   9   2   1 13.8931 2.71425   5
   9   2   1 22.0142 2.53475   4
 -10  -2  -1 0.21733 1.37490   2
  10   2   1 2.12468 1.50594   1
  10   2   1 2.41222 1.31603   4
  10  -3  -1 18.4167 3.22833   1
  10  -3  -1 8.44619 2.02653   5
  10  -3  -1 13.6606 2.47365   4
 -10   3   1 18.5864 2.81016   2
   9  -3  -1 9.65688 2.24748   1
   9  -3  -1 12.7619 2.30536   4
  -9   3   1 12.6123 2.59467   1
  -9   3   1 9.59396 2.04813   2
   8  -3  -1 40.1167 3.91180   1
   8  -3  -1 46.7025 3.39523   4
  -8   3   1 46.3469 3.76329   1
  -8   3   1 46.0036 3.36822   2
   7  -3  -1 73.5923 4.77443   6
   7  -3  -1 78.8319 4.57055   1
   7  -3  -1 79.9761 4.32809   4
  -7   3   1 80.9734 4.75086   1
  -7   3   1 69.4771 4.36793   6
  -7   3   1 74.7904 4.21176   2
   6  -3  -1 163.993 7.59145   6
   6  -3  -1 172.013 7.05429   4
   6  -3  -1 164.864 7.27790   1
  -6   3   1 165.970 7.42943   1
  -6   3   1 164.743 6.90698   2
  -6   3   1 160.635 7.31093   6
   5  -3  -1 115.508 5.60367   6
   5  -3  -1 114.795 5.41266   1
   5  -3  -1 119.948 5.18056   4
  -5   3   1 114.784 5.00767   2
  -5   3   1 114.989 5.48799   6
  -5   3   1 117.584 5.53790   1
  -5   3   1 114.755 5.70039   3
   4  -3  -1 169.749 6.92156   1
   4  -3  -1 170.453 7.10418   6
   4  -3  -1 173.455 6.68324   4
  -4   3   1 173.226 7.09547   6
  -4   3   1 165.035 7.20204   3
  -4   3   1 169.563 6.50522   2
  -4   3   1 165.430 7.03017   1
   3  -3  -1 1075.71 35.3422   1
   3  -3  -1 1064.86 35.4232   6
   3  -3  -1 1033.71 34.8334   2
   3  -3  -1 1081.10 35.0385   4
   3  -3  -1 1046.29 35.4556   6
  -3   3   1 1126.89 35.6153   6
  -3   3   1 1054.11 35.6905   3
  -3   3   1 1057.50 34.8851   2
  -3   3   1 1048.48 35.4863   1
   2  -3  -1 537.344 18.2646   2
   2  -3  -1 590.129 18.9021   6
   2  -3  -1 569.488 18.4333   4
   2  -3  -1 564.932 18.7576   1
   2  -3  -1 535.011 18.7956   6
  -2   3   1 576.082 18.9064   1
  -2   3   1 552.633 19.2011   3
  -2   3   1 556.616 18.3012   2
  -2   3   1 521.159 18.3137   4
  -2   3   1 563.411 18.9581   6
  -2   3   1 516.323 18.7105   1
   1  -3  -1 1.86161 0.60746   6
   1  -3  -1 1.05296 0.36254   4
   1  -3  -1 1.29071 0.35336   2
   1  -3  -1 0.63600 0.46159   1
   1  -3  -1 1.49397 0.72373   3
   1  -3  -1 1.13197 0.41793   6
  -1   3   1 1.77002 0.58108   6
  -1   3   1 1.01974 0.46140   6
  -1   3   1 1.63101 0.61217   1
  -1   3   1 1.56769 0.59145   1
  -1   3   1 1.74980 0.77855   3
  -1   3   1 1.26059 0.35838   4
   0  -3  -1 5.70965 0.61963   6
   0  -3  -1 4.97412 0.72803   1
   0  -3  -1 5.43161 0.67198   6
   0   3   1 6.98526 1.01252   6
   0   3   1 5.02243 0.78500   1
   0   3   1 7.25654 1.19109   3
   0   3   1 5.47992 0.38838   4
   0   3   1 7.34510 0.97647   6
   0   3   1 6.51627 0.87593   1
  -1  -3  -1 5.18313 0.92058   5
   1   3   1 5.27636 0.82556   1
   1   3   1 5.51610 0.88249   1
   1   3   1 4.21746 0.86615   6
  -2  -3  -1 0.54595 0.37889   1
  -2  -3  -1 1.55651 0.66174   5
   2   3   1 1.06947 0.56545   6
   2   3   1 0.23035 0.45569   1
   2   3   1 1.52177 0.57750   1
  -3  -3  -1 626.837 20.1195   2
  -3  -3  -1 561.696 20.6501   5
  -3  -3  -1 610.514 19.4456   4
  -3  -3  -1 591.010 19.8158   1
   3   3   1 577.060 19.4409   4
   3   3   1 607.392 20.3854   6
   3   3   1 625.298 20.8945   5
   3   3   1 606.641 20.2811   1
   3   3   1 564.352 20.0882   1
  -4  -3  -1 179.768 6.73474   1
  -4  -3  -1 197.344 7.17703   2
  -4  -3  -1 180.549 6.45125   4
   4   3   1 165.024 6.98439   1
   4   3   1 188.536 7.26982   1
   4   3   1 177.610 6.47976   4
   4   3   1 190.800 7.44253   6
   4   3   1 183.593 7.78923   5
  -5  -3  -1 125.242 5.19227   2
  -5  -3  -1 100.070 4.51859   1
   5   3   1 101.909 4.92990   1
   5   3   1 120.536 5.78729   5
   5   3   1 112.245 5.36249   6
   5   3   1 117.607 5.22815   1
   5   3   1 108.663 4.44270   4
  -6  -3  -1 101.022 4.90946   2
   6   3   1 96.6503 4.31725   4
   6   3   1 109.497 5.18016   1
   6   3   1 99.6981 5.29841   6
   6   3   1 91.6740 5.42579   5
  -7  -3  -1 2.57497 1.11011   2
   7   3   1 1.13899 1.12847   5
   7   3   1 1.94818 1.14982   6
   7   3   1 1.33000 1.07065   1
   7   3   1 2.94637 0.94711   4
  -8  -3  -1 20.8220 2.64386   2
   8   3   1 17.8903 2.62098   1
   8   3   1 16.2468 2.04257   4
   8   3   1 13.3906 2.60550   5
  -9  -3  -1 76.7272 4.90899   2
   9   3   1 91.4859 5.52294   1
   9   3   1 66.7874 5.34385   5
   9   3   1 69.4724 4.19000   4
 -10  -3  -1 7.92002 2.29459   2
  10   3   1 5.81245 2.06939   1
  10   3   1 8.13931 1.94629   4
  10  -4  -1 2.61929 1.73813   1
  10  -4  -1 1.05141 1.39453   4
 -10   4   1 -1.4498 1.06587   2
 -10   4   1 2.01445 1.53276   1
   9  -4  -1 -0.1236 1.15301   1
   9  -4  -1 -0.9394 0.99125   4
  -9   4   1 -0.5760 0.91394   2
  -9   4   1 1.45824 1.56745   1
   8  -4  -1 0.56340 1.14159   4
   8  -4  -1 0.97381 1.34421   1
  -8   4   1 1.34135 1.04721   2
  -8   4   1 0.20311 1.45164   1
   7  -4  -1 14.5962 2.26337   1
   7  -4  -1 18.5288 2.31279   4
  -7   4   1 17.0495 2.53766   1
  -7   4   1 17.7667 2.15544   2
   6  -4  -1 15.0051 2.18728   1
   6  -4  -1 14.0266 2.18829   6
   6  -4  -1 16.6778 2.07768   4
  -6   4   1 14.3672 2.21066   6
  -6   4   1 13.0325 2.15459   1
  -6   4   1 15.6547 1.81593   2
  -6   4   1 16.0035 2.47136   3
   5  -4  -1 -0.2839 0.69511   4
   5  -4  -1 2.22948 0.99533   1
   5  -4  -1 0.14130 0.77766   6
   5  -4  -1 1.67592 0.95305   6
  -5   4   1 0.74499 0.80228   6
  -5   4   1 0.65774 1.01031   3
  -5   4   1 0.42627 0.77485   1
  -5   4   1 0.32832 0.61057   2
   4  -4  -1 78.8911 4.09838   1
   4  -4  -1 83.8381 3.86337   4
   4  -4  -1 83.7713 4.29447   6
   4  -4  -1 76.3272 4.09300   6
  -4   4   1 76.9769 4.22554   6
  -4   4   1 84.6306 4.59605   3
  -4   4   1 79.4421 3.65680   2
  -4   4   1 89.2237 4.45141   1
   3  -4  -1 66.6688 3.06814   4
   3  -4  -1 64.1319 3.29220   1
   3  -4  -1 59.8497 2.79569   2
   3  -4  -1 62.0832 3.35074   6
   3  -4  -1 59.8203 3.32730   6
  -3   4   1 67.9896 2.91806   2
  -3   4   1 65.1728 3.76895   3
  -3   4   1 63.9244 3.50278   1
  -3   4   1 66.4081 3.53590   6
   2  -4  -1 166.011 6.55420   1
   2  -4  -1 163.584 6.03495   2
   2  -4  -1 173.543 6.61369   6
   2  -4  -1 178.366 6.29731   4
   2  -4  -1 167.983 6.59109   6
  -2   4   1 158.849 6.12865   4
  -2   4   1 166.975 7.21287   3
  -2   4   1 185.513 6.91907   1
  -2   4   1 182.609 6.92955   6
  -2   4   1 155.210 6.60927   1
  -2   4   1 171.960 6.85458   6
   1  -4  -1 8.32778 1.00984   6
   1  -4  -1 9.05481 0.86495   4
   1  -4  -1 8.07308 0.74262   2
   1  -4  -1 10.5616 1.18638   1
   1  -4  -1 9.24572 0.99408   6
  -1   4   1 7.26416 1.07816   1
  -1   4   1 7.91935 1.12140   6
  -1   4   1 8.49404 1.23485   6
  -1   4   1 9.39941 1.26155   1
  -1   4   1 9.24026 1.51150   3
  -1   4   1 9.44335 0.82204   4
   0   4   1 470.333 16.1804   4
   0   4   1 529.801 17.1790   1
   0   4   1 466.143 16.9309   1
   0   4   1 520.609 17.1161   6
   0   4   1 516.180 17.2314   6
   0   4   1 504.661 17.9041   3
  -1  -4  -1 1.13007 0.65244   5
  -1  -4  -1 2.10489 0.52971   1
   1   4   1 2.29636 0.74624   6
   1   4   1 1.55896 0.88226   3
   1   4   1 1.13216 0.61989   1
   1   4   1 1.63482 0.58128   1
  -2  -4  -1 556.721 19.6561   5
  -2  -4  -1 556.434 18.7182   2
  -2  -4  -1 564.648 18.5451   1
   2   4   1 545.308 19.0021   1
   2   4   1 569.588 19.1060   1
   2   4   1 574.090 19.2578   6
  -3  -4  -1 34.6144 1.78416   1
  -3  -4  -1 39.7612 2.17583   2
   3   4   1 36.4863 2.22607   1
   3   4   1 38.6739 2.44471   6
   3   4   1 37.5538 2.32715   1
  -4  -4  -1 147.099 5.78434   2
  -4  -4  -1 142.828 4.94788   4
  -4  -4  -1 131.156 5.13243   1
   4   4   1 148.771 6.18170   6
   4   4   1 150.041 6.69850   5
   4   4   1 138.334 5.94936   1
   4   4   1 128.841 5.75855   1
   4   4   1 133.341 4.95371   4
  -5  -4  -1 224.297 8.40515   2
  -5  -4  -1 199.710 7.42641   4
   5   4   1 218.515 8.58480   1
   5   4   1 206.352 7.48163   4
   5   4   1 217.356 8.78632   6
   5   4   1 210.030 9.21603   5
   5   4   1 195.189 8.56252   1
  -6  -4  -1 56.1033 3.38912   2
   6   4   1 61.7764 3.73616   1
   6   4   1 55.6880 4.15374   5
   6   4   1 52.8536 2.76015   4
   6   4   1 52.2714 3.73195   6
  -7  -4  -1 32.5851 3.16624   2
   7   4   1 34.4199 3.97557   5
   7   4   1 29.0595 3.15510   1
   7   4   1 26.6629 3.18189   6
   7   4   1 31.0503 2.14695   4
  -8  -4  -1 87.9283 5.23739   2
   8   4   1 100.021 6.31592   5
   8   4   1 90.6533 4.50414   4
   8   4   1 99.5090 5.66158   1
  -9  -4  -1 6.54788 1.89994   2
   9   4   1 12.5450 2.49659   1
  10  -5  -1 2.76331 1.73638   4
  10  -5  -1 1.02833 1.61376   1
 -10   5   1 0.99015 1.50564   1
 -10   5   1 5.06363 1.71114   2
   9  -5  -1 6.55566 1.96437   4
   9  -5  -1 8.11345 2.20194   1
  -9   5   1 4.40543 1.89549   1
  -9   5   1 5.43532 1.65601   2
   8  -5  -1 2.62818 1.34162   1
   8  -5  -1 3.93921 1.49906   4
  -8   5   1 5.84386 1.99697   1
  -8   5   1 3.13496 1.28592   2
   7  -5  -1 20.1036 2.85825   1
   7  -5  -1 17.3070 2.45525   4
  -7   5   1 19.1562 3.11586   3
  -7   5   1 21.6637 2.42148   2
  -7   5   1 22.0617 3.15629   1
   6  -5  -1 14.6848 2.25834   1
   6  -5  -1 11.2718 2.07281   6
   6  -5  -1 7.77948 1.79889   6
   6  -5  -1 14.8449 2.05249   4
  -6   5   1 12.3903 1.75535   2
  -6   5   1 8.39359 1.77243   6
  -6   5   1 10.8025 2.14821   1
  -6   5   1 12.4390 2.52195   3
   5  -5  -1 0.24754 0.82122   6
   5  -5  -1 -0.2917 0.88036   1
   5  -5  -1 -0.5004 0.73073   6
   5  -5  -1 1.62454 0.99820   4
  -5   5   1 -0.2609 0.91954   1
  -5   5   1 -0.0765 0.68072   6
  -5   5   1 0.37940 0.68497   2
  -5   5   1 0.10793 0.95074   3
   4  -5  -1 269.481 10.5227   6
   4  -5  -1 262.870 10.4295   1
   4  -5  -1 269.642 10.1206   4
   4  -5  -1 261.732 10.5682   6
  -4   5   1 271.391 9.81219   2
  -4   5   1 270.797 10.8208   6
  -4   5   1 294.458 10.9839   1
  -4   5   1 272.224 11.1678   3
   3  -5  -1 14.2052 1.74948   1
   3  -5  -1 14.7572 1.81222   6
   3  -5  -1 13.0322 1.71842   6
   3  -5  -1 13.4724 1.26308   2
   3  -5  -1 16.8323 1.66512   4
  -3   5   1 18.1046 2.56801   3
  -3   5   1 15.9507 2.10039   1
  -3   5   1 13.8245 1.87283   6
   2  -5  -1 10.3074 1.30659   6
   2  -5  -1 14.3097 1.64588   1
   2  -5  -1 12.8025 1.27462   4
   2  -5  -1 10.3695 0.94840   2
  -2   5   1 10.8403 1.51591   6
  -2   5   1 11.7539 1.62140   1
  -2   5   1 12.7096 1.68552   1
  -2   5   1 10.6877 1.83036   3
  -2   5   1 10.4157 1.47490   6
   1  -5  -1 127.967 5.84937   1
   1  -5  -1 152.317 5.39323   2
  -1   5   1 147.984 6.99926   3
  -1   5   1 170.105 6.49594   6
  -1   5   1 152.707 5.47563   4
  -1   5   1 166.504 6.55251   6
  -1   5   1 174.509 6.53518   1
  -1   5   1 151.281 6.24524   1
   0  -5  -1 2.46959 0.67804   1
   0  -5  -1 3.49750 0.97592   5
   0   5   1 2.47979 0.76550   6
   0   5   1 2.87325 0.85228   1
   0   5   1 2.62590 0.74844   1
   0   5   1 3.33513 0.79349   6
   0   5   1 4.47869 1.26916   3
  -1  -5  -1 26.5448 1.46056   1
  -1  -5  -1 27.7548 2.22661   5
   1   5   1 29.4570 2.01103   1
   1   5   1 26.3970 2.97839   3
   1   5   1 22.6872 1.96938   6
   1   5   1 24.5259 1.81361   1
  -2  -5  -1 164.303 5.75175   1
  -2  -5  -1 170.273 6.10458   2
   2   5   1 176.596 6.72705   1
   2   5   1 154.395 6.47028   1
   2   5   1 159.242 6.74058   6
  -3  -5  -1 44.0635 2.37475   2
   3   5   1 39.8127 2.53694   1
   3   5   1 45.1851 2.72731   1
   3   5   1 47.6291 2.91460   6
  -4  -5  -1 15.2413 1.63142   2
   4   5   1 13.9205 1.91279   6
   4   5   1 15.2898 1.96706   1
  -5  -5  -1 77.9882 4.01242   2
   5   5   1 78.7707 4.27844   1
   5   5   1 77.4170 4.49926   6
  -6  -5  -1 5.33890 1.35169   2
   6   5   1 4.39630 1.52004   6
   6   5   1 6.57009 1.57112   1
  -7  -5  -1 1.88902 1.07904   2
   7   5   1 1.65558 1.50216   5
   7   5   1 1.39613 1.28799   6
   7   5   1 1.97229 1.27342   1
  -8  -5  -1 28.2430 3.22782   2
   8   5   1 27.5687 3.35782   1
   8   5   1 26.6127 5.84894   5
   9  -6  -1 3.39349 1.76788   4
  -9   6   1 4.02670 2.00731   1
  -9   6   1 2.47119 1.52468   2
   8  -6  -1 17.1456 2.73293   4
   8  -6  -1 20.6397 3.25422   1
  -8   6   1 18.4495 2.50040   2
  -8   6   1 24.5600 3.43059   1
   7  -6  -1 0.55389 1.13718   1
   7  -6  -1 -0.7385 1.01302   4
  -7   6   1 0.49379 0.82383   2
  -7   6   1 2.79968 1.63581   3
  -7   6   1 0.16782 1.05902   1
   6  -6  -1 1.49737 1.05648   4
   6  -6  -1 2.86616 1.34105   1
  -6   6   1 3.25237 1.05188   2
  -6   6   1 4.20336 1.53706   1
  -6   6   1 0.78432 1.35265   3
   5  -6  -1 50.1297 3.48317   1
   5  -6  -1 51.0229 3.20008   4
  -5   6   1 58.7889 4.30634   3
  -5   6   1 48.9160 2.85041   2
  -5   6   1 48.1172 3.70545   6
  -5   6   1 48.8384 3.71756   1
   4  -6  -1 18.3271 1.97001   4
   4  -6  -1 17.2239 2.12620   1
  -4   6   1 20.5266 2.95481   3
  -4   6   1 19.0701 2.47818   6
  -4   6   1 18.6541 2.42388   1
   3  -6  -1 129.835 5.29659   4
   3  -6  -1 116.849 4.78468   2
   3  -6  -1 129.435 5.62880   1
  -3   6   1 134.422 6.13320   1
  -3   6   1 120.996 6.53372   3
  -3   6   1 126.682 6.08357   6
   2  -6  -1 5.66004 0.70125   2
   2  -6  -1 5.53274 1.11020   1
  -2   6   1 6.69889 1.41489   6
  -2   6   1 4.81790 1.27434   6
  -2   6   1 6.20470 1.72657   3
  -2   6   1 7.73298 1.43802   1
   1  -6  -1 57.8694 2.29880   2
   1  -6  -1 57.2984 2.91625   1
  -1   6   1 69.2186 3.57803   6
  -1   6   1 52.1270 3.19414   1
  -1   6   1 64.7487 4.23530   3
  -1   6   1 61.5535 3.52969   6
  -1   6   1 56.4929 2.44344   4
  -1   6   1 65.4779 3.56395   1
   0  -6  -1 11.1317 0.73912   2
   0  -6  -1 9.03672 1.51657   5
   0  -6  -1 11.9788 1.23919   1
   0   6   1 12.6447 1.65658   1
   0   6   1 13.6356 1.82645   6
   0   6   1 9.57373 1.38051   1
   0   6   1 11.9308 1.59409   6
   0   6   1 14.6511 2.45136   3
  -1  -6  -1 58.1957 2.42815   1
  -1  -6  -1 63.0395 2.51118   2
   1   6   1 62.5190 3.42484   1
   1   6   1 63.9450 3.54315   6
   1   6   1 58.4577 4.15029   3
   1   6   1 55.4803 3.17707   1
  -2  -6  -1 5.70552 0.81158   2
   2   6   1 4.11984 1.12212   6
   2   6   1 5.18320 1.75280   3
   2   6   1 5.40781 1.21363   1
   2   6   1 6.20662 1.29149   1
  -3  -6  -1 27.1556 1.81238   2
   3   6   1 26.6217 2.55924   1
   3   6   1 26.3560 2.68849   6
  -4  -6  -1 25.7772 1.92419   2
   4   6   1 26.6945 2.64923   1
   4   6   1 26.0534 2.76300   6
  -5  -6  -1 10.1795 1.51855   2
   5   6   1 11.8194 1.91667   1
   5   6   1 12.4817 2.02033   6
  -6  -6  -1 86.2864 4.66988   2
   6   6   1 89.9838 5.43656   6
   6   6   1 93.7735 5.14711   1
  -7  -6  -1 115.581 5.83709   2
   7   6   1 111.995 6.17921   1
  -8  -6  -1 7.47881 2.05431   2
   8   6   1 8.57363 2.14867   1
   8  -7  -1 18.9298 2.86532   4
  -8   7   1 13.7815 2.92519   1
  -8   7   1 12.7994 2.92715   3
  -8   7   1 13.6900 2.20788   2
   7  -7  -1 7.31408 1.77974   4
  -7   7   1 8.78559 1.62164   2
  -7   7   1 8.35506 2.45866   3
  -7   7   1 8.07096 2.32658   1
   6  -7  -1 2.34209 1.21468   4
  -6   7   1 3.64472 1.60799   1
  -6   7   1 2.16230 1.42386   3
   5  -7  -1 24.4820 2.51472   4
  -5   7   1 24.6017 3.35385   1
  -5   7   1 21.6540 3.43560   3
  -4   7   1 11.5161 2.03883   6
  -4   7   1 12.1433 2.11616   1
  -4   7   1 8.14270 2.10417   3
  -3   7   1 36.9960 3.10823   6
  -3   7   1 39.1552 3.19120   1
  -3   7   1 35.3083 4.04149   3
  -2   7   1 126.420 6.25642   6
  -2   7   1 129.679 6.34238   6
  -2   7   1 137.180 7.18224   3
  -2   7   1 133.344 6.31953   1
  -1   7   1 99.9484 5.19196   6
  -1   7   1 101.655 6.06114   3
  -1   7   1 99.3655 5.17208   1
  -1   7   1 105.923 5.25923   6
   0   7   1 85.2297 4.52718   1
   0   7   1 85.2780 4.42458   6
   0   7   1 83.4588 4.55084   6
   0   7   1 79.5704 5.29647   3
   1   7   1 90.3706 5.86944   3
   1   7   1 94.8036 4.96279   6
   1   7   1 101.198 4.97405   1
   2   7   1 4.80803 2.00343   3
   2   7   1 3.59004 1.14655   1
   2   7   1 3.09541 1.16940   6
   3   7   1 71.7966 4.31942   6
   3   7   1 65.2344 5.09151   3
   3   7   1 69.8239 4.08742   1
   4   7   1 28.6315 2.99375   1
   4   7   1 26.6364 3.15160   6
   5   7   1 49.9164 3.91097   6
   5   7   1 55.5998 3.80645   1
   6   7   1 2.13194 1.27250   1
   7   7   1 3.91502 1.65896   1
  -7   8   1 9.53997 2.41536   1
  -7   8   1 8.33146 2.66985   3
  -6   8   1 2.27198 1.56751   3
  -6   8   1 2.12426 1.55545   1
  -5   8   1 1.57876 1.64829   3
  -5   8   1 3.15117 1.60958   1
  -4   8   1 4.53620 1.65791   1
  -4   8   1 2.79627 1.71375   3
  -3   8   1 1.32553 1.20354   1
  -3   8   1 0.91221 1.06375   6
  -3   8   1 0.90128 1.43658   3
  -2   8   1 5.47850 1.90616   3
  -2   8   1 3.65938 1.49281   1
  -2   8   1 2.91818 1.32556   6
  -1   8   1 21.7434 2.51027   6
  -1   8   1 16.7412 2.98435   3
  -1   8   1 20.2280 2.74162   6
  -1   8   1 22.4974 2.77389   1
   0   8   1 1.39212 1.53030   3
   0   8   1 -0.0250 0.80700   1
   0   8   1 0.62869 0.89606   6
   1   8   1 4.71542 1.42747   1
   1   8   1 6.04670 1.64987   6
   1   8   1 3.39030 1.83302   3
   2   8   1 3.26362 1.33449   6
   2   8   1 4.99432 1.95396   3
   2   8   1 2.44147 1.27264   1
   3   8   1 10.6465 2.18214   6
   3   8   1 13.7561 2.18594   1
   3   8   1 13.8005 3.15269   3
   4   8   1 28.7767 3.08853   1
   4   8   1 23.4988 3.14249   6
   4   8   1 30.3979 4.59265   3
   5   8   1 0.45062 1.09520   1
  -6   9   1 0.92793 1.72578   3
  -5   9   1 0.94159 1.37248   1
  -5   9   1 -1.0649 1.40818   3
  -4   9   1 2.76570 1.50869   1
  -4   9   1 1.41076 1.66922   3
  -3   9   1 3.07014 1.89156   3
  -3   9   1 2.01867 1.48563   1
  -2   9   1 61.2256 4.38744   1
  -2   9   1 54.6592 4.20413   6
  -2   9   1 52.1161 5.56472   3
  -1   9   1 6.11799 1.71849   1
  -1   9   1 4.24458 2.17040   3
   0   9   1 4.35801 1.60533   1
   0   9   1 5.90454 2.14544   3
   1   9   1 9.91705 2.11322   1
   1   9   1 13.1936 3.22097   3
   2   9   1 15.8450 2.55719   1
   2   9   1 20.3741 3.74874   3
   3   9   1 19.9668 3.98291   3
   3   9   1 18.5511 2.70680   1
   4   9   1 13.0687 3.36000   3
   4   9   1 14.9013 2.43741   1
  -3  10   1 4.74019 2.24180   3
  -2  10   1 12.3903 3.06020   3
  -2  10   1 6.20407 2.05982   1
  -1  10   1 1.05599 1.34922   1
  -1  10   1 -0.2228 1.86133   3
   0  10   1 3.69320 2.12975   3
   0  10   1 0.96246 1.42027   1
  -1  11  -2 4.78607 2.49512   3
   3  10  -2 26.1896 4.08850   3
   3  10  -2 27.1105 2.88993   6
   3  10  -2 32.7811 2.61094   1
   2  10  -2 10.4052 1.79360   1
   2  10  -2 13.7565 2.06303   6
   2  10  -2 12.2572 1.72214   6
   2  10  -2 14.1481 3.06004   3
   1  10  -2 1.29542 1.67670   3
   1  10  -2 0.65935 0.78764   6
   1  10  -2 -0.5156 0.85940   1
   1  10  -2 0.56133 0.89803   6
   0  10  -2 -0.9903 1.36150   3
   0  10  -2 1.28367 0.91134   6
   0  10  -2 2.54735 1.21377   1
   0  10  -2 1.77726 1.04292   6
  -1  10  -2 8.79455 1.77762   1
  -1  10  -2 15.8692 3.04542   3
  -1  10  -2 11.4342 2.06069   6
  -1  10  -2 8.38022 1.75401   6
  -2  10  -2 0.28372 0.95721   6
  -2  10  -2 0.82809 1.51038   3
  -2  10  -2 -1.2289 0.93384   1
  -3  10  -2 12.5159 2.19883   6
  -3  10  -2 13.3974 3.05854   3
  -3  10  -2 9.96510 2.14467   1
  -4  10  -2 -0.5177 1.23926   1
  -4  10  -2 -0.8416 1.57833   3
  -5  10  -2 35.2484 4.63037   3
  -5  10  -2 46.1588 4.77530   1
   5   9  -2 3.82144 1.14817   1
   5   9  -2 2.01811 2.03485   3
   5   9  -2 1.53893 1.04069   6
   4   9  -2 7.70000 1.41111   1
   4   9  -2 5.96729 2.33998   3
   4   9  -2 8.48955 1.50276   6
   3   9  -2 24.9847 2.17913   6
   3   9  -2 28.5244 2.00571   6
   3   9  -2 30.8098 2.25522   1
   3   9  -2 30.6173 4.20467   3
   2   9  -2 1.27774 0.79218   6
   2   9  -2 -0.7628 1.30739   3
   2   9  -2 -0.0643 0.63569   1
   2   9  -2 0.58621 0.62467   6
   1   9  -2 27.7867 2.23147   6
   1   9  -2 34.1138 2.41619   1
   1   9  -2 28.5176 2.16355   6
   1   9  -2 25.1862 3.68481   3
   0   9  -2 39.9287 2.69774   6
   0   9  -2 38.3254 2.71113   1
   0   9  -2 32.3293 2.55079   6
   0   9  -2 40.3918 4.48758   3
  -1   9  -2 155.203 6.90373   6
  -1   9  -2 147.857 6.72660   6
  -1   9  -2 155.906 6.86514   1
  -1   9  -2 157.954 8.18651   3
  -2   9  -2 28.0317 3.75817   3
  -2   9  -2 27.5968 2.98012   6
  -2   9  -2 27.9540 3.00110   1
  -3   9  -2 16.3844 2.37699   6
  -3   9  -2 17.0491 3.00255   3
  -3   9  -2 17.6861 2.51294   1
  -4   9  -2 10.9118 2.58605   3
  -4   9  -2 11.3119 2.26945   1
  -4   9  -2 15.6211 2.77054   6
  -5   9  -2 -1.3863 1.34385   3
  -5   9  -2 1.50962 1.34639   1
  -6   9  -2 0.90226 1.29739   1
  -6   9  -2 -1.3365 1.79029   3
  -7   9  -2 15.1151 3.03080   1
  -7   9  -2 9.25000 2.82472   3
   6   8  -2 4.02668 1.33250   6
   6   8  -2 5.42824 1.98255   5
   6   8  -2 7.23313 1.51763   1
   5   8  -2 2.18069 0.92501   1
   5   8  -2 0.38258 0.72434   6
   4   8  -2 9.63033 1.38224   1
   4   8  -2 8.83013 2.24171   3
   3   8  -2 0.72120 1.26802   3
   3   8  -2 1.91559 0.79916   1
   2   8  -2 19.9273 1.84766   1
   2   8  -2 25.8071 3.48453   3
   1   8  -2 46.7047 2.65886   1
   1   8  -2 58.4623 5.18633   3
   1   8  -2 48.4221 2.62192   6
   1   8  -2 44.7679 2.47183   6
   0   8  -2 0.33161 0.62962   6
   0   8  -2 0.39528 0.68229   1
   0   8  -2 0.89473 1.20267   3
   0   8  -2 0.22203 0.56529   6
  -1   8  -2 133.637 5.93654   1
  -1   8  -2 131.663 5.79670   6
  -1   8  -2 141.464 5.97845   6
  -1   8  -2 121.849 6.88227   3
  -2   8  -2 129.930 6.21463   6
  -2   8  -2 134.727 7.12130   3
  -2   8  -2 140.835 6.28649   1
  -3   8  -2 3.99196 1.32826   6
  -3   8  -2 6.58588 1.47356   1
  -3   8  -2 3.11906 1.61255   3
  -4   8  -2 3.02174 1.43978   3
  -4   8  -2 4.07420 1.28682   6
  -4   8  -2 5.00275 1.54824   1
  -5   8  -2 0.21514 1.02200   6
  -5   8  -2 1.95809 1.51011   3
  -5   8  -2 -0.4108 0.83905   1
  -6   8  -2 19.4208 3.15877   3
  -6   8  -2 19.4571 2.95814   1
  -7   8  -2 -0.3342 1.32206   1
  -7   8  -2 2.68251 1.80870   3
  -8   8  -2 21.1256 3.50244   1
   8   7  -2 72.4200 4.56801   1
   8   7  -2 62.4793 7.22282   6
   7   7  -2 5.52658 1.50419   1
   7   7  -2 3.33926 1.34697   6
   7   7  -2 4.72537 1.97970   5
   6   7  -2 10.2917 1.66894   1
   6   7  -2 9.26016 2.11246   5
   6   7  -2 9.52471 1.58145   6
  -6  -7   2 9.56474 1.55697   2
   5   7  -2 46.0005 3.84680   5
   5   7  -2 50.5631 2.77744   6
   5   7  -2 52.7098 2.98289   1
  -5  -7   2 48.2211 2.86973   2
   4   7  -2 38.1709 3.65452   5
   4   7  -2 42.1732 2.10795   4
   4   7  -2 42.7793 2.42848   1
  -4  -7   2 45.2216 2.39650   2
   3   7  -2 114.354 6.09393   3
   3   7  -2 102.638 4.03177   4
   3   7  -2 96.6950 4.18553   1
   3   7  -2 110.879 5.47969   5
   3   7  -2 103.469 4.30713   1
  -3  -7   2 109.306 4.07984   2
   2   7  -2 61.7865 2.85594   1
   2   7  -2 66.6190 2.70761   4
   2   7  -2 59.4891 2.78168   1
   2   7  -2 64.9338 4.32127   3
   1   7  -2 65.9314 4.28778   3
   1   7  -2 59.2271 2.83983   1
   1   7  -2 68.4832 3.02713   1
   0   7  -2 7.69135 1.07882   6
   0   7  -2 8.22784 1.17585   1
   0   7  -2 3.86495 1.56753   3
   0   7  -2 8.54477 1.11990   1
   0   7  -2 8.65261 1.11148   6
  -1   7  -2 262.585 10.2589   1
  -1   7  -2 299.903 10.5165   1
  -1   7  -2 284.235 10.3350   6
  -1   7  -2 290.570 11.6591   3
  -1   7  -2 279.652 10.4306   6
  -2   7  -2 21.0136 2.12645   1
  -2   7  -2 25.8019 2.14484   6
  -2   7  -2 27.7632 2.56220   1
  -2   7  -2 34.8820 3.58214   3
  -3   7  -2 21.4647 2.36636   1
  -3   7  -2 27.7771 3.03393   6
  -3   7  -2 20.7481 1.19830   2
  -3   7  -2 19.3293 2.78853   3
  -4   7  -2 45.2585 3.36720   6
  -4   7  -2 49.9523 3.43691   1
  -4   7  -2 44.2161 2.27260   2
  -4   7  -2 41.3069 4.09384   3
  -5   7  -2 49.0977 2.68061   2
  -5   7  -2 45.6113 3.62586   6
  -5   7  -2 45.6146 4.53765   3
  -5   7  -2 52.4599 3.69669   1
  -6   7  -2 0.18086 1.28769   3
  -6   7  -2 -1.1965 0.53181   2
  -6   7  -2 0.60598 1.17122   1
  -7   7  -2 17.7597 2.93188   1
  -7   7  -2 17.7935 2.13351   2
  -8   7  -2 18.7709 2.42020   2
  -8   7  -2 17.6730 3.12729   1
  -9   7  -2 0.32302 1.17211   2
  -9   7  -2 4.27537 2.21655   1
   8   6  -2 13.9326 2.27235   1
   8   6  -2 9.41004 2.05283   6
   8   6  -2 11.9582 2.64310   5
  -8  -6   2 11.4520 2.08433   2
   7   6  -2 12.4736 2.02482   4
   7   6  -2 9.54238 2.25131   5
   7   6  -2 12.5641 1.96964   1
   7   6  -2 10.9979 1.90947   6
  -7  -6   2 10.4342 1.77633   2
   6   6  -2 0.42382 0.63893   4
   6   6  -2 0.46830 0.72355   1
   6   6  -2 -0.7975 0.54505   6
   6   6  -2 1.50476 1.23510   5
  -6  -6   2 -0.7974 0.62918   2
   5   6  -2 7.73896 1.02705   6
   5   6  -2 5.60341 1.09342   1
   5   6  -2 4.39882 1.44983   5
   5   6  -2 6.72098 1.03663   4
  -5  -6   2 7.14478 1.25315   2
   4   6  -2 5.63089 0.93318   1
   4   6  -2 4.23584 1.36450   5
   4   6  -2 6.62566 0.93680   1
   4   6  -2 4.82153 0.80589   4
  -4  -6   2 5.15482 0.98337   2
   3   6  -2 7.10670 0.87553   4
   3   6  -2 9.14383 1.55520   5
   3   6  -2 8.54376 0.90843   1
   3   6  -2 8.38639 0.92058   1
  -3  -6   2 8.79952 1.02161   2
   2   6  -2 7.53143 0.82881   4
   2   6  -2 6.72695 0.77651   1
   2   6  -2 7.13015 1.59796   3
   2   6  -2 5.95154 0.72232   1
   2   6  -2 7.31489 1.32116   5
   1   6  -2 172.406 6.29847   1
   1   6  -2 176.661 7.77461   3
   1   6  -2 184.768 6.39856   1
   0   6  -2 16.3229 2.19520   3
   0   6  -2 17.3688 1.30542   1
   0   6  -2 17.6914 1.25779   1
  -1   6  -2 14.9752 1.26442   6
  -1   6  -2 13.8524 1.43396   1
  -1   6  -2 16.1237 1.56729   1
  -1   6  -2 11.7222 1.91870   3
  -1   6  -2 14.2437 1.49435   6
  -2   6  -2 309.674 10.6127   2
  -2   6  -2 319.307 11.6475   1
  -2   6  -2 338.725 11.7887   1
  -2   6  -2 334.857 11.9086   6
  -2   6  -2 323.747 12.5198   3
   2  -6   2 316.497 11.0019   1
   2  -6   2 322.834 10.7165   5
  -3   6  -2 80.8394 3.36292   2
  -3   6  -2 90.2447 4.48130   6
  -3   6  -2 86.4183 4.78511   3
  -3   6  -2 83.9453 4.20453   1
  -3   6  -2 86.8381 4.28057   1
  -4   6  -2 31.0130 2.51651   1
  -4   6  -2 31.1033 2.64580   6
  -4   6  -2 37.6064 3.65218   3
  -4   6  -2 29.7371 1.85975   2
   4  -6   2 30.1154 2.25135   1
  -5   6  -2 2.13988 1.08362   6
  -5   6  -2 -0.0067 1.03198   3
  -5   6  -2 -0.2241 0.62346   2
  -5   6  -2 -0.5909 0.80509   1
   5  -6   2 0.78716 0.84475   1
   5  -6   2 1.03558 0.42755   5
  -6   6  -2 163.005 7.33670   1
  -6   6  -2 146.429 6.21297   2
  -6   6  -2 140.289 7.21126   6
  -6   6  -2 141.079 7.34645   3
   6  -6   2 136.609 5.53059   5
   6  -6   2 148.984 6.79207   1
  -7   6  -2 47.1686 4.49439   1
  -7   6  -2 44.0712 3.10914   2
   7  -6   2 44.3214 3.52246   1
  -8   6  -2 146.138 6.95196   2
  -8   6  -2 154.279 8.05609   1
  -9   6  -2 1.80949 1.18575   2
  -9   6  -2 -0.3857 1.38873   1
   9   5  -2 9.96625 1.86074   4
   9   5  -2 10.7289 2.17608   1
  -9  -5   2 7.74170 1.91726   2
   8   5  -2 31.4163 3.36668   6
   8   5  -2 40.0114 3.12509   1
   8   5  -2 36.8553 4.30749   5
   8   5  -2 37.8801 3.12171   4
  -8  -5   2 32.9207 3.33424   2
   7   5  -2 8.06472 1.55015   1
   7   5  -2 8.34183 1.99207   5
   7   5  -2 5.38719 1.16465   4
   7   5  -2 5.27680 1.36304   6
  -7  -5   2 7.16130 1.52739   2
   6   5  -2 219.415 8.44275   1
   6   5  -2 208.392 8.12948   4
   6   5  -2 219.636 9.69031   5
   6   5  -2 207.123 8.27319   6
  -6  -5   2 219.470 8.63828   2
   5   5  -2 96.8148 4.37157   1
   5   5  -2 112.693 5.67646   5
   5   5  -2 102.691 4.34943   4
   5   5  -2 106.556 4.52921   1
   5   5  -2 97.8119 4.39842   1
  -5  -5   2 110.635 4.76458   2
   4   5  -2 350.171 12.3280   4
   4   5  -2 352.354 12.2878   1
   4   5  -2 357.313 13.6085   5
   4   5  -2 354.329 12.2886   1
   4   5  -2 361.205 12.3390   1
  -4  -5   2 376.566 12.6667   2
   3   5  -2 33.8217 2.53733   5
   3   5  -2 39.0231 1.91649   4
   3   5  -2 38.8944 1.72639   1
   3   5  -2 37.5133 1.95869   2
   3   5  -2 38.8195 1.76489   1
  -3  -5   2 37.4619 2.01826   2
   2   5  -2 25.8236 1.43049   4
   2   5  -2 25.6229 1.35626   2
   2   5  -2 27.5384 1.98323   5
  -2  -5   2 28.6821 1.40438   2
   1   5  -2 66.9602 3.72432   3
   1   5  -2 72.2224 3.31569   5
   1   5  -2 70.0497 2.58825   1
   1   5  -2 70.1109 2.58765   1
   0   5  -2 535.604 18.7131   3
   0   5  -2 523.427 17.5362   1
   0   5  -2 534.610 17.5715   1
  -1   5  -2 651.669 22.1150   3
  -1   5  -2 663.883 21.0903   6
  -1   5  -2 621.090 21.1442   1
  -1   5  -2 646.358 21.1959   6
  -1   5  -2 663.732 21.2671   1
   1  -5   2 556.307 22.4444   3
  -2   5  -2 15.8406 1.56905   1
  -2   5  -2 15.9523 1.63631   6
  -2   5  -2 16.6399 2.06458   3
  -2   5  -2 20.1079 1.86277   1
  -2   5  -2 17.5825 1.00519   2
   2  -5   2 17.2756 1.21445   1
  -3   5  -2 3.95100 0.69176   2
  -3   5  -2 3.76301 0.99189   1
  -3   5  -2 1.87022 0.76135   1
  -3   5  -2 4.68573 1.19285   6
  -3   5  -2 2.13670 1.04487   3
   3  -5   2 4.01164 0.89661   1
   3  -5   2 4.42795 0.71169   6
  -4   5  -2 41.8010 2.26640   2
  -4   5  -2 41.7701 2.93079   6
  -4   5  -2 46.5479 2.94425   1
  -4   5  -2 39.7340 3.06543   3
   4  -5   2 41.9782 1.82861   5
   4  -5   2 45.3761 2.68612   1
   4  -5   2 37.7947 2.38566   6
  -5   5  -2 23.4055 2.68940   6
  -5   5  -2 24.8883 2.84631   3
  -5   5  -2 26.7953 2.24063   2
  -5   5  -2 26.0257 2.76044   1
   5  -5   2 25.5904 2.48935   1
   5  -5   2 24.1464 1.51232   5
  -6   5  -2 0.18595 0.78253   6
  -6   5  -2 1.27390 0.80451   2
  -6   5  -2 1.03226 0.96943   1
   6  -5   2 0.68638 0.90983   1
   6  -5   2 1.79197 0.62003   5
  -7   5  -2 5.80857 1.70692   1
  -7   5  -2 5.63806 1.31811   2
   7  -5   2 3.90188 1.36045   1
   7  -5   2 2.40102 0.84914   5
  -8   5  -2 21.8053 3.08876   1
  -8   5  -2 21.7087 2.67812   2
   8  -5   2 21.9653 2.93946   1
   8  -5   2 17.5308 2.05333   5
  -9   5  -2 12.1215 2.65602   1
  -9   5  -2 10.3457 2.03881   2
   9  -5   2 11.8988 2.45465   1
 -10   5  -2 8.52646 2.27543   2
 -10   5  -2 10.3343 2.74488   1
  10  -5   2 10.8263 2.67354   1
  10   4  -2 9.02084 2.22293   1
  10   4  -2 8.66461 1.91321   4
 -10  -4   2 6.29394 1.96830   2
   9   4  -2 22.9251 3.08292   1
   9   4  -2 20.9601 2.56142   4
   9   4  -2 23.2055 3.65740   5
  -9  -4   2 18.4856 2.69256   2
   8   4  -2 14.4084 2.43853   6
   8   4  -2 22.1513 3.31423   5
   8   4  -2 20.0098 2.30452   4
   8   4  -2 21.2072 2.61924   1
  -8  -4   2 20.2381 2.66023   2
   7   4  -2 55.1498 3.10919   4
   7   4  -2 50.0764 3.94531   5
   7   4  -2 53.9734 3.38220   6
   7   4  -2 44.1141 3.14077   1
  -7  -4   2 50.2538 3.34072   2
   6   4  -2 45.8189 2.74167   4
   6   4  -2 49.0434 3.66659   5
   6   4  -2 50.4552 2.90187   6
   6   4  -2 44.4933 2.89151   1
  -6  -4   2 48.6237 3.03542   2
   5   4  -2 395.496 13.4507   6
   5   4  -2 376.598 13.6331   1
   5   4  -2 396.916 13.6542   4
   5   4  -2 406.527 14.9055   5
   5   4  -2 389.146 13.6977   1
  -5  -4   2 386.352 13.9469   2
   4   4  -2 275.956 10.6578   5
   4   4  -2 271.592 9.56735   1
   4   4  -2 264.260 9.52426   1
   4   4  -2 276.328 9.63867   4
  -4  -4   2 278.453 9.89922   2
   3   4  -2 5.95266 0.63739   1
   3   4  -2 5.67977 0.77748   4
   3   4  -2 8.00223 1.26435   5
   3   4  -2 6.25260 0.66252   1
   3   4  -2 7.01265 0.93801   2
  -3  -4   2 7.14898 0.91941   2
   2   4  -2 141.923 5.08441   4
   2   4  -2 133.577 5.03479   2
   2   4  -2 142.060 5.66241   5
  -2  -4   2 140.454 5.06888   2
   1   4  -2 98.2078 3.95476   5
   1   4  -2 92.1111 4.27552   3
   1   4  -2 95.0622 3.41036   2
   0   4  -2 112.933 4.08751   1
   0   4  -2 113.813 4.29185   5
   0   4  -2 122.565 3.90556   2
   0   4  -2 110.882 4.06002   1
   0   4  -2 118.277 4.93594   3
  -1   4  -2 1812.10 58.6352   1
  -1   4  -2 1873.18 58.6974   1
  -1   4  -2 1876.07 58.5336   6
  -1   4  -2 1872.17 58.6548   6
  -1   4  -2 1833.87 58.2313   2
  -1   4  -2 1876.28 59.3272   3
   1  -4   2 1610.35 58.6587   1
   1  -4   2 1823.28 58.2619   1
   1  -4   2 1764.76 59.2870   3
  -2   4  -2 296.096 9.86909   2
  -2   4  -2 298.499 10.7773   3
  -2   4  -2 281.164 10.3275   1
  -2   4  -2 286.937 10.3021   1
  -2   4  -2 295.896 10.5264   6
   2  -4   2 289.108 10.7785   3
  -3   4  -2 1373.73 45.6616   6
  -3   4  -2 1339.69 45.3004   1
  -3   4  -2 1386.93 44.8216   2
  -3   4  -2 1378.55 45.4056   1
  -3   4  -2 1413.26 45.7345   3
   3  -4   2 1381.84 44.2989   5
   3  -4   2 1379.56 45.2303   6
   3  -4   2 1368.04 45.0324   6
   3  -4   2 1386.25 45.1634   1
  -4   4  -2 272.591 10.3809   3
  -4   4  -2 261.191 10.3039   6
  -4   4  -2 275.457 10.1647   1
  -4   4  -2 264.001 9.53336   2
   4  -4   2 259.365 9.07528   5
   4  -4   2 265.706 9.87355   1
   4  -4   2 251.429 10.0528   6
  -5   4  -2 3.58583 1.10957   1
  -5   4  -2 2.98005 1.17218   6
  -5   4  -2 2.59823 0.79517   2
   5  -4   2 3.50765 0.72606   5
   5  -4   2 1.55813 0.89686   6
   5  -4   2 2.38507 0.95037   1
  -6   4  -2 180.972 8.46473   6
  -6   4  -2 200.472 8.47723   1
  -6   4  -2 196.982 7.86955   2
   6  -4   2 185.154 8.56871   6
   6  -4   2 197.077 8.23258   1
   6  -4   2 198.588 7.51629   5
  -7   4  -2 331.513 15.6790   6
  -7   4  -2 364.801 14.0308   1
  -7   4  -2 367.252 13.4366   2
   7  -4   2 374.993 13.8880   1
   7  -4   2 343.342 14.2933   6
   7  -4   2 359.100 13.5629   4
   7  -4   2 342.219 12.9572   5
  -8   4  -2 16.7962 2.73655   1
  -8   4  -2 17.4545 2.32771   2
   8  -4   2 16.1482 2.51995   1
   8  -4   2 16.8694 2.11290   5
  -9   4  -2 11.1151 2.45506   1
  -9   4  -2 11.7425 2.17655   2
   9  -4   2 13.1498 2.10757   5
   9  -4   2 14.4353 2.61168   1
 -10   4  -2 3.06538 1.54356   2
 -10   4  -2 1.61917 1.66843   1
  10  -4   2 3.67288 1.71524   1
  10   3  -2 -0.1673 1.15903   4
  10   3  -2 -0.2539 1.18639   1
 -10  -3   2 0.08892 1.27774   2
   9   3  -2 31.5790 3.87106   5
   9   3  -2 32.3405 3.21620   4
   9   3  -2 41.9356 3.93369   1
  -9  -3   2 36.3863 3.73168   2
   8   3  -2 21.5336 2.86084   6
   8   3  -2 23.9139 3.11138   5
   8   3  -2 21.5356 2.68288   1
   8   3  -2 30.1263 2.79521   4
  -8  -3   2 21.3702 2.61663   2
   7   3  -2 246.256 10.3448   5
   7   3  -2 233.015 9.32623   1
   7   3  -2 238.919 9.13526   4
   7   3  -2 218.212 9.33976   6
  -7  -3   2 230.136 9.41970   2
   6   3  -2 614.758 22.8554   1
   6   3  -2 691.722 22.8422   4
   6   3  -2 689.756 23.9943   5
   6   3  -2 677.727 22.9992   1
   6   3  -2 684.718 23.0168   6
  -6  -3   2 630.604 21.8638   1
  -6  -3   2 705.212 23.2420   2
   5   3  -2 774.370 26.1870   5
   5   3  -2 752.984 25.1608   1
   5   3  -2 758.616 24.9805   6
   5   3  -2 760.838 25.0848   4
   5   3  -2 694.402 25.0319   1
  -5  -3   2 752.073 25.3662   2
   4   3  -2 64.2587 2.93877   1
   4   3  -2 71.6087 3.73634   5
   4   3  -2 65.6964 2.92713   1
   4   3  -2 68.5120 3.02581   4
  -4  -3   2 64.5207 3.17861   2
   3   3  -2 486.765 17.1938   2
   3   3  -2 525.314 16.8768   1
   3   3  -2 525.917 17.1258   4
   3   3  -2 492.623 16.8382   1
  -3  -3   2 530.847 17.2703   2
   2   3  -2 2055.84 66.7085   2
   2   3  -2 2096.03 66.6938   4
  -2  -3   2 2060.21 66.7008   2
   1   3  -2 819.637 26.5706   2
   0   3  -2 2489.67 78.1108   3
   0   3  -2 2398.66 77.6082   1
   0   3  -2 2458.24 77.6258   5
   0   3  -2 2409.92 77.7605   1
   0  -3   2 2342.16 78.0430   3
  -1   3  -2 202.005 7.22701   1
  -1   3  -2 212.192 7.25367   6
  -1   3  -2 206.428 7.56547   3
  -1   3  -2 207.759 7.25417   1
  -1   3  -2 206.988 7.22712   1
   1  -3   2 208.973 7.05330   1
   1  -3   2 214.171 7.61679   3
   1  -3   2 201.821 7.05459   1
  -2   3  -2 162.272 6.16761   6
  -2   3  -2 143.920 5.99343   4
  -2   3  -2 158.921 6.17457   3
  -2   3  -2 152.918 5.65597   2
  -2   3  -2 148.692 5.90702   1
  -2   3  -2 163.097 6.01176   1
   2  -3   2 162.710 5.88236   6
   2  -3   2 166.481 6.25579   3
   2  -3   2 161.732 5.86753   1
  -3   3  -2 191.611 7.30162   1
  -3   3  -2 193.158 7.45849   3
  -3   3  -2 189.088 7.33279   1
  -3   3  -2 199.564 6.99481   2
  -3   3  -2 194.711 7.56910   6
   3  -3   2 185.642 6.59075   5
   3  -3   2 178.747 7.14734   1
   3  -3   2 196.914 7.44121   6
  -4   3  -2 111.457 4.60571   2
  -4   3  -2 107.402 5.14017   6
  -4   3  -2 102.578 4.88963   1
   4  -3   2 107.167 4.84647   1
   4  -3   2 113.588 4.34510   5
   4  -3   2 116.287 5.21055   6
  -5   3  -2 176.618 7.39937   1
  -5   3  -2 167.335 6.93031   2
  -5   3  -2 171.251 7.53954   6
   5  -3   2 175.720 7.68172   6
   5  -3   2 180.087 7.31981   1
   5  -3   2 176.326 6.73137   5
   5  -3   2 176.589 7.10178   4
  -6   3  -2 612.174 20.9104   1
  -6   3  -2 553.998 20.9232   6
   6  -3   2 578.021 20.0753   5
   6  -3   2 593.219 20.4371   4
   6  -3   2 579.348 20.6725   1
   6  -3   2 570.475 21.1621   6
  -7   3  -2 153.783 6.78157   2
  -7   3  -2 140.203 7.13532   6
  -7   3  -2 155.488 7.23736   1
   7  -3   2 161.734 6.89795   4
   7  -3   2 146.866 7.07872   1
   7  -3   2 151.911 6.58050   5
   7  -3   2 147.492 7.54107   6
  -8   3  -2 -0.0106 0.94173   2
  -8   3  -2 0.69226 1.10297   1
   8  -3   2 0.34818 0.86468   5
   8  -3   2 -1.3164 0.82881   1
   8  -3   2 -0.8178 0.87398   4
  -9   3  -2 118.777 6.67108   1
  -9   3  -2 127.722 6.46539   2
   9  -3   2 124.305 6.86888   1
   9  -3   2 120.134 6.26064   5
   9  -3   2 117.779 6.29574   4
 -10   3  -2 62.5580 4.63705   2
 -10   3  -2 54.2398 5.26700   1
  10  -3   2 58.6244 5.55517   1
  10  -3   2 59.3870 4.36992   5
  10   2  -2 12.7260 2.29499   4
  10   2  -2 9.31166 2.55375   5
  10   2  -2 12.2222 2.53229   1
 -10  -2   2 19.8963 2.91025   2
   9   2  -2 2.64388 1.36436   4
   9   2  -2 5.12558 1.71213   1
   9   2  -2 3.22420 1.67073   5
  -9  -2   2 4.10836 1.41265   2
   8   2  -2 23.7328 2.54789   4
   8   2  -2 29.8277 3.42128   5
   8   2  -2 24.7830 2.84887   1
   8   2  -2 23.8195 3.03641   6
  -8  -2   2 24.2408 2.76303   2
   7   2  -2 48.8750 3.37811   6
   7   2  -2 52.5994 3.77760   5
   7   2  -2 53.7128 3.17051   4
   7   2  -2 49.2108 3.27925   1
  -7  -2   2 49.8737 3.27961   2
   6   2  -2 201.381 7.89987   4
   6   2  -2 221.141 8.26543   6
   6   2  -2 188.090 7.96591   1
   6   2  -2 198.631 8.05065   1
  -6  -2   2 199.470 7.53092   1
  -6  -2   2 207.627 8.19147   2
   5   2  -2 140.764 5.49113   4
   5   2  -2 134.140 5.51638   1
   5   2  -2 135.606 5.47678   6
   5   2  -2 121.021 5.40132   1
  -5  -2   2 132.837 5.08582   1
  -5  -2   2 143.329 5.71543   2
   4   2  -2 311.636 10.8962   4
   4   2  -2 319.810 10.9025   1
   4   2  -2 320.884 10.7259   6
   4   2  -2 284.464 10.7651   1
  -4  -2   2 305.617 10.4581   1
  -4  -2   2 319.634 11.0865   2
   3   2  -2 378.443 13.2160   2
   3   2  -2 386.695 12.9708   1
   3   2  -2 388.028 12.9685   1
   3   2  -2 398.783 13.1262   4
  -3  -2   2 377.750 13.0585   4
  -3  -2   2 390.350 13.2381   2
  -3  -2   2 383.891 12.5456   1
   2   2  -2 9787.68 312.056   2
   2   2  -2 9773.88 311.821   4
   2   2  -2 9420.67 310.673   1
   2   2  -2 9646.44 310.648   1
  -2  -2   2 9818.91 312.697   2
   1   2  -2 1248.37 40.3098   2
   0   2  -2 9723.31 313.271   3
   0   2  -2 9507.45 312.042   1
   0   2  -2 9999.99 312.040   1
   0  -2   2 9719.50 313.335   3
  -1   2  -2 163.691 5.70757   6
  -1   2  -2 149.619 5.58450   1
  -1   2  -2 157.521 5.65646   3
  -1   2  -2 152.216 5.59226   1
   1  -2   2 154.726 5.52164   1
   1  -2   2 160.939 5.42715   6
   1  -2   2 163.885 5.71369   3
  -2   2  -2 61.4222 2.73852   1
  -2   2  -2 59.9548 2.74638   1
  -2   2  -2 62.7843 2.95714   6
  -2   2  -2 56.0868 2.58732   4
  -2   2  -2 65.0269 2.78383   1
  -2   2  -2 60.9897 2.32718   5
   2  -2   2 61.2789 2.82578   6
   2  -2   2 56.8800 2.64726   1
   2  -2   2 56.1415 2.77657   1
   2  -2   2 59.4765 2.77832   3
  -3   2  -2 15.1123 1.34575   2
  -3   2  -2 11.6932 1.31605   1
  -3   2  -2 12.8018 1.43925   1
   3  -2   2 13.1423 1.51675   3
   3  -2   2 11.9593 1.32899   1
   3  -2   2 12.0186 1.09347   5
   3  -2   2 12.0485 1.36164   6
  -4   2  -2 22.0701 1.64988   2
  -4   2  -2 17.1715 1.83435   1
  -4   2  -2 22.5240 1.94028   6
   4  -2   2 22.4692 1.79453   1
   4  -2   2 20.2027 1.85137   4
   4  -2   2 22.3968 2.00410   6
   4  -2   2 19.3819 1.49981   5
   4  -2   2 26.5228 2.50448   3
  -5   2  -2 595.921 20.9979   1
  -5   2  -2 594.716 21.1875   6
  -5   2  -2 603.856 20.6846   2
   5  -2   2 607.641 20.9720   1
   5  -2   2 591.462 21.3909   6
   5  -2   2 614.772 20.7012   4
   5  -2   2 602.104 20.5898   5
  -6   2  -2 157.181 6.62326   2
  -6   2  -2 159.458 6.94436   1
  -6   2  -2 145.278 6.91548   6
   6  -2   2 158.744 6.61026   4
   6  -2   2 157.997 6.59003   5
   6  -2   2 147.800 7.21699   6
   6  -2   2 152.225 6.82582   1
  -7   2  -2 316.055 12.3361   2
  -7   2  -2 332.859 12.7606   1
  -7   2  -2 305.427 12.6574   6
   7  -2   2 317.528 13.2322   6
   7  -2   2 326.150 12.3404   4
   7  -2   2 341.483 12.8158   1
   7  -2   2 326.824 12.4350   5
  -8   2  -2 258.100 10.7243   2
  -8   2  -2 275.379 11.0936   1
   8  -2   2 260.607 10.6048   4
   8  -2   2 261.742 11.1011   1
   8  -2   2 255.043 10.7330   5
  -9   2  -2 1.64684 1.15966   2
  -9   2  -2 1.63004 1.29014   1
   9  -2   2 1.74060 1.47123   1
   9  -2   2 2.71606 1.35564   5
   9  -2   2 1.72058 1.32380   4
 -10   2  -2 27.9529 3.53206   2
  10  -2   2 25.0893 3.22318   4
  10  -2   2 23.2623 3.24293   5
  10  -2   2 26.1910 3.77852   1
  10   1  -2 7.52848 2.02831   1
  10   1  -2 5.94171 1.80149   4
  10   1  -2 5.07451 1.89499   5
 -10  -1   2 4.95586 1.66552   2
   9   1  -2 29.1482 3.40023   1
   9   1  -2 31.0423 3.77720   5
   9   1  -2 30.5901 3.15660   4
  -9  -1   2 23.6172 2.91098   2
   8   1  -2 177.909 8.45926   6
   8   1  -2 180.161 8.20261   1
   8   1  -2 196.834 8.04518   4
  -8  -1   2 186.517 8.19093   2
   7   1  -2 80.2579 4.48340   6
   7   1  -2 74.3924 4.23646   1
   7   1  -2 80.8167 4.11496   4
  -7  -1   2 73.1200 3.87835   1
  -7  -1   2 73.1935 4.16010   2
   6   1  -2 -0.1478 0.68979   4
   6   1  -2 -0.1617 0.55725   6
   6   1  -2 -0.2291 0.53983   1
  -6  -1   2 -0.5201 0.58124   2
  -6  -1   2 0.21248 0.55767   1
   5   1  -2 -0.4860 0.39363   1
   5   1  -2 0.02803 0.48797   4
   5   1  -2 -0.1116 0.48377   1
   5   1  -2 -0.4117 0.40822   6
  -5  -1   2 0.08417 0.41338   1
  -5  -1   2 0.16071 0.50785   2
   4   1  -2 135.699 5.52211   1
   4   1  -2 146.990 5.60957   1
   4   1  -2 143.613 5.55887   6
   4   1  -2 142.757 5.52018   4
  -4  -1   2 143.016 5.66098   2
  -4  -1   2 137.982 5.38838   1
   3   1  -2 361.925 11.5260   6
   3   1  -2 340.021 11.6260   1
   3   1  -2 332.419 11.5842   1
   3   1  -2 331.270 11.6861   2
  -3  -1   2 331.435 11.6884   2
  -3  -1   2 330.734 11.5671   4
   2   1  -2 3509.13 110.243   4
   2   1  -2 3334.32 111.689   1
   2   1  -2 3398.29 111.434   1
   2   1  -2 3503.37 110.317   2
  -2  -1   2 3383.54 110.198   4
  -2  -1   2 3547.28 111.078   2
  -2  -1   2 3377.28 110.822   1
   1   1  -2 5623.99 179.400   1
   1   1  -2 5622.97 179.468   2
  -1  -1   2 5433.11 179.070   1
  -1  -1   2 5559.85 178.599   1
  -1   1  -2 256.537 8.58801   6
  -1   1  -2 229.424 8.35632   1
   1  -1   2 249.985 8.49497   6
   1  -1   2 243.479 8.35484   1
   1  -1   2 237.993 8.35536   1
  -2   1  -2 1233.32 39.9086   5
  -2   1  -2 1246.78 40.1464   1
  -2   1  -2 1249.22 40.3887   6
  -2   1  -2 1200.91 39.8943   4
  -2   1  -2 1205.38 40.0898   1
   2  -1   2 1239.66 40.1136   1
   2  -1   2 1273.05 40.3794   6
   2  -1   2 1195.02 40.0403   1
  -3   1  -2 1283.92 42.2992   1
  -3   1  -2 1279.64 42.5481   6
  -3   1  -2 1272.72 42.0492   5
  -3   1  -2 1262.35 42.2361   4
  -3   1  -2 1295.75 42.3179   1
   3  -1   2 1307.04 42.1200   5
   3  -1   2 1346.83 42.6361   6
   3  -1   2 1267.43 42.3065   1
  -4   1  -2 450.970 16.2181   6
  -4   1  -2 442.764 15.9456   1
  -4   1  -2 456.312 15.7976   2
   4  -1   2 467.622 15.8588   5
   4  -1   2 456.737 16.3807   6
   4  -1   2 450.312 15.6609   4
   4  -1   2 472.324 16.0627   1
  -5   1  -2 232.554 8.88305   2
  -5   1  -2 233.201 9.18490   6
  -5   1  -2 221.485 8.98099   1
   5  -1   2 228.361 8.71974   4
   5  -1   2 229.258 8.91116   5
   5  -1   2 246.282 9.17086   1
  -6   1  -2 48.0095 3.15754   1
  -6   1  -2 42.9966 2.87988   2
  -6   1  -2 45.1183 3.09179   6
   6  -1   2 52.1076 3.29134   1
   6  -1   2 49.8865 3.10614   5
   6  -1   2 49.1230 2.93574   4
  -7   1  -2 80.9066 4.55490   6
  -7   1  -2 81.7612 4.49749   2
  -7   1  -2 82.8667 4.67752   1
   7  -1   2 83.4005 4.63989   5
   7  -1   2 90.4559 4.86147   1
   7  -1   2 90.1055 4.48860   4
  -8   1  -2 5.17571 1.50968   1
  -8   1  -2 4.19196 1.34075   2
   8  -1   2 5.66464 1.49014   5
   8  -1   2 5.34331 1.45647   4
   8  -1   2 5.07921 1.58427   1
  -9   1  -2 1.08136 1.07958   2
  -9   1  -2 2.91229 1.47619   1
   9  -1   2 2.97863 1.65816   1
   9  -1   2 2.07094 1.31805   4
   9  -1   2 1.82024 1.38760   5
 -10   1  -2 9.07737 2.07846   2
  10  -1   2 7.37227 2.12792   1
  10  -1   2 7.48902 1.92155   4
  10  -1   2 4.32677 1.68039   5
  11   0  -2 59.6044 5.71726   1
  11   0  -2 58.0847 5.07130   4
 -11   0   2 52.2757 4.86690   2
  10   0  -2 58.4913 4.26379   4
  10   0  -2 50.9860 5.16422   5
  10   0  -2 57.0960 4.48266   1
 -10   0   2 53.3194 4.76064   2
   9   0  -2 0.09979 1.06671   1
   9   0  -2 -0.9886 0.93749   4
  -9   0   2 -0.0192 1.03064   2
   8   0  -2 0.36712 0.95855   4
   8   0  -2 -0.2363 1.72889   6
   8   0  -2 0.30179 0.95914   1
  -8   0   2 -1.0827 0.72626   2
  -8   0   2 1.07611 1.03535   1
   7   0  -2 43.4233 2.95377   4
   7   0  -2 41.8082 3.19345   6
   7   0  -2 45.1836 3.15731   1
  -7   0   2 43.9906 2.96151   1
  -7   0   2 38.4930 2.83848   2
   6   0  -2 50.3854 3.12070   1
   6   0  -2 49.6712 3.20600   6
   6   0  -2 51.4649 2.96027   4
  -6   0   2 50.4133 2.99443   1
  -6   0   2 47.5386 2.97964   2
   5   0  -2 255.530 9.64648   1
   5   0  -2 265.680 9.82031   6
   5   0  -2 260.212 9.48844   4
  -5   0   2 252.799 9.56981   2
  -5   0   2 242.834 9.48256   1
   4   0  -2 3.77352 0.95016   3
   4   0  -2 3.92554 0.74229   6
   4   0  -2 4.28597 0.88975   1
   4   0  -2 3.95372 0.87768   1
   4   0  -2 4.52830 0.87823   4
  -4   0   2 4.26493 0.84433   1
  -4   0   2 4.24926 0.82383   2
   3   0  -2 1052.93 34.2094   4
   3   0  -2 1040.94 34.3607   6
   3   0  -2 1012.82 34.3310   1
   3   0  -2 1078.60 34.3426   1
   3   0  -2 1034.51 34.4140   3
   3   0  -2 1044.38 34.2892   2
  -3   0   2 1065.91 34.3047   1
  -3   0   2 1031.23 34.2993   2
   2   0  -2 723.290 23.3096   1
   2   0  -2 717.939 23.1974   4
   2   0  -2 700.162 23.2736   3
   2   0  -2 675.758 23.2883   1
   2   0  -2 727.690 23.2751   2
  -2   0   2 701.140 23.1684   4
  -2   0   2 707.034 23.2681   2
  -2   0   2 730.505 23.3081   3
  -2   0   2 693.820 23.2716   1
  -2   0   2 693.584 23.2291   1
   1   0  -2 2372.12 71.8295   6
   1   0  -2 2291.31 72.6235   4
   1   0  -2 2110.31 71.7361   1
   1   0  -2 2152.24 71.5989   3
  -1   0   2 2288.03 72.0032   3
  -1   0   2 2253.13 72.5478   1
  -1   0   2 2152.80 71.6872   1
   0   0  -2 347.977 11.5811   1
   0   0   2 350.124 11.6441   6
   0   0   2 336.664 11.5250   1
  -1   0  -2 2064.40 70.1745   1
  -1   0  -2 2228.69 70.1970   1
  -1   0  -2 2243.31 70.4253   6
   1   0   2 2150.27 70.1536   1
   1   0   2 2207.42 71.1802   1
  -2   0  -2 3327.47 106.193   6
  -2   0  -2 3268.48 106.855   1
  -2   0  -2 3219.10 105.918   1
  -2   0  -2 3313.86 105.615   4
  -2   0  -2 3360.94 105.995   5
   2   0   2 3356.12 107.234   1
   2   0   2 3206.05 105.885   1
  -3   0  -2 1449.02 49.6063   4
  -3   0  -2 1576.39 50.0531   1
  -3   0  -2 1599.27 50.0848   1
  -3   0  -2 1551.03 50.0661   5
  -3   0  -2 1589.95 50.2771   6
   3   0   2 1456.82 49.9542   1
   3   0   2 1539.58 50.0809   1
   3   0   2 1505.69 50.3503   6
   3   0   2 1522.58 50.0899   5
  -4   0  -2 1722.45 58.9884   5
  -4   0  -2 1824.98 59.1405   6
  -4   0  -2 1766.43 58.9634   1
  -4   0  -2 1823.00 58.8992   2
   4   0   2 1786.95 58.5722   4
   4   0   2 1819.22 59.1252   5
   4   0   2 1852.16 59.1030   1
   4   0   2 1843.25 59.4617   6
  -5   0  -2 852.946 28.8220   1
  -5   0  -2 836.064 28.8106   6
  -5   0  -2 856.295 28.7512   2
   5   0   2 827.866 28.3700   4
   5   0   2 868.604 29.4116   6
   5   0   2 868.282 29.0265   1
   5   0   2 843.811 28.9783   5
  -6   0  -2 6.72980 1.29899   6
  -6   0  -2 17.4687 2.06940   2
  -6   0  -2 11.2937 1.72987   1
   6   0   2 12.0462 1.86024   1
   6   0   2 14.3001 2.17893   6
   6   0   2 8.56933 1.59080   5
   6   0   2 11.8079 1.58409   4
  -7   0  -2 187.872 8.18470   1
  -7   0  -2 173.714 7.86533   6
  -7   0  -2 201.320 8.27897   2
   7   0   2 200.838 7.93559   4
   7   0   2 191.089 8.50354   5
   7   0   2 200.475 8.53861   1
   7   0   2 191.933 8.91766   6
  -8   0  -2 7.71427 1.78866   1
  -8   0  -2 7.36885 1.62340   2
   8   0   2 9.62704 1.69751   4
   8   0   2 6.64035 1.74316   5
   8   0   2 4.68099 1.59120   1
  -9   0  -2 45.5282 4.07934   2
   9   0   2 40.6728 4.19211   5
   9   0   2 54.5064 3.62529   4
   9   0   2 52.3243 4.82223   1
 -10   0  -2 78.5367 5.21859   2
  10   0   2 79.6156 4.79325   4
  10   0   2 73.4271 5.35285   1
  10   0   2 71.4862 5.37853   5
  11  -1  -2 6.06871 1.99133   4
  11  -1  -2 5.60993 2.13439   1
 -11   1   2 9.55702 2.30472   2
  10  -1  -2 26.4860 3.69302   5
  10  -1  -2 27.8878 3.38067   4
  10  -1  -2 33.5084 3.94631   1
 -10   1   2 27.1973 3.36551   2
   9  -1  -2 0.17713 1.10936   1
   9  -1  -2 -0.6404 0.97401   4
  -9   1   2 0.09993 1.11482   2
   8  -1  -2 79.6458 4.45469   4
   8  -1  -2 70.3603 4.53521   1
  -8   1   2 69.7279 4.29138   2
  -8   1   2 72.9700 4.43716   1
   7  -1  -2 32.3050 2.88468   4
   7  -1  -2 33.1206 3.18233   1
   7  -1  -2 36.5504 3.77023   6
  -7   1   2 35.4192 3.11043   2
  -7   1   2 27.3381 2.85443   1
   6  -1  -2 143.648 6.02582   1
   6  -1  -2 122.076 5.96449   6
   6  -1  -2 129.912 5.60450   4
  -6   1   2 131.336 5.80883   1
  -6   1   2 117.959 5.55011   2
  -6   1   2 114.735 5.43815   6
   5  -1  -2 7.34024 1.31026   1
   5  -1  -2 4.22680 1.02141   6
   5  -1  -2 6.35007 1.17867   4
  -5   1   2 6.03108 1.26034   1
  -5   1   2 4.87071 0.99212   2
  -5   1   2 6.24824 1.19993   6
   4  -1  -2 521.595 18.2707   6
   4  -1  -2 533.721 18.1587   1
   4  -1  -2 524.199 17.9033   4
   4  -1  -2 514.375 18.2634   3
  -4   1   2 543.102 17.9961   2
  -4   1   2 521.541 18.0368   6
  -4   1   2 514.290 18.1072   1
   3  -1  -2 0.85385 0.62411   3
   3  -1  -2 0.00390 0.37216   6
   3  -1  -2 0.02644 0.41400   2
   3  -1  -2 0.24867 0.51181   1
   3  -1  -2 0.05418 0.45174   1
   3  -1  -2 0.08408 0.46061   4
  -3   1   2 0.29162 0.51104   1
  -3   1   2 0.02753 0.41359   2
  -3   1   2 1.89814 0.81189   3
   2  -1  -2 181.732 6.74560   3
   2  -1  -2 183.239 6.43414   4
   2  -1  -2 174.630 6.66859   1
   2  -1  -2 178.995 6.68190   1
   2  -1  -2 179.040 6.50230   2
  -2   1   2 173.582 6.61997   1
  -2   1   2 183.250 6.52427   2
  -2   1   2 176.462 6.38875   4
  -2   1   2 194.987 6.79635   3
  -2   1   2 184.314 6.72476   1
   1  -1  -2 42.5412 2.14900   6
   1  -1  -2 40.9688 2.07128   3
   1  -1  -2 38.4338 1.99012   1
   1  -1  -2 40.1072 2.01031   1
   1  -1  -2 41.1022 1.75981   4
  -1   1   2 39.6238 2.05729   3
  -1   1   2 40.3188 1.72650   4
  -1   1   2 44.9509 2.12029   1
  -1   1   2 40.9335 2.00909   1
   0  -1  -2 9.77326 1.01775   1
   0  -1  -2 8.62372 1.06611   6
   0  -1  -2 10.3997 1.04968   1
   0   1   2 9.44349 0.96210   1
   0   1   2 9.68396 1.07670   3
   0   1   2 6.49391 0.86582   6
   0   1   2 6.41804 0.86685   1
  -1  -1  -2 424.513 14.4035   1
  -1  -1  -2 418.440 14.4204   1
  -1  -1  -2 438.241 14.6286   6
   1   1   2 436.863 14.7010   6
   1   1   2 433.830 14.5061   1
   1   1   2 411.028 14.3931   1
  -2  -1  -2 279.143 9.93723   1
  -2  -1  -2 286.070 10.1144   6
  -2  -1  -2 291.682 9.51029   4
   2   1   2 291.601 10.2619   6
   2   1   2 283.446 10.0693   1
   2   1   2 264.667 9.91769   1
  -3  -1  -2 1080.32 34.8471   6
  -3  -1  -2 1059.35 34.2760   4
  -3  -1  -2 1023.84 34.9854   5
  -3  -1  -2 1036.39 34.7037   1
   3   1   2 1089.04 34.9251   1
   3   1   2 1080.90 35.0819   5
   3   1   2 1071.26 35.1577   6
   3   1   2 983.378 34.6727   1
  -4  -1  -2 258.037 9.29923   1
  -4  -1  -2 256.246 9.27709   6
  -4  -1  -2 251.231 9.26198   2
  -4  -1  -2 238.161 9.48772   5
   4   1   2 263.126 9.72135   5
   4   1   2 247.943 9.70639   6
   4   1   2 246.227 9.43605   1
   4   1   2 231.112 9.55789   1
  -5  -1  -2 1.05430 0.57670   6
  -5  -1  -2 1.55721 0.70864   1
  -5  -1  -2 1.31742 0.74357   2
   5   1   2 1.74683 0.73000   4
   5   1   2 1.79087 0.81547   1
   5   1   2 0.68983 0.64600   6
   5   1   2 1.47667 0.89345   5
  -6  -1  -2 29.3622 2.70465   2
  -6  -1  -2 27.4131 2.02698   6
  -6  -1  -2 31.4735 2.37989   1
   6   1   2 24.4744 2.60898   1
   6   1   2 28.6415 2.11885   4
   6   1   2 27.3677 2.78534   6
   6   1   2 27.5918 2.90543   5
  -7  -1  -2 9.12409 1.67974   2
  -7  -1  -2 9.46494 1.68226   1
   7   1   2 10.0782 1.93551   5
   7   1   2 6.65466 1.58242   6
   7   1   2 7.27963 1.66911   1
   7   1   2 8.54988 1.44398   4
  -8  -1  -2 11.5776 1.99844   2
   8   1   2 10.5292 2.23043   1
   8   1   2 12.0898 1.82474   4
   8   1   2 13.3335 2.35971   5
  -9  -1  -2 38.3240 3.97614   2
   9   1   2 33.6209 3.86780   1
   9   1   2 34.3787 4.06882   5
   9   1   2 37.3174 3.45718   4
 -10  -1  -2 32.2726 3.82518   2
  10   1   2 36.8832 4.31602   1
  10   1   2 22.5719 3.46355   5
  10  -2  -2 -2.1070 1.01328   4
  10  -2  -2 -0.0251 1.28250   1
 -10   2   2 1.21000 1.33271   2
   9  -2  -2 0.78763 1.19676   1
   9  -2  -2 0.94755 1.15708   4
  -9   2   2 0.10722 0.97386   2
  -9   2   2 -0.3676 1.01752   1
   8  -2  -2 -1.3928 0.80905   1
   8  -2  -2 -0.7975 0.90169   4
  -8   2   2 0.08948 0.80684   2
  -8   2   2 1.05442 1.04671   1
   7  -2  -2 71.6775 4.49749   6
   7  -2  -2 74.0643 4.40194   1
   7  -2  -2 73.4864 4.08801   4
  -7   2   2 64.3396 3.89338   2
  -7   2   2 76.2713 4.39619   1
  -7   2   2 66.3933 3.96162   6
   6  -2  -2 68.6031 4.17381   6
   6  -2  -2 71.4378 4.05503   1
   6  -2  -2 71.3303 3.83243   4
  -6   2   2 78.8259 4.18518   1
  -6   2   2 66.9785 3.71386   2
  -6   2   2 69.5123 3.87982   6
   5  -2  -2 40.0771 2.53152   4
   5  -2  -2 42.1832 2.82563   1
   5  -2  -2 38.6081 2.77196   6
  -5   2   2 42.4873 2.85087   1
  -5   2   2 42.2791 2.56319   2
  -5   2   2 41.2704 2.69969   6
   4  -2  -2 19.9104 1.94054   1
   4  -2  -2 13.1282 1.43744   4
   4  -2  -2 16.5075 1.89954   6
  -4   2   2 17.7283 1.89049   1
  -4   2   2 16.8946 1.99225   3
  -4   2   2 15.5202 1.54880   2
  -4   2   2 18.0480 1.99259   6
   3  -2  -2 49.7054 2.49007   4
   3  -2  -2 51.1212 2.84693   6
   3  -2  -2 51.3899 2.81154   6
   3  -2  -2 48.1126 2.84657   3
   3  -2  -2 49.7111 2.76553   1
   3  -2  -2 47.6600 2.43177   2
  -3   2   2 53.4867 2.96899   3
  -3   2   2 50.0258 2.74298   6
  -3   2   2 47.8963 2.45497   2
  -3   2   2 52.2511 2.83195   1
   2  -2  -2 5.39377 1.12035   3
   2  -2  -2 -0.1028 0.37764   6
   2  -2  -2 -0.3076 0.39508   2
   2  -2  -2 1.13974 0.63407   1
   2  -2  -2 0.67088 0.47905   4
   2  -2  -2 -0.1164 0.45873   6
  -2   2   2 0.28981 0.57090   1
  -2   2   2 0.12883 0.58805   1
  -2   2   2 0.90935 0.60175   6
  -2   2   2 0.57340 0.42987   4
  -2   2   2 1.43296 0.76655   3
   1  -2  -2 57.6027 2.28994   4
   1  -2  -2 56.9230 2.70207   6
   1  -2  -2 55.6869 2.87139   3
   1  -2  -2 60.8815 2.85962   6
   1  -2  -2 56.5498 2.67774   1
  -1   2   2 53.8052 2.24036   4
  -1   2   2 55.3302 2.76482   1
  -1   2   2 50.2552 2.59549   1
  -1   2   2 61.0011 2.84792   6
  -1   2   2 57.8757 2.93643   3
   0  -2  -2 241.213 7.93527   4
   0  -2  -2 237.593 8.49823   6
   0  -2  -2 233.982 8.66727   6
   0  -2  -2 236.344 8.50936   1
   0   2   2 258.374 8.70312   1
   0   2   2 243.478 8.74287   6
   0   2   2 223.691 8.47637   1
  -1  -2  -2 34.1399 1.91474   6
  -1  -2  -2 32.6720 1.80352   1
   1   2   2 32.1831 1.87421   1
   1   2   2 31.1487 1.99902   6
   1   2   2 28.7543 1.78987   1
  -2  -2  -2 67.6474 2.49819   4
  -2  -2  -2 66.3850 3.04369   1
  -2  -2  -2 71.2981 3.47440   5
  -2  -2  -2 65.4159 3.03501   6
   2   2   2 67.0182 3.10865   1
   2   2   2 69.6478 3.39599   6
   2   2   2 63.5380 3.15854   1
  -3  -2  -2 532.255 17.7329   1
  -3  -2  -2 505.180 18.2230   5
  -3  -2  -2 530.108 17.6029   6
  -3  -2  -2 501.542 17.1045   4
   3   2   2 539.540 18.0306   1
   3   2   2 545.095 18.2646   6
   3   2   2 486.057 17.7931   1
  -4  -2  -2 66.3103 3.23991   1
  -4  -2  -2 70.7667 3.36843   2
  -4  -2  -2 64.0943 2.78540   4
  -4  -2  -2 62.7790 2.95017   6
  -4  -2  -2 64.0999 3.83255   5
   4   2   2 64.3260 3.70666   5
   4   2   2 71.0746 3.78125   6
   4   2   2 57.5584 3.23249   1
   4   2   2 63.9110 3.43515   1
  -5  -2  -2 3.49826 0.98050   2
  -5  -2  -2 3.14452 0.89531   1
   5   2   2 1.99335 0.88861   6
   5   2   2 4.52614 1.31883   5
   5   2   2 4.28967 1.12050   1
  -6  -2  -2 215.929 8.60070   1
  -6  -2  -2 225.017 8.88495   2
   6   2   2 204.081 8.11883   4
   6   2   2 229.328 9.56203   5
   6   2   2 219.238 9.46137   6
   6   2   2 210.396 9.01538   1
  -7  -2  -2 0.87940 0.87265   2
   7   2   2 0.30439 0.73162   4
   7   2   2 -0.3133 0.75872   1
   7   2   2 -1.1586 0.81321   5
   7   2   2 -0.3178 0.75486   6
  -8  -2  -2 7.49963 1.66742   2
   8   2   2 7.12090 1.92957   5
   8   2   2 6.84478 1.79742   1
  -9  -2  -2 9.99835 2.10525   2
   9   2   2 10.1867 2.48085   5
   9   2   2 11.5525 2.37084   1
 -10  -2  -2 4.98776 1.79570   2
  10   2   2 10.7061 2.65541   1
  10  -3  -2 86.1191 5.52670   4
  10  -3  -2 89.0252 5.97926   1
 -10   3   2 82.0044 5.47096   2
   9  -3  -2 6.91167 2.07529   1
   9  -3  -2 4.06387 1.64665   4
  -9   3   2 8.86381 1.93072   2
  -9   3   2 7.24667 2.02022   1
   8  -3  -2 92.4381 5.18022   4
   8  -3  -2 94.3563 5.60543   1
  -8   3   2 102.686 5.74768   1
  -8   3   2 90.4635 5.13295   2
   7  -3  -2 131.136 6.39643   1
   7  -3  -2 120.866 5.90001   4
  -7   3   2 118.615 5.81039   2
  -7   3   2 116.433 7.33143   6
  -7   3   2 124.119 6.29268   1
   6  -3  -2 0.28409 0.85396   1
   6  -3  -2 0.40264 0.79590   6
   6  -3  -2 3.38738 1.12320   4
  -6   3   2 1.52403 1.09809   1
  -6   3   2 0.55569 0.68056   6
  -6   3   2 1.74779 0.87268   2
   5  -3  -2 7.52913 1.50922   1
   5  -3  -2 5.90386 1.19028   6
   5  -3  -2 9.91099 1.84203   6
   5  -3  -2 8.37620 1.35905   4
  -5   3   2 7.49471 1.71992   3
  -5   3   2 8.26424 1.49569   6
  -5   3   2 8.20866 1.31985   2
  -5   3   2 9.43612 1.65035   1
   4  -3  -2 329.570 12.6984   6
   4  -3  -2 343.163 12.5950   1
   4  -3  -2 338.181 12.7312   6
   4  -3  -2 347.877 12.1970   4
  -4   3   2 344.458 12.7153   1
  -4   3   2 335.907 12.0898   2
  -4   3   2 342.073 12.7064   6
  -4   3   2 343.247 12.9478   3
   3  -3  -2 5.82255 0.92832   4
   3  -3  -2 7.18684 1.28175   1
   3  -3  -2 4.01242 0.81262   6
   3  -3  -2 4.09613 0.76818   2
   3  -3  -2 6.34941 1.26545   6
  -3   3   2 4.12756 1.03791   1
  -3   3   2 4.81419 0.85408   2
  -3   3   2 4.57726 1.16836   3
  -3   3   2 6.27074 1.24177   6
   2  -3  -2 21.6160 1.62690   1
   2  -3  -2 20.1802 1.33287   4
   2  -3  -2 17.8654 1.52402   6
   2  -3  -2 22.0069 2.25689   3
   2  -3  -2 20.5286 1.32179   2
   2  -3  -2 20.9963 1.69169   6
  -2   3   2 18.9944 2.01789   3
  -2   3   2 17.9077 1.76675   6
  -2   3   2 18.7504 1.21201   4
  -2   3   2 19.5408 1.68303   6
  -2   3   2 18.9242 1.82772   1
   1  -3  -2 9.57448 0.84430   4
   1  -3  -2 8.29011 0.87000   2
   1  -3  -2 8.22184 1.44789   3
   1  -3  -2 4.70166 0.76922   6
   1  -3  -2 8.02820 1.15116   1
   1  -3  -2 12.0983 1.45593   6
  -1   3   2 7.22727 1.01162   6
  -1   3   2 9.68691 1.55739   3
  -1   3   2 8.38997 0.75257   4
  -1   3   2 5.33892 0.94786   1
  -1   3   2 8.58105 1.23008   1
   0  -3  -2 1202.41 38.1733   6
   0  -3  -2 1172.62 37.9460   6
   0  -3  -2 1159.84 38.0176   1
   0  -3  -2 1175.94 37.2828   4
   0   3   2 1175.77 38.7568   3
   0   3   2 1184.27 38.4019   6
   0   3   2 1155.98 38.2351   1
   0   3   2 1048.32 38.0072   1
  -1  -3  -2 3.67318 0.69180   6
  -1  -3  -2 4.36011 0.68141   6
  -1  -3  -2 3.81187 0.77918   1
   1   3   2 3.42462 0.84810   6
   1   3   2 5.61032 0.96680   1
   1   3   2 4.71770 0.92191   1
  -2  -3  -2 224.356 7.70250   6
  -2  -3  -2 218.692 7.58483   6
  -2  -3  -2 213.497 8.02247   1
  -2  -3  -2 217.169 8.67926   5
   2   3   2 226.390 8.39161   1
   2   3   2 228.107 8.57448   6
   2   3   2 213.522 8.19318   1
  -3  -3  -2 161.691 5.99708   1
  -3  -3  -2 148.612 5.23504   4
  -3  -3  -2 149.589 6.64017   5
   3   3   2 135.241 6.05214   1
   3   3   2 156.260 6.33063   1
   3   3   2 163.400 6.58301   6
  -4  -3  -2 6.62182 1.08558   1
  -4  -3  -2 6.92626 1.16130   2
  -4  -3  -2 5.64894 0.72218   4
   4   3   2 5.01653 1.10849   1
   4   3   2 6.91699 1.37752   6
   4   3   2 5.14967 1.14143   1
  -5  -3  -2 16.8598 1.91996   2
  -5  -3  -2 12.4051 1.55591   1
   5   3   2 12.9699 2.00908   6
   5   3   2 10.6134 1.65850   1
  -6  -3  -2 0.01012 0.76078   2
   6   3   2 -0.0152 0.87441   1
   6   3   2 -0.0952 0.90046   6
   6   3   2 0.08626 0.94851   5
  -7  -3  -2 -0.4945 0.86331   2
   7   3   2 0.08239 0.98220   6
   7   3   2 0.30816 0.91914   5
   7   3   2 0.47348 0.95381   1
  -8  -3  -2 38.3020 3.61081   2
   8   3   2 38.2773 3.96637   1
   8   3   2 30.9753 3.93275   5
  -9  -3  -2 26.7217 3.32646   2
   9   3   2 33.2137 4.07741   1
   9   3   2 39.0090 7.14155   5
  10  -4  -2 18.7098 2.97487   4
  10  -4  -2 22.8669 3.67260   1
 -10   4   2 19.6937 3.01436   2
   9  -4  -2 16.1909 2.73010   4
   9  -4  -2 15.2859 2.79026   1
  -9   4   2 14.9078 2.78834   1
  -9   4   2 14.2394 2.39873   2
   8  -4  -2 131.086 6.94359   1
   8  -4  -2 135.547 6.56469   4
  -8   4   2 119.530 6.84800   1
  -8   4   2 130.868 6.40944   2
   7  -4  -2 24.1985 3.06433   1
   7  -4  -2 22.3678 2.63470   4
  -7   4   2 25.9327 3.33606   1
  -7   4   2 21.9444 2.57153   2
   6  -4  -2 167.206 7.90775   6
   6  -4  -2 177.706 7.48858   4
   6  -4  -2 170.723 8.05835   6
   6  -4  -2 174.950 7.86279   1
  -6   4   2 175.226 8.33396   3
  -6   4   2 177.934 8.06315   1
  -6   4   2 163.443 7.83640   6
  -6   4   2 189.989 7.44143   2
   5  -4  -2 62.2445 3.82974   1
   5  -4  -2 65.1032 3.89094   6
   5  -4  -2 64.1252 3.96281   6
   5  -4  -2 67.1551 3.57447   4
  -5   4   2 63.1958 3.37146   2
  -5   4   2 60.3967 4.11596   3
  -5   4   2 65.0263 3.99252   1
  -5   4   2 63.9426 3.93202   6
   4  -4  -2 111.035 5.21577   1
   4  -4  -2 106.302 5.25714   6
   4  -4  -2 113.702 4.88024   4
   4  -4  -2 106.853 5.26957   6
  -4   4   2 110.303 4.70203   2
  -4   4   2 118.317 5.48062   1
  -4   4   2 111.989 5.39279   6
  -4   4   2 97.7358 5.42792   3
   3  -4  -2 18.9896 1.97793   6
   3  -4  -2 22.9785 1.92885   6
   3  -4  -2 23.0852 1.89579   4
   3  -4  -2 20.7607 1.48073   2
   3  -4  -2 22.8109 2.14935   1
  -3   4   2 23.3459 2.38539   6
  -3   4   2 17.8561 2.41380   3
  -3   4   2 27.1039 2.54585   1
   2  -4  -2 0.92225 0.68150   6
   2  -4  -2 1.06287 0.64609   1
   2  -4  -2 0.81545 0.47988   6
   2  -4  -2 1.39346 0.45718   2
   2  -4  -2 0.75786 0.48033   4
  -2   4   2 1.24961 0.82192   3
  -2   4   2 0.97471 0.44004   4
  -2   4   2 0.50297 0.52028   6
  -2   4   2 1.75783 0.80047   1
  -2   4   2 0.73291 0.58244   6
   1  -4  -2 51.0625 2.64432   6
   1  -4  -2 53.9083 2.35498   2
   1  -4  -2 57.4830 2.88162   6
   1  -4  -2 52.8557 2.24069   4
   1  -4  -2 54.9354 2.80998   1
  -1   4   2 48.8486 2.96605   6
  -1   4   2 48.2973 2.13376   4
  -1   4   2 47.5188 2.76002   1
  -1   4   2 56.1180 3.06080   1
  -1   4   2 53.0246 3.37025   3
  -1   4   2 54.1410 2.96594   6
   0  -4  -2 19.0106 1.47913   1
   0  -4  -2 17.3199 0.83798   4
   0  -4  -2 18.4643 1.36757   6
   0  -4  -2 17.4359 1.20483   6
   0   4   2 16.9425 1.77091   1
   0   4   2 14.3446 1.61173   1
   0   4   2 20.9165 2.44385   3
   0   4   2 15.4276 1.64418   6
  -1  -4  -2 103.838 4.84188   5
  -1  -4  -2 90.1179 4.09999   1
   1   4   2 104.395 4.56919   1
   1   4   2 100.613 4.68061   6
   1   4   2 95.4824 4.35052   1
  -2  -4  -2 0.14759 0.28237   1
  -2  -4  -2 0.34535 0.68728   5
   2   4   2 1.31091 0.64753   1
   2   4   2 0.87036 0.69135   6
   2   4   2 0.88689 0.62953   1
  -3  -4  -2 67.9233 3.15526   2
  -3  -4  -2 60.2678 2.94992   1
  -3  -4  -2 55.5355 2.90809   1
   3   4   2 66.7562 3.71863   6
   3   4   2 61.3885 3.42289   1
   3   4   2 61.6912 3.31066   1
  -4  -4  -2 54.8293 2.81126   1
  -4  -4  -2 55.2606 2.18872   4
  -4  -4  -2 59.6070 3.15215   2
   4   4   2 58.4101 3.63848   6
   4   4   2 57.1788 3.40970   1
   4   4   2 49.9420 3.15550   1
  -5  -4  -2 22.6086 2.28918   2
   5   4   2 19.9674 2.42850   1
   5   4   2 21.8278 2.68076   6
  -6  -4  -2 82.4713 4.52803   2
   6   4   2 91.5061 4.92659   1
   6   4   2 75.8420 4.98533   6
  -7  -4  -2 35.7947 3.39509   2
   7   4   2 33.6651 3.47367   1
  -8  -4  -2 93.0974 5.47629   2
   8   4   2 101.259 5.92707   1
  -9  -4  -2 0.33170 1.27167   2
   9   4   2 1.40858 1.42101   1
   9  -5  -2 14.3072 2.63397   1
   9  -5  -2 8.27335 2.14565   4
  -9   5   2 10.6539 2.15306   2
  -9   5   2 7.20642 2.26134   1
   8  -5  -2 17.4251 2.82561   1
   8  -5  -2 19.7177 2.84513   4
  -8   5   2 15.0597 2.79916   1
  -8   5   2 21.8466 2.68038   2
   7  -5  -2 -0.5969 0.98122   4
   7  -5  -2 0.30982 1.09509   1
  -7   5   2 0.90989 1.44057   3
  -7   5   2 0.24688 0.95266   2
  -7   5   2 0.43047 1.14932   1
   6  -5  -2 44.0865 5.25865   6
   6  -5  -2 50.4595 3.29086   4
   6  -5  -2 50.3769 3.72017   1
  -6   5   2 48.9612 3.88430   1
  -6   5   2 46.9270 3.06627   2
  -6   5   2 38.3129 4.21315   3
   5  -5  -2 379.344 13.6311   4
   5  -5  -2 375.962 14.1269   1
   5  -5  -2 356.328 14.5553   6
   5  -5  -2 350.947 14.1388   6
  -5   5   2 354.757 14.6960   3
  -5   5   2 389.791 14.5323   1
  -5   5   2 374.868 13.3682   2
  -5   5   2 377.310 14.4633   6
   4  -5  -2 2.83678 1.14187   6
   4  -5  -2 3.46554 1.01685   4
   4  -5  -2 2.87937 1.07515   1
   4  -5  -2 1.92126 1.01314   6
  -4   5   2 2.34922 1.22297   1
  -4   5   2 2.29371 1.27451   3
  -4   5   2 2.79768 1.07223   6
   3  -5  -2 538.206 17.6821   4
   3  -5  -2 538.109 18.2581   1
   3  -5  -2 464.918 17.3456   2
   3  -5  -2 516.719 18.2614   6
  -3   5   2 543.293 18.6781   1
  -3   5   2 505.964 18.5835   6
  -3   5   2 496.683 18.9872   3
   2  -5  -2 120.151 5.06415   2
   2  -5  -2 134.939 5.83451   1
   2  -5  -2 144.889 5.30239   4
   2  -5  -2 135.725 5.82095   6
  -2   5   2 138.259 6.13317   6
  -2   5   2 138.338 6.68603   3
  -2   5   2 145.103 6.22956   1
  -2   5   2 133.146 6.13919   6
   1  -5  -2 154.921 5.43569   4
   1  -5  -2 156.578 6.19041   1
   1  -5  -2 149.715 7.26720   6
   1  -5  -2 143.371 5.49248   2
  -1   5   2 136.568 5.30517   4
  -1   5   2 161.325 6.64460   1
  -1   5   2 161.076 7.28079   3
  -1   5   2 151.565 6.48220   6
  -1   5   2 150.765 6.60021   6
   0  -5  -2 11.2940 1.37109   1
   0   5   2 9.63168 1.38107   1
   0   5   2 17.7270 2.25366   6
   0   5   2 15.1489 2.29087   3
   0   5   2 12.7753 1.77036   1
  -1  -5  -2 26.4247 1.79772   1
   1   5   2 32.9314 2.36704   1
   1   5   2 27.8818 2.14946   1
   1   5   2 27.4778 3.16705   3
   1   5   2 31.6226 2.45270   6
  -2  -5  -2 -0.2579 0.46039   1
   2   5   2 0.80028 0.71012   1
   2   5   2 -0.1217 0.66773   6
   2   5   2 0.81564 0.71955   1
  -3  -5  -2 2.98319 0.85651   2
   3   5   2 2.02401 0.87222   1
   3   5   2 3.37679 1.07002   1
   3   5   2 3.19496 1.13047   6
  -4  -5  -2 64.4572 3.48653   2
   4   5   2 64.1670 4.10129   6
   4   5   2 67.1435 3.89421   1
  -5  -5  -2 95.7815 4.62739   2
   5   5   2 85.9408 5.18249   6
   5   5   2 89.1701 4.91649   1
  -6  -5  -2 11.1463 1.90344   2
   6   5   2 11.8900 2.11849   1
   6   5   2 9.80057 2.06720   6
  -7  -5  -2 31.0490 3.18352   2
   7   5   2 37.6082 3.87717   1
  -8  -5  -2 -1.5389 1.04171   2
   8   5   2 -0.2717 1.13461   1
   9  -6  -2 7.00545 1.97495   4
  -9   6   2 9.25840 2.06529   2
  -9   6   2 10.0669 2.70996   1
   8  -6  -2 15.3941 2.43482   4
  -8   6   2 15.5489 2.84303   1
  -8   6   2 11.4312 2.10190   2
  -8   6   2 14.0844 2.99600   3
   7  -6  -2 21.0895 3.01544   1
   7  -6  -2 21.6868 2.69760   4
  -7   6   2 19.7279 3.19318   3
  -7   6   2 17.6442 2.25097   2
  -7   6   2 17.6473 2.84477   1
   6  -6  -2 10.2808 1.84001   4
   6  -6  -2 9.73291 2.01129   1
  -6   6   2 9.84894 2.17937   1
  -6   6   2 10.2290 2.33858   3
   5  -6  -2 16.2315 2.05771   4
   5  -6  -2 16.3593 2.32046   1
  -5   6   2 13.2225 2.50503   3
  -5   6   2 19.4276 2.81605   1
   4  -6  -2 286.221 11.2056   1
   4  -6  -2 286.691 10.6620   4
  -4   6   2 296.939 11.7863   1
  -4   6   2 278.287 11.6508   6
  -4   6   2 274.611 12.1362   3
   3  -6  -2 26.2230 2.14416   4
   3  -6  -2 20.8228 2.36742   2
   3  -6  -2 24.1001 2.44062   1
  -3   6   2 24.9419 3.24136   3
  -3   6   2 24.0026 2.80955   1
  -3   6   2 24.5599 2.72224   6
   2  -6  -2 78.7728 4.12229   1
   2  -6  -2 71.8732 3.33899   2
   2  -6  -2 85.3449 3.58273   4
  -2   6   2 81.6464 4.55427   1
  -2   6   2 92.7125 5.38045   3
  -2   6   2 86.9514 4.61432   6
  -2   6   2 87.7215 4.68615   6
   1  -6  -2 426.556 15.4157   2
   1  -6  -2 476.667 16.2649   1
  -1   6   2 499.528 17.0272   1
  -1   6   2 456.981 16.9677   6
  -1   6   2 436.108 15.2557   4
  -1   6   2 500.069 18.0148   3
   0  -6  -2 15.8074 1.20087   2
   0  -6  -2 20.0114 1.86287   1
   0   6   2 19.6009 2.30360   6
   0   6   2 15.8138 2.37034   1
   0   6   2 18.1463 2.20442   1
   0   6   2 17.8554 2.83629   3
   1   6   2 28.8375 2.82490   1
   1   6   2 24.1639 2.69684   6
   1   6   2 27.3752 3.44783   3
  -2  -6  -2 129.685 5.04462   2
   2   6   2 118.195 6.08208   6
   2   6   2 122.430 6.91052   3
   2   6   2 127.459 5.85938   1
  -3  -6  -2 7.72396 1.20682   2
   3   6   2 9.42442 1.79937   6
   3   6   2 6.63720 1.42549   1
  -4  -6  -2 56.6845 3.19369   2
   4   6   2 58.6436 3.81735   1
   4   6   2 59.7810 4.08759   6
  -5  -6  -2 0.12401 0.73075   2
   5   6   2 -0.0454 0.91432   6
   5   6   2 0.54455 1.03049   1
  -6  -6  -2 21.7333 2.47235   2
   6   6   2 19.6031 2.82855   1
  -7  -6  -2 5.06142 1.59066   2
   7   6   2 4.49607 1.73260   1
   8  -7  -2 1.21740 1.41164   4
  -8   7   2 6.93060 2.22463   1
  -8   7   2 0.71271 1.58316   3
   7  -7  -2 7.74352 1.88346   4
  -7   7   2 8.04810 2.69551   3
  -7   7   2 8.02207 2.30727   1
   6  -7  -2 33.3885 3.23645   4
  -6   7   2 31.5320 3.95079   1
  -6   7   2 26.0634 3.72743   3
   5  -7  -2 4.76479 1.30356   4
  -5   7   2 2.80692 1.61339   3
  -5   7   2 5.34861 1.77915   1
   4  -7  -2 59.9801 3.38862   4
  -4   7   2 60.7809 4.34929   1
  -4   7   2 58.0965 4.71974   3
  -3   7   2 4.41648 1.83997   3
  -3   7   2 3.48815 1.47970   1
  -3   7   2 3.95856 1.26456   6
  -2   7   2 110.878 6.47943   3
  -2   7   2 108.905 5.89536   6
  -2   7   2 118.801 6.00663   1
  -2   7   2 112.446 5.85655   6
  -1   7   2 89.4729 5.78480   3
  -1   7   2 100.320 5.22940   1
  -1   7   2 85.2840 4.99283   6
   0   7   2 31.5567 4.11392   3
   0   7   2 32.5937 3.15872   1
   0   7   2 34.4483 2.97253   6
   1   7   2 58.7324 4.07568   6
   1   7   2 65.5339 4.12369   1
   1   7   2 71.5507 5.14596   3
   2   7   2 212.513 9.37756   6
   2   7   2 215.454 9.05358   1
   2   7   2 210.401 10.3853   3
   3   7   2 5.08302 1.64894   6
   3   7   2 6.37767 1.58592   1
   3   7   2 4.98766 2.10438   3
   4   7   2 27.5039 3.10103   1
   4   7   2 24.1515 3.27057   6
   5   7   2 8.44393 2.00173   1
   6   7   2 -0.5388 1.00584   1
   7  -8  -2 36.6974 3.68633   4
  -7   8   2 38.1619 4.73907   1
  -7   8   2 24.5913 4.27767   3
  -6   8   2 10.8839 3.06040   3
  -6   8   2 11.3135 2.67220   1
  -5   8   2 3.14680 1.74198   1
  -5   8   2 4.41141 2.13415   3
  -4   8   2 22.7436 3.16854   1
  -4   8   2 23.9540 3.81451   3
  -3   8   2 1.05776 1.10163   1
  -3   8   2 -1.2730 1.11760   3
  -2   8   2 45.9092 5.03674   3
  -2   8   2 48.0600 3.86584   1
  -1   8   2 1.45591 1.42215   3
  -1   8   2 1.52871 1.14060   1
   0   8   2 9.63316 2.10836   1
   0   8   2 14.5764 3.00887   3
   1   8   2 40.9463 3.93715   1
   1   8   2 52.5722 5.77333   3
   2   8   2 16.5969 3.43351   3
   2   8   2 13.2866 2.16221   1
   3   8   2 69.5285 6.96236   3
   3   8   2 66.4920 4.51997   1
   4   8   2 -0.0021 1.66816   3
   4   8   2 0.55928 1.14353   1
   5   8   2 1.86220 1.86632   3
   5   8   2 -0.7172 1.07916   1
  -5   9   2 9.98306 2.66276   1
  -5   9   2 10.5036 2.88394   3
  -4   9   2 0.93884 1.73767   3
  -4   9   2 -1.1811 1.17057   1
  -3   9   2 10.4492 2.80617   3
  -3   9   2 5.78479 1.91230   1
  -2   9   2 10.9268 2.31457   1
  -2   9   2 7.48912 2.59711   3
  -1   9   2 1.50948 1.42260   1
  -1   9   2 3.03947 1.84403   3
   0   9   2 19.7055 3.87996   3
   0   9   2 23.0227 3.16555   1
   1   9   2 19.0764 3.84877   3
   1   9   2 22.1635 3.12314   1
   2   9   2 1.66503 1.39021   1
   2   9   2 2.68400 2.26452   3
   3   9   2 18.5580 2.91683   1
   3   9   2 13.3101 3.29147   3
   1  11  -3 15.7612 3.37908   3
   0  11  -3 6.12888 1.60889   1
   0  11  -3 7.64917 2.51856   3
   0  11  -3 5.88422 1.46942   6
  -1  11  -3 1.13338 1.69579   3
  -1  11  -3 -0.0207 1.07074   1
  -1  11  -3 -0.2427 0.84110   6
  -2  11  -3 -0.1210 1.12782   1
  -2  11  -3 -1.1383 0.88771   6
  -2  11  -3 0.67447 1.78176   3
   4  10  -3 72.2399 5.75729   3
   4  10  -3 66.0443 3.61516   1
   3  10  -3 52.7901 3.05590   1
   3  10  -3 55.9351 5.85097   3
   2  10  -3 93.1124 4.46138   6
   2  10  -3 90.9548 6.54553   3
   2  10  -3 91.5479 4.30152   6
   2  10  -3 96.4978 4.44406   1
   1  10  -3 179.098 7.12896   6
   1  10  -3 176.218 7.15353   1
   1  10  -3 157.515 8.90577   3
   1  10  -3 166.263 7.09655   6
   0  10  -3 0.67406 1.54606   3
   0  10  -3 2.16351 0.97300   6
   0  10  -3 2.41056 1.09401   1
   0  10  -3 2.44570 1.01311   6
  -1  10  -3 18.8562 3.38251   3
  -1  10  -3 18.1460 2.28655   6
  -1  10  -3 17.1261 2.34817   6
  -1  10  -3 22.3494 2.52793   1
  -2  10  -3 53.0137 5.45741   3
  -2  10  -3 66.0270 4.24353   1
  -2  10  -3 57.6640 3.99084   6
  -3  10  -3 13.7700 2.34353   1
  -3  10  -3 9.28525 1.98235   6
  -3  10  -3 9.88126 2.58326   3
  -4  10  -3 10.6806 2.34378   1
  -4  10  -3 5.13932 1.72228   6
  -4  10  -3 8.13373 2.46728   3
  -5  10  -3 -1.1416 1.18326   1
  -5  10  -3 0.17456 1.46240   3
   5   9  -3 13.8412 3.18786   3
   5   9  -3 19.6192 1.98846   1
   4   9  -3 23.7254 3.71075   3
   4   9  -3 19.6483 1.90526   1
   3   9  -3 32.7847 4.09775   3
   3   9  -3 33.6375 2.15608   1
   2   9  -3 75.2346 5.28620   3
   2   9  -3 73.0120 3.49048   1
   1   9  -3 30.2171 2.13510   1
   1   9  -3 25.7382 3.63620   3
   0   9  -3 78.3089 5.20498   3
   0   9  -3 73.9456 3.83322   1
   0   9  -3 73.7082 3.73427   6
   0   9  -3 74.0406 3.74886   6
  -1   9  -3 1.88275 0.87506   1
  -1   9  -3 0.97695 0.74892   6
  -1   9  -3 0.02314 1.26562   3
  -1   9  -3 0.07833 0.72199   6
  -2   9  -3 0.20040 0.79034   6
  -2   9  -3 1.51630 1.33119   3
  -2   9  -3 -0.4750 0.84657   1
  -3   9  -3 1.34999 1.49666   3
  -3   9  -3 1.51760 1.17771   6
  -3   9  -3 3.36785 1.27123   1
  -4   9  -3 40.9952 3.52056   6
  -4   9  -3 45.4697 4.82171   3
  -4   9  -3 42.1259 4.07301   1
  -5   9  -3 0.70271 1.49217   3
  -5   9  -3 -0.4761 1.10763   1
  -6   9  -3 18.3314 3.02635   1
  -6   9  -3 17.9659 3.34781   3
  -7   9  -3 2.53142 1.71817   1
  -7   9  -3 2.13770 1.87213   3
   7   8  -3 0.11118 0.91459   6
   7   8  -3 0.32743 0.92042   1
   6   8  -3 8.18147 1.41177   1
   6   8  -3 12.4170 1.66399   6
   6   8  -3 5.65139 2.02017   5
   5   8  -3 136.452 5.61815   1
   5   8  -3 133.665 7.11626   5
   4   8  -3 30.2522 3.31076   5
   4   8  -3 34.3911 4.07145   3
   4   8  -3 32.7090 1.99610   1
   3   8  -3 85.8335 4.94377   5
   3   8  -3 103.639 5.94486   3
   3   8  -3 96.2497 4.41045   4
   3   8  -3 91.9421 3.83461   1
   2   8  -3 59.3041 2.75200   1
   2   8  -3 62.1857 4.37555   3
   2   8  -3 59.0380 2.76850   4
   1   8  -3 23.0082 1.65702   1
   1   8  -3 28.0056 3.37221   3
   0   8  -3 89.9251 3.88728   6
   0   8  -3 83.1764 5.17652   3
   0   8  -3 84.4383 3.76625   6
   0   8  -3 91.9227 4.05392   1
  -1   8  -3 303.689 11.1331   1
  -1   8  -3 305.246 11.1874   6
  -1   8  -3 284.895 10.9269   6
  -1   8  -3 309.507 12.4664   3
  -2   8  -3 293.348 12.3352   3
  -2   8  -3 298.244 11.2683   1
  -2   8  -3 290.638 11.3370   6
  -3   8  -3 96.9687 5.10624   6
  -3   8  -3 93.3190 5.59623   3
  -3   8  -3 91.4280 4.90286   1
  -4   8  -3 1.73819 1.03934   1
  -4   8  -3 4.63079 1.68519   3
  -4   8  -3 2.91637 1.24733   6
  -5   8  -3 13.2893 2.30755   1
  -5   8  -3 17.6778 2.70573   6
  -5   8  -3 14.2239 2.64831   3
  -6   8  -3 35.1517 4.02083   1
  -6   8  -3 32.2867 4.20701   3
  -7   8  -3 6.40633 1.97250   1
  -8   8  -3 43.6310 4.88200   1
   8   7  -3 40.9097 3.22887   1
   8   7  -3 39.1384 3.93894   6
   7   7  -3 1.35047 1.05619   1
   7   7  -3 0.65751 1.41838   5
   7   7  -3 1.57735 1.00064   6
  -7  -7   3 1.75907 1.11508   2
   6   7  -3 137.267 5.54875   6
   6   7  -3 134.240 5.71996   1
   6   7  -3 127.882 7.13949   5
  -6  -7   3 126.258 5.88568   2
   5   7  -3 95.0647 5.49260   5
   5   7  -3 89.9173 4.08799   4
   5   7  -3 93.4908 4.10163   1
  -5  -7   3 93.6979 4.33313   2
   4   7  -3 44.5676 2.41581   4
   4   7  -3 47.5654 3.44731   5
   4   7  -3 46.7933 2.28372   1
  -4  -7   3 43.9677 2.45689   2
   3   7  -3 91.9639 3.58001   1
   3   7  -3 95.4398 5.35693   3
   3   7  -3 91.1950 4.89353   5
   3   7  -3 94.3002 3.62039   1
   3   7  -3 98.7835 3.96602   4
   2   7  -3 15.5249 1.94454   5
   2   7  -3 12.1262 2.12897   3
   2   7  -3 14.8406 1.00910   1
   2   7  -3 13.3334 0.94332   1
   1   7  -3 82.4754 4.62973   3
   1   7  -3 70.6917 3.03195   1
   1   7  -3 77.5067 3.13106   1
   0   7  -3 30.8294 1.85247   1
   0   7  -3 35.9406 1.98046   1
   0   7  -3 36.0288 2.92305   3
  -1   7  -3 3.91459 0.91546   1
  -1   7  -3 3.65215 0.87791   6
  -1   7  -3 4.30102 1.37734   3
  -1   7  -3 4.15500 0.89991   1
  -1   7  -3 3.95676 0.83231   6
  -2   7  -3 337.352 12.0984   1
  -2   7  -3 337.337 12.2993   6
  -2   7  -3 339.277 13.0971   3
  -2   7  -3 304.941 11.9250   1
  -3   7  -3 195.336 7.87649   1
  -3   7  -3 189.070 8.05083   6
  -3   7  -3 192.503 8.46969   3
  -3   7  -3 179.538 6.63945   2
  -4   7  -3 23.2632 2.95750   3
  -4   7  -3 21.3592 1.56015   2
  -4   7  -3 21.2522 2.53426   6
  -4   7  -3 23.4467 2.60389   1
  -5   7  -3 67.0317 4.43626   6
  -5   7  -3 72.1132 4.83299   3
  -5   7  -3 72.6069 4.37220   1
  -5   7  -3 59.7533 3.26251   2
  -6   7  -3 -0.8989 0.71776   2
  -6   7  -3 2.16543 1.25843   1
  -6   7  -3 0.14480 1.18742   3
  -7   7  -3 5.69099 1.40594   2
  -7   7  -3 3.86156 1.72765   1
  -8   7  -3 11.7331 2.64376   1
  -8   7  -3 7.28474 1.72228   2
  -9   7  -3 0.80904 1.25327   2
  -9   7  -3 -0.1123 1.62669   1
   8   6  -3 0.03597 1.41795   5
   8   6  -3 0.84243 1.01959   1
   8   6  -3 1.41590 1.12433   4
   8   6  -3 0.80185 1.09629   6
  -8  -6   3 -0.2875 1.05584   2
   7   6  -3 1.37338 0.98643   1
   7   6  -3 0.33558 0.73730   4
   7   6  -3 1.35123 1.32421   5
   7   6  -3 0.15161 0.69158   6
  -7  -6   3 0.90348 0.97188   2
   6   6  -3 304.373 11.4734   4
   6   6  -3 316.705 11.3044   6
   6   6  -3 317.990 13.1575   5
   6   6  -3 321.970 11.6193   1
  -6  -6   3 317.457 11.9132   2
   5   6  -3 29.2382 3.18544   5
   5   6  -3 20.6161 1.91842   4
   5   6  -3 23.3863 1.71918   1
  -5  -6   3 22.7057 2.18464   2
   4   6  -3 93.8430 4.07718   4
   4   6  -3 97.2135 5.11870   5
   4   6  -3 94.9667 3.76687   1
   4   6  -3 95.8118 3.77474   1
  -4  -6   3 98.8817 4.20632   2
   3   6  -3 36.9319 1.98159   2
   3   6  -3 42.3621 2.15298   4
   3   6  -3 39.2799 2.77062   5
  -3  -6   3 36.0443 1.99222   2
   2   6  -3 29.2520 2.84778   3
   2   6  -3 23.7180 2.20020   5
   2   6  -3 20.7128 1.23747   2
   1   6  -3 258.670 9.43281   5
   1   6  -3 266.543 10.2319   3
   1   6  -3 247.657 8.50182   2
   1   6  -3 258.491 8.59347   1
   0   6  -3 241.454 8.77335   1
   0   6  -3 266.579 8.86112   1
   0   6  -3 254.621 10.0554   3
  -1   6  -3 1313.00 44.1476   1
  -1   6  -3 1353.12 43.9968   6
  -1   6  -3 1363.46 44.2329   1
  -1   6  -3 1362.90 45.2074   3
  -1   6  -3 1370.23 44.1893   6
  -2   6  -3 103.361 4.51541   6
  -2   6  -3 97.6928 4.90140   3
  -2   6  -3 93.6186 4.23058   1
  -2   6  -3 90.1492 3.50061   2
  -2   6  -3 90.9544 4.24766   1
   2  -6   3 92.4072 3.53159   1
  -3   6  -3 66.1201 3.98695   3
  -3   6  -3 66.2029 2.82762   2
  -3   6  -3 62.9786 3.69492   6
  -3   6  -3 71.7102 3.65974   1
  -3   6  -3 56.1336 3.34509   1
  -4   6  -3 53.4651 3.65552   3
  -4   6  -3 50.1526 3.29244   1
  -4   6  -3 45.9920 2.51404   2
  -4   6  -3 49.1932 3.39640   6
   4  -6   3 50.0927 2.90093   1
  -5   6  -3 417.493 16.5658   6
  -5   6  -3 441.156 15.4329   2
  -5   6  -3 446.896 16.7635   3
  -5   6  -3 443.547 16.4415   1
   5  -6   3 445.049 15.9293   1
  -6   6  -3 36.5840 3.70233   1
  -6   6  -3 36.0651 4.00905   6
  -6   6  -3 39.5298 2.66414   2
   6  -6   3 35.3642 3.31213   1
  -7   6  -3 91.7700 5.50968   1
  -7   6  -3 83.8646 4.58172   2
   7  -6   3 88.9505 5.06552   1
  -8   6  -3 -1.0776 1.14162   1
  -8   6  -3 0.41886 1.06149   2
  -9   6  -3 2.05361 1.43163   2
  -9   6  -3 0.39457 1.51829   1
   9   5  -3 12.1190 2.17456   1
   9   5  -3 12.7034 2.12520   4
  -9  -5   3 11.4517 2.32271   2
   8   5  -3 35.8109 3.09032   4
   8   5  -3 34.0641 3.00598   6
   8   5  -3 37.0623 3.40546   1
   8   5  -3 34.2566 3.98900   5
  -8  -5   3 41.6696 3.74449   2
   7   5  -3 -0.5381 0.58102   6
   7   5  -3 -0.3179 0.74414   1
   7   5  -3 0.91501 1.09488   5
   7   5  -3 -0.3655 0.72284   4
  -7  -5   3 1.14716 0.96041   2
   6   5  -3 0.46387 0.68382   4
   6   5  -3 -0.1059 0.86755   5
   6   5  -3 0.01296 0.69129   1
   6   5  -3 0.34831 0.51540   6
  -6  -5   3 -0.1943 0.71320   2
   5   5  -3 38.8769 2.22277   1
   5   5  -3 35.8551 2.17339   1
   5   5  -3 38.0497 3.07463   5
   5   5  -3 39.8080 2.36482   4
  -5  -5   3 41.1478 2.55917   2
   4   5  -3 166.906 6.21146   1
   4   5  -3 172.471 6.62008   4
   4   5  -3 175.031 6.24773   1
   4   5  -3 176.768 7.56443   5
  -4  -5   3 180.134 6.80903   2
   3   5  -3 46.6106 2.89115   5
   3   5  -3 46.2885 2.33017   2
   3   5  -3 46.7928 2.37218   4
  -3  -5   3 48.6924 2.37243   2
   2   5  -3 14.4824 1.59538   5
   2   5  -3 13.4752 1.00886   2
   1   5  -3 108.729 4.44869   5
   1   5  -3 106.299 4.89488   3
   1   5  -3 109.002 3.93404   2
   0   5  -3 373.909 12.2405   2
   0   5  -3 363.748 12.3655   1
   0   5  -3 381.740 12.6172   5
   0   5  -3 368.129 12.3839   1
   0   5  -3 373.728 13.4110   3
  -1   5  -3 -0.1681 0.34206   6
  -1   5  -3 -0.0380 0.43644   1
  -1   5  -3 0.20879 0.45516   1
  -1   5  -3 0.04455 0.61716   3
  -1   5  -3 -0.3149 0.41444   6
   1  -5   3 1.41924 0.70936   3
  -2   5  -3 59.6152 2.91175   1
  -2   5  -3 62.1958 3.11826   6
  -2   5  -3 58.8578 3.30903   3
  -2   5  -3 61.7133 2.97520   1
  -2   5  -3 58.9128 2.46587   2
   2  -5   3 45.8136 3.45069   3
   2  -5   3 54.2722 2.49408   1
  -3   5  -3 63.6470 2.85567   2
  -3   5  -3 65.5937 3.39391   1
  -3   5  -3 58.0185 3.23807   1
  -3   5  -3 65.2069 3.57501   6
  -3   5  -3 60.8419 3.54536   3
   3  -5   3 62.9881 3.05808   1
  -4   5  -3 49.9685 3.02479   1
  -4   5  -3 41.3004 3.06063   3
  -4   5  -3 44.8287 3.15204   6
  -4   5  -3 43.1960 2.41032   2
   4  -5   3 42.3380 2.45867   6
   4  -5   3 44.0592 2.69748   1
  -5   5  -3 89.3490 4.97652   6
  -5   5  -3 95.9540 4.88802   1
  -5   5  -3 87.3304 4.14074   2
   5  -5   3 82.4585 3.48698   5
   5  -5   3 90.7734 4.49136   1
  -6   5  -3 3.32321 1.22783   6
  -6   5  -3 7.52400 1.34585   2
  -6   5  -3 3.08193 1.32011   1
   6  -5   3 5.43897 0.95636   5
   6  -5   3 4.65340 1.32029   1
  -7   5  -3 48.8734 3.80579   1
  -7   5  -3 46.9880 3.26734   2
   7  -5   3 52.4351 3.66960   1
   7  -5   3 47.3075 2.82277   5
  -8   5  -3 14.5650 2.69332   1
  -8   5  -3 12.8169 2.09420   2
   8  -5   3 6.72698 1.82586   1
  -9   5  -3 -0.7055 1.23404   1
  -9   5  -3 1.28884 1.25301   2
   9  -5   3 -0.0252 1.09164   1
 -10   5  -3 67.3622 4.90990   2
 -10   5  -3 62.5613 5.97006   1
  10  -5   3 65.3767 7.44199   1
  10   4  -3 -0.5887 1.23063   4
  10   4  -3 -0.0572 1.20516   1
 -10  -4   3 0.86919 1.44710   2
   9   4  -3 0.63165 1.14707   1
   9   4  -3 -0.3282 1.04130   4
   9   4  -3 0.51476 1.18504   5
  -9  -4   3 -0.4938 1.14509   2
   8   4  -3 51.3991 3.41431   4
   8   4  -3 52.5096 3.55052   1
   8   4  -3 57.5223 4.44779   5
   8   4  -3 52.0164 3.60888   6
  -8  -4   3 48.3793 3.56868   2
   7   4  -3 17.5440 2.12990   6
   7   4  -3 15.1170 2.50350   5
   7   4  -3 18.7531 2.16352   1
   7   4  -3 14.3792 1.91196   4
  -7  -4   3 16.1539 2.11390   2
   6   4  -3 271.694 10.0871   4
   6   4  -3 271.195 11.1740   5
   6   4  -3 270.828 9.89792   6
   6   4  -3 261.753 10.0194   1
  -6  -4   3 264.303 10.3258   2
   5   4  -3 0.63037 0.54213   1
   5   4  -3 1.54226 0.59653   1
   5   4  -3 0.59760 0.39418   6
   5   4  -3 -0.3303 0.64420   5
   5   4  -3 0.46192 0.58660   4
  -5  -4   3 -0.3417 0.62131   2
   4   4  -3 39.4023 1.98867   1
   4   4  -3 36.8035 2.18111   4
   4   4  -3 41.2748 1.99130   1
   4   4  -3 43.2584 2.86914   5
  -4  -4   3 43.3122 2.41514   2
   3   4  -3 85.0366 3.72828   2
   3   4  -3 93.0717 3.78350   4
   3   4  -3 89.8026 3.20891   1
   3   4  -3 89.2874 3.20441   1
  -3  -4   3 89.5000 3.78228   2
   2   4  -3 519.606 17.3389   2
   1   4  -3 342.312 11.4839   2
   1   4  -3 341.880 12.0793   3
   0   4  -3 293.675 9.83412   5
   0   4  -3 294.086 10.3494   3
   0   4  -3 291.359 9.67009   1
   0   4  -3 282.259 9.64080   1
  -1   4  -3 11.7093 0.96712   6
  -1   4  -3 12.3971 1.16576   1
  -1   4  -3 11.9010 1.41222   3
  -1   4  -3 12.1564 0.98922   1
   1  -4   3 10.9642 0.67427   1
   1  -4   3 11.9896 1.40705   3
  -2   4  -3 177.181 6.67445   1
  -2   4  -3 173.436 6.59460   1
  -2   4  -3 173.741 6.84860   3
  -2   4  -3 178.375 6.66025   1
  -2   4  -3 168.362 6.77251   6
   2  -4   3 172.863 6.90906   3
  -3   4  -3 159.722 6.14102   2
  -3   4  -3 165.408 6.76396   3
  -3   4  -3 171.904 6.91661   6
  -3   4  -3 170.708 6.65202   1
  -3   4  -3 153.892 6.49563   1
   3  -4   3 161.170 6.80797   3
   3  -4   3 167.987 6.39121   1
   3  -4   3 161.602 6.35380   6
  -4   4  -3 167.080 7.28580   6
  -4   4  -3 168.485 7.03750   1
  -4   4  -3 168.718 6.52874   2
   4  -4   3 156.619 6.87911   6
   4  -4   3 175.042 6.83169   1
  -5   4  -3 429.151 16.0563   6
  -5   4  -3 427.670 15.7487   1
  -5   4  -3 429.136 15.1512   2
   5  -4   3 422.441 15.8314   6
   5  -4   3 428.645 14.6555   5
   5  -4   3 427.203 15.5135   1
  -6   4  -3 137.854 6.74877   6
  -6   4  -3 132.822 5.96845   2
  -6   4  -3 133.385 6.49891   1
   6  -4   3 134.716 5.60484   5
   6  -4   3 126.614 6.59826   6
   6  -4   3 143.171 6.43435   1
  -7   4  -3 3.95312 1.54716   1
  -7   4  -3 3.62528 1.17543   2
   7  -4   3 3.93494 1.41737   1
   7  -4   3 2.69267 0.97427   5
   7  -4   3 1.37396 1.20612   6
  -8   4  -3 32.6294 3.30220   2
  -8   4  -3 25.7384 3.24861   1
   8  -4   3 27.0319 3.30704   1
   8  -4   3 23.1630 2.53925   5
  -9   4  -3 91.7204 5.32539   2
  -9   4  -3 85.7530 5.65771   1
   9  -4   3 99.3222 5.83766   1
   9  -4   3 83.8128 4.96112   5
 -10   4  -3 14.4621 2.53165   2
 -10   4  -3 10.7989 2.63912   1
  10  -4   3 10.9769 2.55688   1
  10   3  -3 29.3117 3.37654   4
  10   3  -3 27.8123 3.52106   1
 -10  -3   3 28.4024 3.64528   2
   9   3  -3 5.54027 1.95434   5
   9   3  -3 13.4914 2.23227   1
   9   3  -3 9.52103 1.92916   4
  -9  -3   3 10.1864 2.01447   2
   8   3  -3 14.6431 2.23498   6
   8   3  -3 13.6686 2.07518   4
   8   3  -3 17.6971 2.35121   1
   8   3  -3 15.7103 2.60711   5
  -8  -3   3 18.2066 2.39304   2
   7   3  -3 1.76325 1.18499   5
   7   3  -3 2.19986 1.02620   4
   7   3  -3 2.93017 1.14380   1
   7   3  -3 2.79804 1.00257   6
  -7  -3   3 4.31440 1.24416   2
   6   3  -3 115.308 5.13710   1
   6   3  -3 116.270 5.13935   4
   6   3  -3 106.117 5.03094   1
   6   3  -3 115.693 5.05021   6
  -6  -3   3 120.731 5.40145   2
   5   3  -3 1.68138 0.68598   4
   5   3  -3 1.14421 0.58898   1
   5   3  -3 2.16552 0.74182   1
   5   3  -3 1.19291 0.54010   6
  -5  -3   3 0.44503 0.74373   2
   4   3  -3 1143.64 38.7851   1
   4   3  -3 1182.66 38.7891   1
   4   3  -3 1190.79 39.0556   4
  -4  -3   3 1241.43 39.2568   2
   3   3  -3 550.298 18.3461   1
   3   3  -3 572.046 18.7658   4
   3   3  -3 549.569 18.7975   2
   3   3  -3 564.790 18.3478   1
  -3  -3   3 552.394 18.8032   2
   2   3  -3 191.900 7.01699   2
  -2  -3   3 201.089 7.05336   2
   1   3  -3 46.5873 2.00455   2
   1   3  -3 43.1110 2.07977   3
   0   3  -3 178.935 6.31186   3
   0   3  -3 183.677 6.06633   1
   0   3  -3 173.971 6.05890   1
   0  -3   3 169.613 6.29226   3
  -1   3  -3 687.500 22.2382   1
  -1   3  -3 650.789 22.2044   1
  -1   3  -3 682.191 22.3085   3
  -1   3  -3 677.579 22.2482   6
   1  -3   3 673.494 22.3499   3
   1  -3   3 670.110 22.0255   1
  -2   3  -3 177.640 6.80776   6
  -2   3  -3 169.074 6.54847   3
  -2   3  -3 170.765 5.88430   5
  -2   3  -3 165.737 6.54363   1
  -2   3  -3 177.211 6.57901   1
   2  -3   3 183.607 6.70505   3
   2  -3   3 171.552 6.41044   1
   2  -3   3 178.757 6.39248   6
  -3   3  -3 119.414 5.26129   6
  -3   3  -3 114.480 4.98607   1
  -3   3  -3 109.814 4.90889   1
  -3   3  -3 117.108 4.99598   1
   3  -3   3 118.246 5.07614   3
   3  -3   3 117.447 5.02912   6
   3  -3   3 115.414 4.82940   1
  -4   3  -3 301.081 11.1897   1
  -4   3  -3 293.314 11.4857   6
  -4   3  -3 307.578 10.8314   2
   4  -3   3 295.169 11.0153   1
   4  -3   3 298.974 10.4706   5
   4  -3   3 298.267 11.3654   6
  -5   3  -3 18.0745 2.11271   6
  -5   3  -3 23.4481 2.16612   2
  -5   3  -3 15.1406 1.98875   1
   5  -3   3 18.9414 2.16393   6
   5  -3   3 23.6934 2.36715   1
   5  -3   3 22.1751 1.66209   5
  -6   3  -3 84.4366 4.94678   6
  -6   3  -3 87.0484 4.43744   2
  -6   3  -3 93.4175 4.92422   1
   6  -3   3 88.7906 4.74964   1
   6  -3   3 88.9871 4.28869   5
   6  -3   3 88.0517 5.09996   6
  -7   3  -3 142.736 7.23002   6
  -7   3  -3 144.482 6.62710   2
  -7   3  -3 139.567 7.02282   1
   7  -3   3 139.347 7.37713   6
   7  -3   3 155.549 7.07914   1
   7  -3   3 147.603 6.51154   5
  -8   3  -3 4.21077 1.59412   1
  -8   3  -3 3.54118 1.28599   2
   8  -3   3 5.39650 1.61208   1
   8  -3   3 3.73425 1.25470   5
  -9   3  -3 188.188 8.75040   1
  -9   3  -3 163.140 8.08427   2
   9  -3   3 176.443 8.63050   1
   9  -3   3 163.744 7.94854   5
 -10   3  -3 19.3262 3.14565   1
 -10   3  -3 20.2066 2.98670   2
  10  -3   3 26.4456 3.83994   1
  10  -3   3 20.7780 2.94202   5
  10   2  -3 40.3664 4.29364   1
  10   2  -3 41.6078 4.01076   4
 -10  -2   3 48.8593 4.58035   2
   9   2  -3 25.5949 3.40128   5
   9   2  -3 35.4127 3.32577   4
   9   2  -3 30.9048 3.48994   1
  -9  -2   3 31.8028 3.44674   2
   8   2  -3 15.8131 2.31680   1
   8   2  -3 15.0643 2.31322   6
   8   2  -3 14.8681 2.12375   4
  -8  -2   3 14.5854 2.13578   2
   7   2  -3 201.350 8.51145   1
   7   2  -3 207.916 8.38208   4
   7   2  -3 205.231 8.61840   6
  -7  -2   3 208.689 8.64628   2
   6   2  -3 8.65911 1.40498   4
   6   2  -3 8.54932 1.43398   1
   6   2  -3 10.2476 1.64878   6
   6   2  -3 8.78922 1.46023   1
  -6  -2   3 7.28718 1.32275   2
  -6  -2   3 8.17695 1.09598   1
   5   2  -3 29.5220 2.00100   4
   5   2  -3 25.6976 1.88109   1
   5   2  -3 28.1947 1.96960   1
   5   2  -3 28.1864 1.86329   6
  -5  -2   3 25.3789 1.57573   1
  -5  -2   3 30.3106 2.50643   2
   4   2  -3 508.166 17.8339   1
   4   2  -3 534.148 17.9653   4
   4   2  -3 556.787 17.8928   1
  -4  -2   3 512.969 17.4115   1
  -4  -2   3 523.712 18.0761   2
   3   2  -3 2.11091 0.53471   1
   3   2  -3 1.96395 0.58630   4
   3   2  -3 1.49579 0.52041   1
   3   2  -3 1.69719 0.63538   2
  -3  -2   3 1.25738 0.50009   1
  -3  -2   3 2.15641 0.38575   1
  -3  -2   3 1.33006 0.55944   2
   2   2  -3 331.313 11.0477   1
   2   2  -3 334.548 11.3262   4
   2   2  -3 329.805 11.0757   1
   2   2  -3 328.861 11.3693   2
  -2  -2   3 328.457 11.3513   2
   1   2  -3 373.200 12.1678   1
   1   2  -3 360.204 12.1178   1
   0   2  -3 37.6300 1.49439   6
   0   2  -3 34.1459 1.36325   3
   0   2  -3 33.3300 1.59147   1
   0   2  -3 34.1972 1.60455   1
   0  -2   3 33.8343 1.38482   3
   0  -2   3 33.3171 1.48205   1
   0  -2   3 32.2772 1.43878   1
  -1   2  -3 0.24630 0.44128   6
  -1   2  -3 1.01604 0.45253   1
  -1   2  -3 0.33309 0.41178   1
   1  -2   3 0.03411 0.28218   6
   1  -2   3 1.11366 0.41594   3
   1  -2   3 0.46668 0.37206   1
   1  -2   3 0.17584 0.33391   1
  -2   2  -3 1.83150 0.61135   1
  -2   2  -3 1.60759 0.45713   5
  -2   2  -3 2.29692 0.62581   1
  -2   2  -3 2.55738 0.80040   6
   2  -2   3 3.98915 0.77588   1
   2  -2   3 3.21650 0.74292   3
   2  -2   3 3.23659 0.70777   6
  -3   2  -3 3.34533 0.63038   5
  -3   2  -3 3.16641 0.91207   6
  -3   2  -3 3.41225 0.85521   1
  -3   2  -3 3.27277 0.91088   1
   3  -2   3 4.54376 0.95308   3
   3  -2   3 3.58784 0.93307   6
   3  -2   3 2.57016 0.73552   1
  -4   2  -3 74.2686 3.72014   1
  -4   2  -3 72.2806 3.45546   2
   4  -2   3 69.2765 3.59151   1
   4  -2   3 66.8929 3.28522   5
   4  -2   3 73.5945 3.92073   6
  -5   2  -3 32.3449 2.66233   6
  -5   2  -3 36.8233 2.38814   2
  -5   2  -3 33.5440 2.55116   1
   5  -2   3 34.7105 2.30253   5
   5  -2   3 34.5431 2.77403   6
   5  -2   3 32.3749 2.46692   1
  -6   2  -3 163.212 7.67749   6
  -6   2  -3 174.629 7.30283   2
  -6   2  -3 177.398 7.62977   1
   6  -2   3 174.707 7.25853   5
   6  -2   3 170.714 7.98382   6
   6  -2   3 172.946 7.54098   1
  -7   2  -3 19.6582 2.66825   1
  -7   2  -3 17.0329 2.14675   6
  -7   2  -3 20.8300 2.46400   2
   7  -2   3 22.5231 2.78400   1
   7  -2   3 18.6359 2.78464   6
   7  -2   3 22.0372 2.48789   5
  -8   2  -3 281.747 11.4164   2
  -8   2  -3 276.161 11.6707   1
   8  -2   3 282.237 11.7373   1
   8  -2   3 274.251 11.3616   5
  -9   2  -3 36.2510 3.72588   2
  -9   2  -3 33.9333 3.82592   1
   9  -2   3 30.9710 3.47794   5
   9  -2   3 37.5236 4.00851   1
 -10   2  -3 47.1667 4.54977   2
  10  -2   3 41.7466 4.72761   1
  10  -2   3 50.5901 4.13222   5
  10   1  -3 1.25267 1.37230   5
  10   1  -3 -0.4462 1.32564   4
  10   1  -3 0.07548 1.21918   1
 -10  -1   3 1.42723 1.46662   2
   9   1  -3 9.40324 1.91414   4
   9   1  -3 8.24033 1.93118   1
  -9  -1   3 6.93211 1.84294   2
   8   1  -3 17.1752 2.42689   1
   8   1  -3 18.5427 2.32740   4
   8   1  -3 17.2274 2.60660   6
  -8  -1   3 21.5042 2.67442   2
   7   1  -3 123.495 5.83565   1
   7   1  -3 121.044 5.94301   6
   7   1  -3 120.225 5.62099   4
  -7  -1   3 115.752 5.35773   1
  -7  -1   3 123.909 5.80943   2
   6   1  -3 4.95720 1.05954   6
   6   1  -3 7.24661 1.27939   4
   6   1  -3 5.36482 1.23713   1
  -6  -1   3 3.93405 1.10903   2
  -6  -1   3 5.39378 1.09042   1
   5   1  -3 226.715 8.49946   1
   5   1  -3 205.858 8.41232   1
   5   1  -3 217.422 8.48863   6
   5   1  -3 230.730 8.44483   4
  -5  -1   3 223.904 8.25156   1
   4   1  -3 78.1014 3.63424   1
   4   1  -3 76.7144 3.54027   4
   4   1  -3 84.6213 3.69087   1
   4   1  -3 81.6640 3.60781   6
  -4  -1   3 77.8242 3.46489   1
  -4  -1   3 77.6855 3.67952   2
   3   1  -3 97.7274 4.12507   3
   3   1  -3 107.897 4.22953   1
   3   1  -3 107.670 4.29862   2
   3   1  -3 100.142 4.18052   1
   3   1  -3 108.177 4.21321   4
  -3  -1   3 97.7654 4.03222   1
  -3  -1   3 106.906 4.31085   2
   2   1  -3 2.51156 0.56970   2
   2   1  -3 2.07434 0.54158   1
   2   1  -3 2.52801 0.57615   4
   2   1  -3 2.13528 0.54232   1
   2   1  -3 2.34322 0.54217   3
  -2  -1   3 2.26408 0.51968   1
  -2  -1   3 0.74304 0.33945   1
   1   1  -3 159.985 5.63450   1
   1   1  -3 159.696 5.25372   3
   1   1  -3 149.409 5.64062   1
  -1  -1   3 158.308 5.60256   1
  -1  -1   3 154.125 5.52702   1
   0   1  -3 29.4088 1.64250   6
   0   1  -3 30.5757 1.58413   1
   0   1  -3 32.2723 1.65610   1
   0  -1   3 30.7036 1.51047   6
   0  -1   3 30.4601 1.59603   1
   0  -1   3 28.8897 1.51373   1
  -1   1  -3 273.931 9.88520   1
  -1   1  -3 279.526 9.88379   1
  -1   1  -3 294.529 10.1454   6
   1  -1   3 272.184 9.80856   1
   1  -1   3 293.428 10.0010   6
   1  -1   3 290.008 9.90484   1
  -2   1  -3 4.96597 0.86904   1
  -2   1  -3 4.71714 0.90957   6
  -2   1  -3 5.39455 0.88925   1
  -2   1  -3 7.64888 0.90831   5
   2  -1   3 5.13907 0.86075   1
   2  -1   3 6.81603 1.06735   6
  -3   1  -3 3.41896 0.88817   6
  -3   1  -3 2.92912 0.70901   5
  -3   1  -3 2.68951 0.74843   1
   3  -1   3 2.51756 0.74722   1
   3  -1   3 4.78574 0.94091   6
  -4   1  -3 196.158 7.73828   5
  -4   1  -3 201.770 8.25570   6
  -4   1  -3 204.942 7.99823   1
  -4   1  -3 207.998 8.05529   1
   4  -1   3 189.745 7.94563   1
   4  -1   3 208.648 8.38959   6
   4  -1   3 207.764 7.85877   5
  -5   1  -3 4.40833 1.14594   1
  -5   1  -3 1.69390 0.67695   6
  -5   1  -3 1.87130 0.85882   2
   5  -1   3 4.30451 1.26439   6
   5  -1   3 3.33068 1.01539   1
   5  -1   3 3.40228 0.96696   5
  -6   1  -3 3.92609 1.28509   1
  -6   1  -3 3.88358 1.13730   2
  -6   1  -3 5.51608 1.41400   6
   6  -1   3 3.67992 1.18541   1
   6  -1   3 4.81554 1.47219   6
   6  -1   3 3.20412 1.10778   5
  -7   1  -3 69.1273 4.34504   6
  -7   1  -3 75.8767 4.44999   1
  -7   1  -3 78.6706 4.32686   2
   7  -1   3 72.0464 4.32288   5
   7  -1   3 74.7733 4.57271   1
   7  -1   3 71.0047 4.81658   6
  -8   1  -3 8.47640 1.83565   2
  -8   1  -3 6.18069 1.65377   1
   8  -1   3 4.13850 1.56508   1
   8  -1   3 8.37905 1.89723   5
  -9   1  -3 1.14649 2.10048   1
  -9   1  -3 1.05571 1.02342   2
   9  -1   3 0.09543 1.23833   1
   9  -1   3 0.42425 1.20208   5
 -10   1  -3 31.6094 3.83483   2
  10  -1   3 29.6368 3.81253   5
  10  -1   3 37.5328 4.55716   1
  10   0  -3 17.5510 2.76797   4
  10   0  -3 10.5622 2.36328   1
 -10   0   3 12.1781 2.57777   2
   9   0  -3 125.530 6.66292   1
   9   0  -3 123.480 6.33407   4
  -9   0   3 121.724 6.46122   2
   8   0  -3 327.826 12.9895   1
   8   0  -3 327.027 12.6702   4
  -8   0   3 323.613 12.8218   2
   7   0  -3 1.45138 0.80737   6
   7   0  -3 0.89259 0.91268   1
   7   0  -3 0.44526 0.86727   4
  -7   0   3 1.20304 0.98296   2
  -7   0   3 1.58839 0.93113   1
   6   0  -3 321.693 11.5084   4
   6   0  -3 300.264 11.7626   6
   6   0  -3 303.108 11.6175   1
  -6   0   3 299.175 11.4126   1
  -6   0   3 303.121 11.5635   2
   5   0  -3 15.5223 1.67111   4
   5   0  -3 13.1793 1.71462   1
   5   0  -3 14.9037 1.87136   6
  -5   0   3 11.0371 1.52775   2
  -5   0   3 11.2762 1.51865   1
   4   0  -3 43.1622 2.48929   1
   4   0  -3 40.7118 2.34073   4
   4   0  -3 40.7194 2.45194   6
   4   0  -3 40.0324 2.45914   1
   4   0  -3 42.3721 2.52982   3
  -4   0   3 47.1595 2.51998   2
  -4   0   3 39.5709 2.38719   1
   3   0  -3 454.120 15.7098   3
   3   0  -3 473.484 15.8014   6
   3   0  -3 456.390 15.6082   4
   3   0  -3 487.552 15.8459   1
   3   0  -3 446.985 15.6741   2
   3   0  -3 425.998 15.7210   1
  -3   0   3 466.882 15.7543   1
   2   0  -3 16.2748 1.29456   4
   2   0  -3 11.6695 1.20419   1
   2   0  -3 12.2308 1.17808   2
   2   0  -3 13.6091 1.23195   3
   2   0  -3 11.6671 1.21469   1
  -2   0   3 12.1933 1.19873   1
  -2   0   3 12.8456 1.20417   3
  -2   0   3 12.4138 1.09654   4
   1   0  -3 206.094 7.14078   4
   1   0  -3 209.103 7.16065   3
   1   0  -3 205.316 7.38575   1
   1   0  -3 207.756 7.47288   6
   1   0  -3 197.182 7.37357   1
  -1   0   3 212.674 7.43574   1
  -1   0   3 192.922 7.27999   1
  -1   0   3 206.289 7.36522   6
  -1   0   3 207.327 7.14908   3
   0   0  -3 1795.15 56.3270   1
   0   0  -3 1751.57 56.4973   6
   0   0  -3 1670.13 56.3286   1
   0   0   3 1607.62 56.2117   1
   0   0   3 1809.67 56.4501   6
   0   0   3 1796.13 56.3947   1
  -1   0  -3 69.0417 3.08325   1
  -1   0  -3 65.3442 3.05795   1
  -1   0  -3 74.2704 3.34444   6
   1   0   3 75.5875 3.31522   6
   1   0   3 61.3044 2.97683   1
  -2   0  -3 28.7959 1.99260   6
  -2   0  -3 27.6973 1.76174   1
   2   0   3 26.9483 1.78214   1
   2   0   3 27.2059 1.88555   1
   2   0   3 20.4079 1.70925   6
  -3   0  -3 3.49360 0.76640   6
  -3   0  -3 2.82906 0.76782   5
  -3   0  -3 4.10658 0.79853   4
  -3   0  -3 4.94755 0.98994   1
   3   0   3 5.50398 1.07746   1
  -4   0  -3 12.2031 1.52319   5
  -4   0  -3 7.50956 1.18971   6
  -4   0  -3 9.73240 1.38350   1
  -4   0  -3 11.0524 1.50780   1
   4   0   3 11.7192 1.53147   1
  -5   0  -3 244.305 9.75673   5
  -5   0  -3 255.048 9.60428   2
  -5   0  -3 264.688 9.79692   1
  -5   0  -3 240.756 9.79499   6
   5   0   3 236.960 10.1471   6
   5   0   3 256.992 9.88685   5
   5   0   3 240.969 9.77978   1
  -6   0  -3 11.0172 1.70800   6
  -6   0  -3 10.3657 1.62748   2
  -6   0  -3 9.52369 1.65265   1
   6   0   3 8.48381 1.80330   6
   6   0   3 8.18074 1.66334   5
   6   0   3 10.3446 1.83916   1
  -7   0  -3 1.19888 0.83314   6
  -7   0  -3 0.83438 0.96581   2
  -7   0  -3 1.11927 0.98531   1
   7   0   3 1.93243 1.23804   6
   7   0   3 0.81042 1.04078   5
   7   0   3 1.56540 1.15019   1
  -8   0  -3 2.21048 1.24492   1
  -8   0  -3 4.02256 1.38170   2
   8   0   3 8.02174 1.97730   1
   8   0   3 5.47121 1.68225   5
  -9   0  -3 23.0924 3.06155   2
   9   0   3 32.6969 3.79359   1
   9   0   3 27.0182 3.47287   5
 -10   0  -3 5.95244 1.95903   2
  10   0   3 2.55894 1.76154   5
  10   0   3 4.25641 1.98154   1
  10  -1  -3 4.13176 1.72793   4
  10  -1  -3 -0.6693 1.23802   1
 -10   1   3 1.32163 1.30472   2
   9  -1  -3 20.8328 2.86541   4
   9  -1  -3 20.4088 2.99760   1
  -9   1   3 26.4833 3.28531   2
   8  -1  -3 6.12805 1.62110   1
   8  -1  -3 4.01807 1.36918   4
  -8   1   3 4.79357 1.46833   2
  -8   1   3 5.89704 1.56044   1
   7  -1  -3 2.06167 1.11274   6
   7  -1  -3 2.86924 1.23040   1
   7  -1  -3 2.20169 1.11590   4
  -7   1   3 1.27596 0.99235   1
  -7   1   3 2.67770 1.07320   2
   6  -1  -3 5.67991 1.48142   6
   6  -1  -3 5.70694 1.24343   4
   6  -1  -3 7.26648 1.45384   1
  -6   1   3 6.33790 1.29577   2
  -6   1   3 7.28923 1.42970   1
   5  -1  -3 -0.5615 0.52810   1
   5  -1  -3 -0.1320 0.58725   4
   5  -1  -3 -0.3790 0.47379   6
  -5   1   3 -0.2763 0.58875   1
  -5   1   3 0.41500 0.62226   2
   4  -1  -3 61.5543 3.31063   1
   4  -1  -3 60.9059 3.32298   6
   4  -1  -3 63.1349 3.10537   4
   4  -1  -3 53.0559 3.23897   3
  -4   1   3 65.2398 3.17615   2
  -4   1   3 64.1517 3.30185   1
  -4   1   3 62.3737 3.35409   3
   3  -1  -3 22.4790 1.57304   2
   3  -1  -3 18.2064 1.59503   6
   3  -1  -3 22.4600 1.74622   1
   3  -1  -3 23.2501 1.79323   6
   3  -1  -3 21.8393 1.53170   4
   3  -1  -3 21.4755 1.70470   3
  -3   1   3 23.7630 1.64500   2
  -3   1   3 27.4263 1.91755   3
  -3   1   3 23.2360 1.78288   1
   2  -1  -3 161.262 6.37948   3
   2  -1  -3 172.312 6.45529   1
   2  -1  -3 162.775 6.05631   4
   2  -1  -3 167.010 6.19168   2
   2  -1  -3 169.770 6.54722   6
  -2   1   3 169.665 6.42068   3
  -2   1   3 166.954 6.45293   1
  -2   1   3 156.964 5.99591   4
   1  -1  -3 55.1336 2.64428   3
   1  -1  -3 54.2795 2.66358   1
   1  -1  -3 55.7896 2.31032   4
   1  -1  -3 48.9686 2.73480   1
   1  -1  -3 51.9759 2.72190   6
  -1   1   3 54.6910 2.71310   6
  -1   1   3 49.9833 2.74117   1
  -1   1   3 53.8730 2.61583   3
  -1   1   3 54.1483 2.71384   1
   0  -1  -3 277.317 9.68239   1
   0  -1  -3 289.591 9.94473   6
   0   1   3 264.363 9.67645   1
   0   1   3 268.221 9.67153   3
   0   1   3 255.667 9.57044   1
  -1  -1  -3 39.2095 2.16721   1
  -1  -1  -3 42.9383 2.45827   6
   1   1   3 37.8894 2.23177   1
   1   1   3 36.8581 2.13794   1
  -2  -1  -3 341.329 12.0359   1
  -2  -1  -3 346.196 12.3529   6
  -2  -1  -3 346.962 12.3083   5
   2   1   3 342.511 12.4358   6
   2   1   3 324.642 12.0127   1
  -3  -1  -3 703.932 24.0553   1
  -3  -1  -3 724.097 24.3381   6
  -3  -1  -3 714.435 23.4921   4
   3   1   3 739.775 24.6216   6
   3   1   3 677.184 24.1912   1
  -4  -1  -3 6.18188 1.17347   1
  -4  -1  -3 5.31620 1.17512   5
  -4  -1  -3 4.84328 1.04514   1
  -4  -1  -3 4.10359 0.93275   6
   4   1   3 4.13206 1.05717   1
   4   1   3 4.24118 1.08880   6
  -5  -1  -3 29.8823 2.63500   2
  -5  -1  -3 25.5588 2.46531   1
  -5  -1  -3 23.2610 2.02541   6
   5   1   3 21.8942 2.56727   6
   5   1   3 23.3649 2.46081   1
  -6  -1  -3 70.5600 4.05535   1
  -6  -1  -3 74.6997 4.13223   2
  -6  -1  -3 74.0271 3.94480   6
   6   1   3 73.2108 4.33525   1
   6   1   3 70.9600 4.39519   5
   6   1   3 70.8855 4.60264   6
  -7  -1  -3 1.43514 1.00947   1
  -7  -1  -3 0.05003 0.78931   2
   7   1   3 0.55492 1.01111   5
   7   1   3 2.01259 1.21217   1
  -8  -1  -3 1.92267 1.30833   2
   8   1   3 2.80401 1.40558   1
   8   1   3 1.63152 1.22831   5
  -9  -1  -3 40.0901 3.91751   2
   9   1   3 50.6842 4.87711   1
   9   1   3 34.7377 4.11019   5
 -10  -1  -3 -1.1814 1.23584   2
  10   1   3 1.35535 1.63687   1
  10  -2  -3 8.98123 2.42277   1
  10  -2  -3 12.5808 2.49041   4
 -10   2   3 10.6679 2.26697   2
   9  -2  -3 2.74160 1.56043   1
   9  -2  -3 1.36564 1.25461   4
  -9   2   3 2.29905 1.30099   2
   8  -2  -3 9.53702 2.06317   1
   8  -2  -3 8.72941 1.83907   4
  -8   2   3 13.5084 2.18442   2
  -8   2   3 4.79175 1.55704   1
   7  -2  -3 141.470 6.56636   4
   7  -2  -3 146.745 7.01183   1
  -7   2   3 146.057 6.68057   2
  -7   2   3 144.185 6.91643   1
   6  -2  -3 1.58574 0.82423   6
   6  -2  -3 1.11558 0.98849   1
   6  -2  -3 2.07745 0.99681   4
  -6   2   3 1.39238 0.92698   1
  -6   2   3 1.93242 0.90792   2
   5  -2  -3 35.4849 2.38427   4
   5  -2  -3 33.8674 2.60545   6
   5  -2  -3 33.8615 2.64192   1
  -5   2   3 32.7618 2.62114   1
  -5   2   3 34.6080 2.75337   3
  -5   2   3 36.2728 2.40023   2
   4  -2  -3 371.470 12.7090   4
   4  -2  -3 367.418 13.1303   1
   4  -2  -3 347.584 13.1717   6
   4  -2  -3 346.810 13.1882   6
  -4   2   3 350.127 13.0729   1
  -4   2   3 355.436 13.2379   3
  -4   2   3 353.282 12.7320   2
   3  -2  -3 0.07861 0.47114   4
   3  -2  -3 0.06384 0.54679   6
   3  -2  -3 0.57269 0.67156   3
   3  -2  -3 0.23481 0.40022   6
   3  -2  -3 -0.4473 0.47051   1
  -3   2   3 0.96683 0.70716   3
  -3   2   3 -0.5099 0.46465   1
   2  -2  -3 113.334 4.89184   6
   2  -2  -3 111.905 4.25427   4
   2  -2  -3 103.267 4.76415   3
   2  -2  -3 104.591 4.61948   1
   2  -2  -3 101.567 4.28009   2
   2  -2  -3 107.363 4.72066   6
  -2   2   3 97.4395 4.27757   4
  -2   2   3 115.314 4.86731   3
  -2   2   3 111.107 4.76376   1
   1  -2  -3 258.325 9.74681   3
   1  -2  -3 257.559 9.60204   6
   1  -2  -3 263.651 9.77782   6
   1  -2  -3 259.224 9.56999   1
   1  -2  -3 257.271 8.98501   4
  -1   2   3 263.064 9.80935   3
  -1   2   3 276.740 9.73212   1
   0  -2  -3 65.1732 3.28012   6
   0  -2  -3 66.2512 3.12212   1
   0  -2  -3 60.3054 2.45468   4
   0   2   3 64.2050 3.32082   3
   0   2   3 60.8032 3.02912   1
   0   2   3 62.8217 3.19119   1
   0   2   3 63.7775 3.29367   6
  -1  -2  -3 5.54362 1.09778   6
  -1  -2  -3 5.83284 0.97084   1
   1   2   3 5.68272 0.99639   1
   1   2   3 5.47973 1.02600   1
   1   2   3 4.81416 1.05660   6
  -2  -2  -3 123.330 4.56237   4
  -2  -2  -3 130.827 5.71357   5
  -2  -2  -3 133.120 5.49036   6
  -2  -2  -3 128.973 5.30089   1
   2   2   3 127.941 5.70870   6
   2   2   3 123.541 5.31541   1
   2   2   3 133.903 5.51315   1
  -3  -2  -3 5.59032 0.69028   4
  -3  -2  -3 4.20294 0.92983   1
  -3  -2  -3 4.39555 0.90774   6
  -3  -2  -3 2.55742 0.85696   5
   3   2   3 3.66017 1.00188   6
   3   2   3 5.15010 1.06690   1
  -4  -2  -3 18.5321 1.29371   4
  -4  -2  -3 21.3846 1.76064   6
  -4  -2  -3 23.0492 2.21244   1
  -4  -2  -3 19.2569 2.01524   1
   4   2   3 18.4344 2.17344   6
   4   2   3 20.4863 2.24342   1
  -5  -2  -3 55.5969 3.28964   1
  -5  -2  -3 61.4646 3.43947   2
   5   2   3 57.4244 3.61220   1
   5   2   3 55.2490 3.81677   6
  -6  -2  -3 1.03823 0.91097   2
  -6  -2  -3 2.11903 0.98078   1
   6   2   3 2.48038 1.23333   6
   6   2   3 0.72243 0.93242   1
  -7  -2  -3 9.58628 1.74872   2
   7   2   3 6.09391 1.64880   1
  -8  -2  -3 20.4187 2.78482   2
   8   2   3 16.5287 2.77116   1
  -9  -2  -3 31.6432 3.53655   2
   9   2   3 29.8532 3.86566   1
  10  -3  -3 1.21902 1.66622   1
  10  -3  -3 3.46782 1.79172   4
 -10   3   3 0.74753 1.35166   2
   9  -3  -3 3.09405 1.80599   1
   9  -3  -3 4.01521 1.54098   4
  -9   3   3 2.02503 1.48574   2
  -9   3   3 3.28357 1.50565   1
   8  -3  -3 2.11051 1.35325   4
   8  -3  -3 4.08392 1.66849   1
  -8   3   3 4.75467 1.55668   2
  -8   3   3 5.98802 1.82392   1
   7  -3  -3 2.98668 1.22989   4
   7  -3  -3 1.19737 1.18699   1
  -7   3   3 1.18451 1.05219   1
  -7   3   3 2.70522 1.12552   2
   6  -3  -3 13.0337 2.31923   6
   6  -3  -3 8.72799 1.66037   4
   6  -3  -3 9.27929 1.79704   1
   6  -3  -3 13.0343 2.42653   6
  -6   3   3 9.81475 1.66878   2
  -6   3   3 10.5785 2.29334   3
  -6   3   3 11.0257 2.06744   1
   5  -3  -3 49.3231 3.48872   6
   5  -3  -3 52.1996 3.58404   6
   5  -3  -3 59.6193 3.28189   4
   5  -3  -3 65.8368 3.76277   1
  -5   3   3 58.4023 3.89165   3
  -5   3   3 58.6440 3.27958   2
  -5   3   3 53.0878 3.57297   1
   4  -3  -3 187.521 8.13705   6
   4  -3  -3 190.621 8.15750   6
   4  -3  -3 208.986 7.65584   4
   4  -3  -3 204.469 8.15048   1
  -4   3   3 189.921 8.11507   1
  -4   3   3 192.026 8.31060   3
   3  -3  -3 3.33738 1.05123   6
   3  -3  -3 2.83736 1.02744   6
   3  -3  -3 3.03955 0.91174   1
   3  -3  -3 1.53676 0.63173   4
  -3   3   3 2.71160 1.01996   3
  -3   3   3 2.57071 0.91834   1
   2  -3  -3 216.971 7.53957   4
   2  -3  -3 216.207 8.23015   6
   2  -3  -3 201.182 8.26120   6
   2  -3  -3 196.531 7.57048   2
   2  -3  -3 208.026 8.05959   1
  -2   3   3 206.273 8.41005   3
  -2   3   3 208.685 8.26612   1
   1  -3  -3 590.400 19.9499   6
   1  -3  -3 589.873 19.9203   1
   1  -3  -3 568.948 20.0934   6
   1  -3  -3 591.529 19.1726   4
  -1   3   3 570.076 20.1568   6
  -1   3   3 584.602 20.1430   1
  -1   3   3 560.225 20.3538   3
   0  -3  -3 104.629 4.51611   6
   0  -3  -3 104.321 3.77766   4
   0  -3  -3 106.863 4.58509   1
   0  -3  -3 100.275 4.69595   6
   0   3   3 106.677 4.81776   1
   0   3   3 108.607 4.94471   6
  -1  -3  -3 96.7213 3.46373   4
  -1  -3  -3 102.928 4.54436   6
  -1  -3  -3 101.309 4.26682   6
  -1  -3  -3 101.358 4.43205   1
   1   3   3 108.797 4.88193   6
   1   3   3 103.576 4.62058   1
   1   3   3 91.2125 4.41096   1
  -2  -3  -3 0.63961 0.24416   4
  -2  -3  -3 0.19534 0.44846   6
  -2  -3  -3 0.57454 0.59374   1
  -2  -3  -3 0.13265 0.31858   6
  -2  -3  -3 0.30304 0.61680   5
   2   3   3 0.23654 0.53644   1
   2   3   3 -0.0760 0.59469   6
   2   3   3 -0.8678 0.36793   1
  -3  -3  -3 100.843 3.74742   4
  -3  -3  -3 101.352 4.62715   1
  -3  -3  -3 108.156 4.45249   6
   3   3   3 106.929 5.25566   6
   3   3   3 105.937 5.00279   1
  -4  -3  -3 100.861 4.63683   1
  -4  -3  -3 106.616 4.71298   1
  -4  -3  -3 94.5189 3.76688   4
   4   3   3 100.180 4.98554   1
   4   3   3 96.0600 5.21623   6
  -5  -3  -3 0.17530 0.72552   1
  -5  -3  -3 0.69468 0.86273   2
   5   3   3 3.31005 1.16772   1
   5   3   3 1.10663 0.94064   6
  -6  -3  -3 180.757 7.65452   2
   6   3   3 162.251 7.79406   1
   6   3   3 167.751 8.22839   6
  -7  -3  -3 44.8757 4.00628   2
   7   3   3 45.2575 4.35711   1
  -8  -3  -3 2.93286 1.37667   2
   8   3   3 0.60199 1.17263   1
  -9  -3  -3 60.1249 4.58681   2
   9   3   3 68.0274 5.15317   1
  10  -4  -3 3.41313 1.70602   4
  10  -4  -3 1.28765 1.57205   1
 -10   4   3 3.47414 1.84752   2
   9  -4  -3 -0.1135 1.30894   4
   9  -4  -3 -0.2215 1.35597   1
  -9   4   3 -1.6725 1.06223   2
  -9   4   3 -0.3863 1.24326   1
   8  -4  -3 51.5027 3.91308   4
   8  -4  -3 58.6007 4.52084   1
  -8   4   3 64.3265 4.15950   2
  -8   4   3 63.6380 4.71894   1
   7  -4  -3 83.7326 4.73279   4
   7  -4  -3 78.3306 5.04673   1
  -7   4   3 83.0771 5.18961   1
  -7   4   3 84.6295 4.60431   2
  -7   4   3 78.5860 5.30134   3
   6  -4  -3 87.3953 6.24031   6
   6  -4  -3 101.158 5.46896   1
   6  -4  -3 99.5180 4.96055   4
  -6   4   3 92.0163 4.75858   2
  -6   4   3 92.6246 5.63384   3
  -6   4   3 90.1471 5.32622   1
   5  -4  -3 7.50814 1.78243   1
   5  -4  -3 5.87589 1.36381   6
   5  -4  -3 5.17331 1.52315   6
   5  -4  -3 9.55958 1.59176   4
  -5   4   3 8.41637 1.82928   3
  -5   4   3 9.18505 1.87165   1
   4  -4  -3 44.0672 3.23554   6
   4  -4  -3 37.8548 2.97710   6
   4  -4  -3 51.1336 3.25081   1
   4  -4  -3 53.4832 2.93033   4
  -4   4   3 46.9463 3.48767   3
  -4   4   3 49.0616 3.39943   1
   3  -4  -3 9.37898 1.58830   1
   3  -4  -3 5.92332 1.42150   6
   3  -4  -3 8.90844 1.21157   4
   3  -4  -3 7.60554 1.53600   6
  -3   4   3 10.2274 1.82033   3
  -3   4   3 11.2076 1.87561   1
   2  -4  -3 221.511 8.48029   2
   2  -4  -3 222.905 9.06687   6
   2  -4  -3 242.650 9.16929   1
   2  -4  -3 245.563 9.38127   6
   2  -4  -3 238.654 8.42195   4
  -2   4   3 228.536 9.40348   6
  -2   4   3 237.552 9.74826   3
  -2   4   3 243.874 9.45957   1
   1  -4  -3 6.39989 0.77066   4
   1  -4  -3 3.33614 0.81649   6
   1  -4  -3 6.30882 1.15609   1
   1  -4  -3 4.95133 1.06606   6
  -1   4   3 4.07397 1.25362   3
  -1   4   3 4.27767 1.12596   1
  -1   4   3 7.03521 1.52905   6
   0  -4  -3 49.4679 2.85667   6
   0  -4  -3 47.1102 2.76821   1
   0  -4  -3 48.6953 2.59728   6
   0  -4  -3 47.0150 1.91951   4
   0   4   3 48.3036 3.37941   3
   0   4   3 50.6740 3.15791   6
   0   4   3 49.9298 3.06793   1
  -1  -4  -3 172.033 6.79709   6
  -1  -4  -3 176.992 7.01873   1
   1   4   3 177.489 7.57714   6
   1   4   3 186.246 7.45231   1
   1   4   3 172.480 7.90830   3
  -2  -4  -3 0.12222 0.59210   1
   2   4   3 0.19089 0.58497   1
   2   4   3 -0.3253 0.61189   6
  -3  -4  -3 71.2244 3.65043   1
   3   4   3 78.1920 4.15947   1
   3   4   3 71.2964 4.31487   6
  -4  -4  -3 53.4339 3.12285   1
  -4  -4  -3 53.1363 3.14631   2
  -4  -4  -3 55.3895 3.11751   1
   4   4   3 53.1201 3.49611   1
   4   4   3 47.6693 3.64734   6
  -5  -4  -3 19.7834 2.33152   2
   5   4   3 13.8218 2.14421   1
   5   4   3 10.3550 1.96515   6
  -6  -4  -3 73.5741 4.23506   2
   6   4   3 68.1787 4.52999   1
  -7  -4  -3 160.299 7.50513   2
   7   4   3 155.238 7.90917   1
  -8  -4  -3 0.07335 1.18309   2
   8   4   3 0.74555 1.29620   1
   9  -5  -3 2.32669 1.65799   4
   9  -5  -3 4.28713 1.91672   1
  -9   5   3 1.51724 1.40479   2
  -9   5   3 3.32597 1.84262   1
   8  -5  -3 10.7779 2.10264   4
   8  -5  -3 9.23404 2.27099   1
  -8   5   3 8.62185 2.22132   1
  -8   5   3 11.1493 2.03202   2
   7  -5  -3 -0.3036 1.19486   1
   7  -5  -3 0.40684 1.02257   4
  -7   5   3 0.86358 1.29672   3
  -7   5   3 0.30014 1.24502   1
  -7   5   3 2.41773 1.13832   2
   6  -5  -3 3.15327 1.52639   1
   6  -5  -3 4.28344 1.30160   4
  -6   5   3 1.79700 1.57025   3
  -6   5   3 2.92232 1.40023   1
   5  -5  -3 47.7971 3.48570   1
   5  -5  -3 44.7938 2.99801   4
  -5   5   3 37.1310 3.99978   3
  -5   5   3 41.5393 4.04807   1
   4  -5  -3 83.8686 4.75320   6
   4  -5  -3 73.7636 4.49002   1
   4  -5  -3 88.9389 4.15250   4
  -4   5   3 85.4006 5.22356   3
  -4   5   3 83.7550 4.88730   1
   3  -5  -3 24.0542 2.68382   6
   3  -5  -3 24.2807 2.05435   4
   3  -5  -3 19.4506 2.29913   1
  -3   5   3 25.6105 2.85004   1
  -3   5   3 27.2757 3.32546   3
   2  -5  -3 106.938 5.28241   6
   2  -5  -3 115.229 4.51346   4
   2  -5  -3 111.530 5.24933   1
  -2   5   3 114.535 5.58458   1
  -2   5   3 108.278 5.91187   3
  -2   5   3 109.355 5.54927   6
   1  -5  -3 8.22282 1.08513   2
   1  -5  -3 8.50091 1.43033   1
   1  -5  -3 7.40721 0.87165   4
  -1   5   3 8.06636 1.61433   6
  -1   5   3 8.07513 1.62598   1
  -1   5   3 8.80220 1.98205   3
   0  -5  -3 2.29200 0.96147   1
   0   5   3 3.45388 1.20717   1
   0   5   3 3.48306 1.41950   3
   0   5   3 2.00374 0.95998   6
  -1  -5  -3 22.5791 2.15361   1
   1   5   3 22.9664 3.11273   3
   1   5   3 21.6507 2.51381   1
   1   5   3 24.2042 2.72859   6
   2   5   3 6.35603 1.56265   6
   2   5   3 7.14939 1.95641   3
   2   5   3 8.52651 1.61140   1
   3   5   3 189.984 8.22014   1
   3   5   3 190.107 8.53480   6
  -4  -5  -3 5.57898 1.23350   2
   4   5   3 4.35376 1.48125   6
   4   5   3 3.84331 1.33174   1
  -5  -5  -3 205.720 8.15312   2
   5   5   3 175.672 8.99283   6
   5   5   3 184.782 8.48653   1
  -6  -5  -3 28.8354 3.00840   2
   6   5   3 36.2477 3.79086   1
  -7  -5  -3 20.9598 2.72144   2
   7   5   3 17.5058 2.83377   1
  -8  -5  -3 29.5449 3.41486   2
   8   5   3 26.5803 3.63259   1
   8  -6  -3 42.0611 4.05739   4
  -8   6   3 42.6932 5.09162   3
  -8   6   3 50.8972 5.31476   1
   7  -6  -3 14.4863 2.44224   4
   7  -6  -3 16.2807 3.69529   1
  -7   6   3 17.3624 3.00078   1
  -7   6   3 13.8625 3.04604   3
   6  -6  -3 1.13893 1.15926   1
   6  -6  -3 0.75464 1.09681   4
  -6   6   3 -0.9471 1.15688   3
  -6   6   3 1.27450 1.36738   1
   5  -6  -3 -0.6214 0.76009   4
   5  -6  -3 0.60397 1.01693   1
  -5   6   3 0.73483 1.26291   1
  -5   6   3 0.08665 1.28516   3
   4  -6  -3 38.3427 2.58699   4
   4  -6  -3 36.6598 3.48120   1
  -4   6   3 34.7941 3.65345   1
  -4   6   3 33.5995 3.99738   3
   3  -6  -3 0.05396 0.90666   1
   3  -6  -3 -0.7393 0.61001   4
  -3   6   3 -0.3185 1.14680   3
  -3   6   3 1.10945 0.99592   1
   2  -6  -3 90.1997 4.62395   1
   2  -6  -3 85.7660 3.73680   4
  -2   6   3 90.3867 5.61805   3
  -2   6   3 83.6694 4.92353   6
  -2   6   3 93.0468 5.08740   1
   1  -6  -3 9.40974 2.38017   1
  -1   6   3 7.70803 1.69946   1
  -1   6   3 4.53295 1.88223   3
  -1   6   3 9.95946 2.07900   6
   0   6   3 4.44989 1.42731   1
   0   6   3 7.69122 2.06175   3
   0   6   3 6.37216 1.60102   6
   1   6   3 41.4461 3.15360   1
   1   6   3 34.3884 3.03294   6
   1   6   3 34.1538 4.08117   3
   2   6   3 22.6353 2.66253   1
   2   6   3 24.4586 3.52000   3
   2   6   3 23.1455 2.86714   6
  -3  -6  -3 28.5840 2.14704   2
   3   6   3 25.7362 2.93460   1
   3   6   3 26.0422 3.29375   6
  -4  -6  -3 1.32180 0.85842   2
   4   6   3 0.70539 1.05794   1
  -5  -6  -3 11.7424 1.84380   2
   5   6   3 16.6744 2.57286   1
  -6  -6  -3 2.32764 1.26587   2
   6   6   3 0.53877 1.25554   1
  -7  -6  -3 19.8383 3.36676   2
   7   6   3 20.5657 3.13161   1
   7  -7  -3 0.46497 1.18602   4
  -7   7   3 -0.6705 1.46167   1
  -7   7   3 -1.1530 1.71554   3
   6  -7  -3 2.85337 1.22348   4
  -6   7   3 -0.3581 1.30044   1
  -6   7   3 4.62918 2.14015   3
   5  -7  -3 1.17070 1.04341   4
  -5   7   3 -1.1040 1.23993   3
  -5   7   3 0.84546 1.37277   1
   4  -7  -3 26.6427 2.47652   4
  -4   7   3 33.6276 3.84051   1
  -4   7   3 31.9007 4.06309   3
   3  -7  -3 16.8518 1.78425   4
  -3   7   3 13.7493 2.39550   1
  -3   7   3 19.7609 3.31578   3
  -2   7   3 54.8502 4.03607   1
  -2   7   3 40.5881 4.69398   3
  -1   7   3 -1.7685 0.75156   1
  -1   7   3 1.35608 1.50974   3
   0   7   3 0.56615 1.22007   1
   0   7   3 0.70212 1.46183   3
   1   7   3 33.4192 4.39938   3
   1   7   3 19.9236 2.79377   1
   2   7   3 158.375 7.72001   1
   2   7   3 163.153 8.92626   3
   3   7   3 14.8607 2.98571   3
   3   7   3 15.3838 2.47492   1
   4   7   3 13.7491 3.11082   3
   4   7   3 8.45682 2.05910   1
   5   7   3 5.27642 1.82022   1
  -6   8   3 -0.2225 1.44172   1
  -6   8   3 0.05123 1.66619   3
  -5   8   3 18.4414 3.33859   3
  -5   8   3 19.7031 3.21757   1
  -4   8   3 15.5194 2.80005   1
  -4   8   3 15.7329 3.22962   3
  -3   8   3 3.37861 2.08361   3
  -3   8   3 5.88509 1.87879   1
  -2   8   3 0.41980 1.19750   1
  -2   8   3 1.10174 1.55358   3
  -1   8   3 4.50306 1.65531   1
  -1   8   3 5.36174 2.20236   3
   0   8   3 19.2437 3.52837   3
   0   8   3 21.9716 3.12851   1
   1   8   3 17.8390 3.62626   3
   1   8   3 5.77578 1.92483   1
   2   8   3 19.6334 2.96859   1
   2   8   3 21.8444 3.93347   3
   3   8   3 0.43514 1.21334   1
   3   8   3 1.02576 1.64069   3
   4   8   3 9.05138 2.89450   3
   4   8   3 5.63322 1.87259   1
  -3   9   3 26.0640 4.40874   3
  -3   9   3 29.6519 4.00201   1
  -2   9   3 -0.7677 1.26981   1
  -2   9   3 -0.5264 1.65250   3
  -1   9   3 24.9655 4.50331   3
  -1   9   3 21.7289 3.33328   1
   0   9   3 13.7680 3.37406   3
   0   9   3 10.7856 2.45389   1
   1   9   3 -0.4996 1.33353   1
   1   9   3 -1.5694 1.72528   3
   1  11  -4 2.45308 1.14364   6
   1  11  -4 3.10569 1.14232   1
   1  11  -4 1.16361 1.62024   3
   0  11  -4 0.48932 0.85861   6
   0  11  -4 1.13797 1.05474   1
   0  11  -4 1.53834 1.73297   3
  -1  11  -4 14.1377 2.46030   6
  -1  11  -4 13.1928 2.06290   1
  -1  11  -4 13.2631 2.99627   3
  -2  11  -4 46.9711 5.32258   3
  -2  11  -4 56.8544 4.11821   6
  -2  11  -4 58.3069 4.19406   1
  -3  11  -4 8.81868 2.07307   1
  -3  11  -4 9.77203 2.51053   3
  -3  11  -4 9.02509 2.28227   6
   4  10  -4 9.43193 2.81517   3
   3  10  -4 2.48385 1.97687   3
   3  10  -4 2.79439 0.84021   1
   2  10  -4 6.24473 2.37452   3
   2  10  -4 8.49289 1.25789   1
   1  10  -4 160.671 8.38475   3
   1  10  -4 150.244 6.26884   1
   0  10  -4 30.5590 2.29110   6
   0  10  -4 26.9429 2.29085   6
   0  10  -4 26.3935 3.60934   3
   0  10  -4 31.4304 2.49265   1
  -1  10  -4 79.4611 4.25866   1
  -1  10  -4 69.5029 4.14005   6
  -1  10  -4 71.8758 5.26300   3
  -2  10  -4 0.84468 1.12052   1
  -2  10  -4 3.10220 1.70378   3
  -2  10  -4 2.27503 1.19119   6
  -3  10  -4 1.53613 1.30359   1
  -3  10  -4 0.77590 1.16593   6
  -3  10  -4 2.79754 1.54561   3
  -4  10  -4 -0.4299 1.07281   1
  -4  10  -4 0.22176 1.11731   6
  -4  10  -4 2.03771 1.61257   3
  -5  10  -4 -0.4060 1.60138   3
  -5  10  -4 -0.6301 1.18142   1
   5   9  -4 73.5833 5.62433   3
   5   9  -4 66.3066 4.86652   5
   5   9  -4 67.7144 3.27552   1
   4   9  -4 15.0857 2.93648   3
   4   9  -4 20.3365 2.78188   5
   4   9  -4 19.5403 1.45302   1
   3   9  -4 57.8041 4.53847   3
   3   9  -4 59.8714 2.69324   1
   2   9  -4 7.04669 2.06522   3
   2   9  -4 3.23849 0.73580   1
   1   9  -4 -0.3061 0.48764   1
   1   9  -4 0.27354 1.22198   3
   0   9  -4 1.63855 0.73935   6
   0   9  -4 1.28753 0.63315   6
   0   9  -4 1.18552 0.76260   1
   0   9  -4 1.71785 1.52900   3
  -1   9  -4 183.756 7.41224   1
  -1   9  -4 178.879 7.25749   6
  -1   9  -4 170.772 7.39689   6
  -1   9  -4 187.487 8.76488   3
  -2   9  -4 24.6714 2.78782   6
  -2   9  -4 24.3670 2.55893   1
  -2   9  -4 22.3420 3.24586   3
  -3   9  -4 0.17118 0.88146   6
  -3   9  -4 0.78998 0.98440   1
  -3   9  -4 1.80491 1.45116   3
  -4   9  -4 9.47180 2.37701   3
  -4   9  -4 11.5136 2.38255   6
  -4   9  -4 7.81567 1.86195   1
  -5   9  -4 3.29473 1.96520   3
  -5   9  -4 3.05870 1.63333   6
  -5   9  -4 1.25454 1.31314   1
  -6   9  -4 40.9047 4.35429   1
  -6   9  -4 26.8200 3.89641   3
  -7   9  -4 5.17291 2.00578   1
   7   8  -4 13.3761 2.02690   6
   7   8  -4 15.0641 3.87295   5
   7   8  -4 15.4076 1.93539   1
   6   8  -4 17.7948 1.86952   1
   6   8  -4 19.2225 3.06832   5
   5   8  -4 13.2024 2.38055   5
   5   8  -4 14.1470 1.44511   1
   4   8  -4 0.18726 0.95250   5
   4   8  -4 0.10979 0.55305   4
   4   8  -4 -0.6091 1.00733   3
   3   8  -4 3.32668 1.52073   3
   3   8  -4 2.24845 0.76219   4
   3   8  -4 1.22473 0.94164   5
   2   8  -4 4.45578 1.54360   3
   2   8  -4 3.17912 1.11152   5
   1   8  -4 46.6365 2.27690   1
   1   8  -4 48.8920 3.68656   3
   1   8  -4 50.7991 2.34944   1
   0   8  -4 51.1662 2.64334   1
   0   8  -4 49.5786 3.73559   3
  -1   8  -4 16.8053 1.91842   6
  -1   8  -4 17.9859 2.60826   3
  -1   8  -4 23.9578 2.18744   1
  -1   8  -4 19.8228 1.88446   6
  -2   8  -4 12.4222 1.89410   6
  -2   8  -4 14.3414 1.88624   1
  -2   8  -4 16.2922 2.55088   3
  -3   8  -4 24.9995 2.70870   1
  -3   8  -4 31.0248 3.51917   3
  -3   8  -4 23.7240 2.77530   6
  -4   8  -4 54.6473 4.13473   3
  -4   8  -4 56.1205 3.71300   1
  -4   8  -4 50.1804 3.78208   6
  -5   8  -4 2.10691 1.32912   3
  -5   8  -4 0.26241 0.97616   1
  -5   8  -4 1.11644 1.02422   6
  -5   8  -4 0.18540 1.08260   2
  -6   8  -4 59.7132 4.42215   1
  -6   8  -4 55.8288 4.53076   3
  -7   8  -4 3.76183 1.82147   1
  -8   8  -4 16.2198 3.05235   1
   8   7  -4 10.2143 1.92070   6
   8   7  -4 9.57411 1.76917   1
  -8  -7   4 8.18934 2.91846   2
   7   7  -4 1.02300 0.88535   6
   7   7  -4 1.92450 1.03881   1
   7   7  -4 0.56294 1.29545   5
  -7  -7   4 -0.9937 0.88147   2
   6   7  -4 223.398 10.5455   5
   6   7  -4 240.446 9.14681   4
   6   7  -4 235.064 8.84515   1
  -6  -7   4 239.440 9.36095   2
   5   7  -4 22.2882 2.93736   5
   5   7  -4 18.5185 1.46298   1
   5   7  -4 19.6651 1.95082   4
  -5  -7   4 22.2713 2.17542   2
   4   7  -4 26.0197 1.85756   4
   4   7  -4 23.8800 2.76666   5
   3   7  -4 1.24497 1.10622   3
   3   7  -4 1.81044 0.67607   4
   3   7  -4 2.36166 0.94104   5
   2   7  -4 0.28917 0.82577   3
   2   7  -4 0.66103 0.65766   5
   2   7  -4 0.94390 0.43082   2
   1   7  -4 5.53668 1.51734   3
   1   7  -4 5.80304 0.67015   1
   1   7  -4 6.51938 0.61149   2
   1   7  -4 5.06572 1.01968   5
   1   7  -4 6.35031 0.71895   1
   0   7  -4 26.1274 1.62202   1
   0   7  -4 29.4965 2.95747   3
   0   7  -4 28.6726 1.69831   1
  -1   7  -4 583.049 20.9168   3
  -1   7  -4 565.479 19.8171   1
  -1   7  -4 590.304 19.9178   1
  -1   7  -4 600.547 19.9039   6
  -2   7  -4 57.0111 3.40595   6
  -2   7  -4 57.4572 2.45229   2
  -2   7  -4 55.7017 3.17537   1
  -2   7  -4 66.2086 3.40614   1
  -2   7  -4 68.4771 4.04358   3
  -3   7  -4 0.40648 0.88479   6
  -3   7  -4 0.89861 1.10285   3
  -3   7  -4 0.36935 0.72376   1
  -3   7  -4 0.47809 0.46745   2
  -4   7  -4 107.599 5.83302   3
  -4   7  -4 102.858 4.44013   2
  -4   7  -4 108.599 5.75268   6
  -4   7  -4 106.771 5.42122   1
  -5   7  -4 141.817 6.01972   2
  -5   7  -4 150.470 7.42532   6
  -5   7  -4 152.655 7.17512   1
  -5   7  -4 143.159 7.27592   3
  -6   7  -4 14.3856 1.86724   2
  -6   7  -4 14.2887 2.41251   1
  -7   7  -4 33.5103 3.09815   2
  -7   7  -4 31.0592 3.76380   1
  -8   7  -4 0.05462 1.07359   2
  -8   7  -4 -0.5605 1.29180   1
  -9   7  -4 0.91261 1.69530   1
  -9   7  -4 -1.8230 1.12586   2
   8   6  -4 10.0019 1.92811   6
   8   6  -4 6.83905 1.55328   1
   8   6  -4 8.55796 1.66397   4
   8   6  -4 10.7919 2.52739   5
  -8  -6   4 10.3915 1.98291   2
   7   6  -4 103.174 4.93988   4
   7   6  -4 93.2914 5.99424   5
   7   6  -4 101.169 4.73269   6
   7   6  -4 103.223 4.86129   1
  -7  -6   4 98.2092 5.17540   2
   6   6  -4 6.52191 1.83373   5
   6   6  -4 3.60282 1.05059   4
   6   6  -4 6.36856 1.21963   1
  -6  -6   4 7.46599 1.51696   2
   5   6  -4 76.4663 3.79665   4
   5   6  -4 75.8071 4.63403   5
   5   6  -4 78.3029 3.42004   1
  -5  -6   4 80.3382 3.93076   2
   4   6  -4 61.6890 2.52962   1
   4   6  -4 61.5975 3.14519   4
   4   6  -4 62.1612 2.53274   1
   4   6  -4 64.9454 3.89975   5
  -4  -6   4 61.6430 3.14033   2
   3   6  -4 1.95369 0.67805   4
   3   6  -4 2.73102 0.91354   5
   3   6  -4 1.55559 0.57647   2
   2   6  -4 205.062 7.40824   2
   2   6  -4 211.534 8.12973   5
   2   6  -4 206.930 8.49311   3
   1   6  -4 105.429 4.61377   5
   1   6  -4 113.521 4.15835   2
   1   6  -4 115.034 5.24761   3
   0   6  -4 190.179 7.74187   3
   0   6  -4 191.453 6.76857   1
   0   6  -4 189.085 6.59244   2
   0   6  -4 192.293 6.77637   1
   0   6  -4 188.870 6.87498   5
  -1   6  -4 697.700 23.9785   3
  -1   6  -4 664.796 23.1454   1
  -1   6  -4 685.464 23.2188   1
  -1   6  -4 707.288 23.2631   1
  -1   6  -4 716.051 23.1690   6
  -2   6  -4 86.9946 4.16827   6
  -2   6  -4 79.2624 3.85285   1
  -2   6  -4 90.1053 4.03466   1
  -2   6  -4 92.2428 4.42922   3
   2  -6   4 77.7176 3.08328   1
  -3   6  -4 98.6541 4.76714   1
  -3   6  -4 102.677 5.10831   3
  -3   6  -4 104.796 5.13348   6
  -3   6  -4 99.7518 4.17037   2
  -3   6  -4 104.015 4.88792   1
   3  -6   4 102.271 4.26680   1
  -4   6  -4 295.501 11.7046   3
  -4   6  -4 284.339 10.5922   2
  -4   6  -4 303.684 11.4803   1
  -4   6  -4 294.216 11.8035   6
   4  -6   4 295.087 10.9044   1
  -5   6  -4 184.737 7.35174   2
  -5   6  -4 181.084 8.53354   6
  -5   6  -4 196.348 8.32139   1
   5  -6   4 175.801 7.63479   1
  -6   6  -4 3.77056 1.46764   1
  -6   6  -4 1.74101 0.93571   2
  -6   6  -4 2.44658 1.27607   6
   6  -6   4 1.24067 0.99716   1
  -7   6  -4 90.8595 4.77141   2
  -7   6  -4 86.0081 5.46304   1
  -8   6  -4 -0.9646 1.15846   1
  -8   6  -4 0.31502 0.96531   2
  -9   6  -4 9.37188 2.42315   1
  -9   6  -4 6.04907 1.71058   2
   9   5  -4 1.78717 1.30240   4
   9   5  -4 -0.0954 0.97683   1
  -9  -5   4 0.38845 1.41998   2
   8   5  -4 17.9384 2.96604   5
   8   5  -4 22.6043 2.66895   6
   8   5  -4 29.1641 2.89981   4
   8   5  -4 23.3552 2.64070   1
  -8  -5   4 25.3442 2.96549   2
   7   5  -4 230.436 10.1970   5
   7   5  -4 213.685 8.78130   4
   7   5  -4 220.735 8.74280   1
   7   5  -4 212.256 8.61394   6
  -7  -5   4 220.545 9.19495   2
   6   5  -4 102.258 5.70020   5
   6   5  -4 98.5556 4.70628   4
   6   5  -4 94.3241 4.44755   1
   6   5  -4 100.241 4.20770   6
  -6  -5   4 101.685 4.92552   2
   5   5  -4 98.4762 4.43871   4
   5   5  -4 95.9450 4.02344   1
   5   5  -4 94.8630 5.21452   5
   5   5  -4 88.7966 3.94612   1
  -5  -5   4 99.0221 4.54585   2
   4   5  -4 40.1887 2.40584   4
   4   5  -4 39.6210 1.95187   1
   4   5  -4 44.7662 3.04264   5
   4   5  -4 42.4263 1.97670   1
  -4  -5   4 44.9111 2.53929   2
   3   5  -4 -0.0079 0.36884   4
   3   5  -4 -0.2391 0.39852   2
   2   5  -4 608.495 20.7014   3
   2   5  -4 593.725 20.0373   2
   1   5  -4 3.69642 0.60967   2
   1   5  -4 3.18269 0.90107   3
   0   5  -4 753.404 24.4948   1
   0   5  -4 742.608 24.5937   5
   0   5  -4 756.387 25.2327   3
   0   5  -4 742.396 24.4747   1
  -1   5  -4 24.2831 1.87179   3
  -1   5  -4 26.8517 1.58521   6
  -1   5  -4 26.5167 1.65194   1
  -1   5  -4 24.7544 1.59587   1
   1  -5   4 26.7079 1.93909   3
  -2   5  -4 123.371 5.09372   1
  -2   5  -4 121.146 5.07400   1
  -2   5  -4 125.444 5.03790   1
  -2   5  -4 117.180 5.21277   3
  -2   5  -4 119.098 5.20675   6
   2  -5   4 115.506 5.30655   3
   2  -5   4 115.457 4.52215   1
  -3   5  -4 26.6024 2.64148   6
  -3   5  -4 20.7462 2.11236   1
  -3   5  -4 26.8550 2.03921   1
  -3   5  -4 23.9785 2.36844   3
   3  -5   4 20.4345 1.61556   1
  -4   5  -4 139.300 6.66241   6
  -4   5  -4 144.030 5.81748   2
  -4   5  -4 150.185 6.43393   1
   4  -5   4 135.639 5.96649   1
  -5   5  -4 75.8958 4.68550   6
  -5   5  -4 77.8781 4.47160   1
  -5   5  -4 74.8542 3.87833   2
   5  -5   4 76.8675 4.11562   1
  -6   5  -4 23.9699 2.43546   2
  -6   5  -4 21.8006 2.89164   6
  -6   5  -4 22.8124 2.80699   1
   6  -5   4 24.4738 2.65830   1
  -7   5  -4 12.8438 2.06838   2
  -7   5  -4 9.26784 2.05440   1
   7  -5   4 14.3073 2.19083   1
  -8   5  -4 1.69481 1.06722   2
  -8   5  -4 0.42327 1.21670   1
   8  -5   4 -0.2253 0.96925   1
  -9   5  -4 -0.6656 1.26295   1
  -9   5  -4 -0.2080 1.09620   2
   9  -5   4 -0.0521 1.13840   1
   9   4  -4 6.35601 1.66035   1
   9   4  -4 3.29201 1.63221   5
   9   4  -4 4.50932 1.53178   4
  -9  -4   4 7.94195 2.03893   2
   8   4  -4 0.58889 1.00958   4
   8   4  -4 1.77067 1.33075   5
   8   4  -4 -1.1399 0.78475   1
   8   4  -4 -0.4063 0.67226   6
  -8  -4   4 1.51684 1.13540   2
   7   4  -4 67.9071 3.74790   4
   7   4  -4 62.1190 4.44891   5
   7   4  -4 65.0208 3.63927   6
   7   4  -4 61.9814 3.63684   1
  -7  -4   4 60.9209 3.86508   2
   6   4  -4 1.16155 0.80429   1
   6   4  -4 1.77735 0.70970   6
   6   4  -4 2.86638 1.05010   4
  -6  -4   4 -0.0529 0.73512   2
   5   4  -4 15.1375 1.56145   1
   5   4  -4 21.2859 2.03708   4
   5   4  -4 17.1822 1.64758   1
  -5  -4   4 20.2247 2.05376   2
   4   4  -4 44.0009 2.46659   4
   4   4  -4 45.6049 2.15451   1
   4   4  -4 40.4039 2.10850   1
  -4  -4   4 43.8041 2.51994   2
   3   4  -4 106.880 3.78475   1
   3   4  -4 101.578 4.33368   4
   3   4  -4 100.328 3.78582   1
   2   4  -4 516.348 17.3817   2
   1   4  -4 31.5717 1.74353   2
   1   4  -4 35.0471 1.90329   3
   1   4  -4 34.5311 1.43152   1
   1   4  -4 35.2822 1.42108   1
   0   4  -4 485.245 15.7777   1
   0   4  -4 463.715 15.9949   3
   0   4  -4 473.766 15.7413   1
  -1   4  -4 3.57301 0.69397   1
  -1   4  -4 2.47460 0.69733   3
  -1   4  -4 3.89108 0.73057   6
  -1   4  -4 2.49189 0.58758   1
   1  -4   4 3.51219 0.76893   3
   1  -4   4 3.08728 0.47618   1
  -2   4  -4 173.943 6.95863   6
  -2   4  -4 178.442 6.79168   1
  -2   4  -4 172.985 6.74392   3
  -2   4  -4 176.555 6.76051   1
   2  -4   4 169.520 6.79254   3
  -3   4  -4 119.029 5.23549   1
  -3   4  -4 119.114 5.52885   6
  -3   4  -4 115.045 5.14505   1
  -3   4  -4 123.513 5.29170   1
   3  -4   4 117.269 4.86930   6
   3  -4   4 114.438 4.93294   1
   3  -4   4 121.041 5.30217   3
  -4   4  -4 58.6716 3.38720   1
  -4   4  -4 51.8724 3.51848   6
  -4   4  -4 59.5414 3.06499   2
   4  -4   4 56.7042 3.28972   6
   4  -4   4 55.4949 3.14649   1
  -5   4  -4 763.036 27.4989   6
  -5   4  -4 770.725 27.0875   1
  -5   4  -4 768.128 26.5049   2
   5  -4   4 803.209 26.8793   1
   5  -4   4 789.443 27.1939   6
  -6   4  -4 219.453 8.87197   2
  -6   4  -4 230.202 9.51881   1
  -6   4  -4 218.474 9.71405   6
   6  -4   4 199.875 9.36908   6
   6  -4   4 227.298 9.22026   1
  -7   4  -4 153.484 7.39612   1
  -7   4  -4 141.665 6.71434   2
   7  -4   4 148.285 7.08464   1
   7  -4   4 142.107 7.46346   6
  -8   4  -4 312.928 12.4106   2
  -8   4  -4 320.956 13.0802   1
   8  -4   4 308.804 12.7226   1
   8  -4   4 289.524 11.7917   5
  -9   4  -4 38.1601 3.92545   2
  -9   4  -4 36.5862 4.16601   1
   9  -4   4 33.2935 3.88067   1
 -10   4  -4 1.18966 1.33998   2
 -10   4  -4 0.49807 1.49657   1
  10  -4   4 3.30545 1.84270   1
  10   3  -4 8.25616 2.14872   1
  10   3  -4 11.5316 2.25926   4
 -10  -3   4 4.69497 1.82618   2
   9   3  -4 8.36709 1.83478   4
   9   3  -4 3.49646 1.54165   5
   9   3  -4 8.20369 1.91450   1
  -9  -3   4 8.41015 1.96469   2
   8   3  -4 2.84002 1.27677   6
   8   3  -4 1.64753 1.07418   4
   8   3  -4 2.46784 1.19858   1
  -8  -3   4 3.92326 1.36333   2
   7   3  -4 93.7194 4.69735   4
   7   3  -4 89.6858 4.67093   6
   7   3  -4 89.8727 4.70592   1
  -7  -3   4 96.0414 4.95351   2
   6   3  -4 138.236 5.83105   1
   6   3  -4 131.090 5.65104   6
   6   3  -4 129.917 5.81853   4
   6   3  -4 122.872 5.65162   1
  -6  -3   4 141.903 6.12515   2
   5   3  -4 4.10922 0.98513   4
   5   3  -4 5.30464 1.03169   1
   5   3  -4 4.84595 0.97888   1
  -5  -3   4 6.15904 1.23142   2
   4   3  -4 1198.09 38.4434   1
   4   3  -4 1110.31 38.4020   1
   4   3  -4 1202.04 38.7764   4
  -4  -3   4 1187.27 38.8564   2
   3   3  -4 3332.49 105.929   4
   3   3  -4 3147.70 105.500   1
   3   3  -4 3348.57 105.504   1
  -3  -3   4 3311.90 105.954   2
   2   3  -4 893.246 28.0405   1
   2   3  -4 846.951 28.0360   1
   2   3  -4 842.946 28.4442   2
   1   3  -4 1807.39 57.4425   1
   1   3  -4 1781.45 57.3814   1
   1   3  -4 1758.58 57.3387   3
   0   3  -4 1030.82 34.2630   1
   0   3  -4 1073.46 34.0193   3
   0   3  -4 1103.77 34.0626   6
   0   3  -4 1070.00 34.2500   1
   0  -3   4 1053.15 33.8962   1
   0  -3   4 994.022 33.8621   1
   0  -3   4 1038.96 34.0454   3
  -1   3  -4 94.8111 3.94054   1
  -1   3  -4 90.7141 3.87883   1
  -1   3  -4 94.8945 3.97795   6
   1  -3   4 98.6150 3.76686   3
  -2   3  -4 82.3541 3.95934   1
  -2   3  -4 97.3856 4.14966   1
  -2   3  -4 96.3760 4.35071   6
   2  -3   4 88.2151 3.91436   1
   2  -3   4 95.6576 3.99154   3
   2  -3   4 98.7971 3.90887   6
  -3   3  -4 415.434 14.3827   5
  -3   3  -4 430.350 15.5091   6
  -3   3  -4 423.605 15.0941   1
   3  -3   4 431.940 15.0331   3
   3  -3   4 430.193 14.9705   1
   3  -3   4 429.902 15.1393   6
  -4   3  -4 688.027 23.3811   1
  -4   3  -4 709.898 23.4090   1
  -4   3  -4 631.888 23.6038   6
  -4   3  -4 658.506 22.4848   5
   4  -3   4 683.440 23.4990   6
   4  -3   4 667.571 23.0947   1
  -5   3  -4 22.2318 2.57813   1
  -5   3  -4 17.6630 1.95747   2
  -5   3  -4 16.6271 2.25952   6
   5  -3   4 17.9964 2.11823   1
   5  -3   4 19.1523 2.40365   6
  -6   3  -4 219.617 10.0102   6
  -6   3  -4 233.888 9.83793   1
  -6   3  -4 234.970 9.39117   2
   6  -3   4 237.680 9.69826   1
   6  -3   4 239.098 10.1805   6
  -7   3  -4 325.387 12.8019   2
  -7   3  -4 342.215 13.4002   1
   7  -3   4 346.229 13.2424   1
   7  -3   4 313.151 12.4727   5
  -8   3  -4 3.76667 1.38151   2
  -8   3  -4 3.18562 1.49517   1
   8  -3   4 1.55845 1.18519   5
   8  -3   4 1.84609 1.24272   1
  -9   3  -4 1.16230 1.45319   1
  -9   3  -4 1.80061 1.21804   2
   9  -3   4 0.63376 1.20307   5
   9  -3   4 -0.9332 1.12989   1
 -10   3  -4 24.4153 3.75738   1
 -10   3  -4 28.3751 3.58614   2
  10  -3   4 37.2846 4.64907   1
  10   2  -4 18.6565 2.96686   1
  10   2  -4 21.7721 3.00825   4
 -10  -2   4 18.1891 2.89959   2
   9   2  -4 5.28268 1.58254   4
   9   2  -4 2.40769 1.39096   1
  -9  -2   4 4.87971 1.55782   2
   8   2  -4 -0.9127 0.86947   4
   8   2  -4 1.17404 0.95968   6
   8   2  -4 1.60974 1.10668   1
  -8  -2   4 0.93481 0.97755   2
   7   2  -4 30.8683 2.58167   6
   7   2  -4 35.5309 3.01380   4
   7   2  -4 34.2866 2.70835   1
  -7  -2   4 33.0294 3.05276   2
   6   2  -4 0.96203 0.78541   1
   6   2  -4 0.94084 0.65447   6
   6   2  -4 1.77174 0.84766   4
   6   2  -4 1.53832 0.86075   1
  -6  -2   4 1.17338 0.80903   2
  -6  -2   4 1.20346 0.60393   1
   5   2  -4 50.0761 2.85956   1
   5   2  -4 52.3657 2.90450   1
   5   2  -4 50.5494 2.87424   4
   5   2  -4 54.1482 2.81416   6
  -5  -2   4 48.6792 2.46260   1
  -5  -2   4 52.6243 3.03809   2
   4   2  -4 5.54094 0.99316   1
   4   2  -4 3.32861 0.76860   1
   4   2  -4 3.60392 0.83475   4
  -4  -2   4 3.80482 0.88403   2
  -4  -2   4 3.67606 0.65023   1
   3   2  -4 27.7839 1.76267   4
   3   2  -4 25.7943 1.60837   1
   3   2  -4 24.2097 1.60089   1
  -3  -2   4 26.9566 1.39389   1
   2   2  -4 145.714 5.48981   1
   2   2  -4 148.948 5.47199   1
   2   2  -4 144.374 5.63587   2
  -2  -2   4 148.630 5.21685   1
   1   2  -4 430.849 14.3332   1
   1   2  -4 429.166 14.2621   1
  -1  -2   4 410.699 14.0569   1
   0   2  -4 277.644 10.0738   1
   0   2  -4 292.368 10.0814   6
   0   2  -4 299.105 10.0827   1
  -1   2  -4 8.51897 1.07679   6
  -1   2  -4 11.3767 1.23853   1
  -1   2  -4 9.81660 1.14751   1
   1  -2   4 9.52849 1.02437   6
   1  -2   4 10.9250 0.96863   3
   1  -2   4 8.26031 1.02181   1
  -2   2  -4 488.115 16.9713   6
  -2   2  -4 456.525 16.5699   1
  -2   2  -4 474.218 16.6204   1
   2  -2   4 480.026 16.5556   1
   2  -2   4 515.341 16.8046   6
  -3   2  -4 282.661 10.2641   5
  -3   2  -4 300.103 11.0929   6
  -3   2  -4 277.292 10.6262   1
   3  -2   4 284.212 10.6102   1
   3  -2   4 298.560 10.9200   6
  -4   2  -4 22.9958 2.31836   1
  -4   2  -4 27.3529 2.55674   1
  -4   2  -4 28.2204 2.95996   6
  -4   2  -4 24.7414 1.79579   5
   4  -2   4 19.7218 2.30014   6
   4  -2   4 28.7136 2.15945   1
  -5   2  -4 22.6135 2.47616   1
  -5   2  -4 23.0583 2.72475   6
  -5   2  -4 25.9145 2.32957   5
  -5   2  -4 27.7242 2.53724   2
   5  -2   4 26.0756 2.70120   6
   5  -2   4 24.8657 2.51716   1
  -6   2  -4 2.60544 1.11854   6
  -6   2  -4 3.06711 1.06017   2
  -6   2  -4 2.98856 1.14849   1
   6  -2   4 4.56339 1.27359   1
   6  -2   4 10.1132 1.93758   6
  -7   2  -4 117.602 6.06625   1
  -7   2  -4 102.456 5.53771   2
   7  -2   4 117.503 6.06622   1
  -8   2  -4 11.1093 2.00420   2
  -8   2  -4 16.1048 2.72870   1
   8  -2   4 8.66741 1.84840   5
   8  -2   4 10.5782 2.16285   1
  -9   2  -4 70.6476 4.91366   1
  -9   2  -4 63.4399 4.59610   2
   9  -2   4 67.6645 4.91121   1
   9  -2   4 63.9568 4.54007   5
 -10   2  -4 120.947 6.86060   2
  10  -2   4 118.468 7.25832   1
  10   1  -4 -2.0145 1.04260   1
  10   1  -4 -0.1167 1.33631   4
 -10  -1   4 0.45851 1.34920   2
   9   1  -4 27.9317 3.34498   1
   9   1  -4 21.9970 2.87225   4
  -9  -1   4 20.6058 2.83610   2
   8   1  -4 1.30957 1.13744   1
   8   1  -4 2.75343 1.16841   4
  -8  -1   4 0.95294 1.06407   2
   7   1  -4 9.71238 1.76902   1
   7   1  -4 10.9826 1.79845   4
   7   1  -4 13.4107 2.24593   6
  -7  -1   4 10.0026 1.87468   1
  -7  -1   4 7.29725 1.55950   2
   6   1  -4 1.27699 0.83821   1
   6   1  -4 1.08932 0.74685   6
   6   1  -4 1.06421 0.91027   4
  -6  -1   4 0.83035 0.66737   1
  -6  -1   4 -0.0081 0.63399   2
   5   1  -4 14.0643 1.65630   4
   5   1  -4 10.3648 1.35529   6
   5   1  -4 13.5761 1.73082   1
   5   1  -4 12.1573 1.59276   1
  -5  -1   4 12.6604 1.56450   2
  -5  -1   4 14.5595 1.62468   1
   4   1  -4 27.1364 1.95090   1
   4   1  -4 31.0943 2.06722   1
   4   1  -4 27.8673 1.94700   3
  -4  -1   4 31.6189 2.08438   2
  -4  -1   4 30.4111 1.88940   1
   3   1  -4 305.515 11.4758   1
   3   1  -4 322.246 11.4753   4
   3   1  -4 332.428 11.5556   1
   3   1  -4 323.000 11.3189   3
  -3  -1   4 345.724 11.4687   1
   2   1  -4 216.921 7.85036   1
   2   1  -4 209.369 7.87106   1
   2   1  -4 221.812 7.49727   3
   2   1  -4 217.898 7.79884   4
   2   1  -4 206.229 7.84475   2
  -2  -1   4 217.802 7.77551   1
   1   1  -4 1.20030 0.52305   1
   1   1  -4 0.91908 0.50876   6
   1   1  -4 0.93688 0.49184   1
  -1  -1   4 0.95175 0.48817   1
  -1  -1   4 1.41424 0.35810   3
   0   1  -4 708.986 23.3966   1
   0   1  -4 703.357 23.4395   6
   0   1  -4 688.408 23.2949   1
   0  -1   4 716.546 23.2214   6
   0  -1   4 678.944 23.2823   1
  -1   1  -4 486.882 16.9235   6
  -1   1  -4 487.540 16.6325   1
  -1   1  -4 464.927 16.6387   1
   1  -1   4 501.249 16.7321   6
   1  -1   4 492.854 16.6526   1
  -2   1  -4 136.637 5.60231   1
  -2   1  -4 133.626 5.86247   6
   2  -1   4 137.131 5.59824   1
   2  -1   4 140.095 5.81419   6
  -3   1  -4 1369.93 45.8666   5
  -3   1  -4 1376.72 46.0487   1
   3  -1   4 1386.61 46.0616   1
   3  -1   4 1447.76 46.4578   6
  -4   1  -4 204.585 8.33717   6
  -4   1  -4 195.897 7.94056   1
  -4   1  -4 193.417 7.73625   5
   4  -1   4 188.286 8.24174   6
   4  -1   4 196.147 7.95296   1
  -5   1  -4 17.8663 2.13671   6
  -5   1  -4 22.8329 2.52435   1
  -5   1  -4 23.8766 2.33157   2
  -5   1  -4 20.8134 2.36990   1
  -5   1  -4 20.3528 2.18189   5
   5  -1   4 20.5740 2.42920   1
   5  -1   4 19.0144 2.45947   6
  -6   1  -4 76.4451 4.34437   1
  -6   1  -4 70.7065 4.05880   2
  -6   1  -4 68.3737 4.33668   6
   6  -1   4 70.8407 4.31644   1
   6  -1   4 69.4840 4.61276   6
  -7   1  -4 7.74665 1.74891   1
  -7   1  -4 8.19078 1.69382   2
   7  -1   4 10.0933 2.16083   1
  -8   1  -4 14.1197 2.36922   1
  -8   1  -4 14.8704 2.36034   2
   8  -1   4 15.3416 2.67288   1
  -9   1  -4 13.0901 2.30027   2
   9  -1   4 17.8194 3.13957   1
 -10   1  -4 2.47217 1.28950   2
  10  -1   4 0.34393 1.50504   1
  10   0  -4 58.0428 4.60267   1
  10   0  -4 54.6151 4.81934   4
 -10   0   4 49.3837 4.75598   2
   9   0  -4 66.8461 4.63712   1
   9   0  -4 67.0045 4.40104   4
  -9   0   4 61.6810 4.45079   2
   8   0  -4 18.6967 2.49484   4
   8   0  -4 16.0744 2.47023   1
  -8   0   4 13.4532 2.28485   2
   7   0  -4 23.5908 2.60546   4
   7   0  -4 24.6586 2.82731   1
   7   0  -4 16.9853 2.33110   6
  -7   0   4 26.5993 2.77731   1
  -7   0   4 20.9795 2.40747   2
   6   0  -4 71.6158 4.12827   1
   6   0  -4 73.5677 4.16010   6
   6   0  -4 70.8767 3.87461   4
  -6   0   4 76.9809 4.00427   1
   5   0  -4 3.98184 0.88055   6
   5   0  -4 3.87025 1.06102   1
   5   0  -4 5.39614 1.14026   4
  -5   0   4 5.12797 1.09618   1
  -5   0   4 6.85724 1.17863   2
   4   0  -4 13.0631 1.39997   6
   4   0  -4 20.3856 1.80704   4
   4   0  -4 16.0818 1.82294   3
   4   0  -4 19.3671 1.89601   1
  -4   0   4 19.3895 1.87815   1
   3   0  -4 72.2950 3.49282   1
   3   0  -4 68.5633 3.30517   3
   3   0  -4 66.9557 3.42296   1
  -3   0   4 75.5557 3.39341   3
  -3   0   4 75.7344 3.48734   1
   2   0  -4 63.0502 2.83182   4
   2   0  -4 62.6343 3.09214   6
   2   0  -4 58.8706 2.79438   3
   2   0  -4 59.5994 2.92034   2
   2   0  -4 61.7412 3.01586   1
   2   0  -4 60.8892 3.01754   1
  -2   0   4 58.7535 2.99348   1
  -2   0   4 57.3124 2.75306   3
   1   0  -4 4.50723 0.91716   6
   1   0  -4 3.85138 0.79679   1
   1   0  -4 2.87392 0.76105   1
  -1   0   4 4.12192 0.78276   6
  -1   0   4 3.09468 0.74425   1
  -1   0   4 3.97219 0.71140   3
   0   0  -4 3.44270 0.81881   1
   0   0  -4 4.13616 0.85895   1
   0   0  -4 2.11544 0.65990   6
   0   0   4 4.33884 0.77677   3
   0   0   4 2.85132 0.72067   1
   0   0   4 2.14591 0.56012   6
  -1   0  -4 132.787 5.71439   6
  -1   0  -4 127.879 5.37798   1
   1   0   4 131.409 5.48291   1
   1   0   4 139.289 5.64657   6
  -2   0  -4 39.1245 2.58585   6
  -2   0  -4 35.1175 2.29085   1
   2   0   4 32.8412 2.25366   1
   2   0   4 41.6289 2.60386   6
  -3   0  -4 88.8138 4.61452   6
  -3   0  -4 92.3993 4.41317   5
  -3   0  -4 95.0034 4.42176   1
   3   0   4 100.175 4.53761   1
   3   0   4 91.3587 4.66935   6
  -4   0  -4 96.8613 4.58230   1
  -4   0  -4 88.9539 4.50134   5
   4   0   4 95.5360 4.65130   1
   4   0   4 84.0207 4.72137   6
  -5   0  -4 7.96595 1.32634   6
  -5   0  -4 10.8567 1.79490   1
  -5   0  -4 9.47072 1.70506   1
   5   0   4 7.56575 1.48513   1
  -6   0  -4 190.555 8.36834   1
  -6   0  -4 192.495 8.46813   6
  -6   0  -4 193.947 8.25175   2
   6   0   4 198.156 8.59712   1
  -7   0  -4 0.17137 0.90983   6
  -7   0  -4 -0.0099 0.79751   1
  -7   0  -4 0.00077 0.79369   2
   7   0   4 0.04184 0.93256   1
  -8   0  -4 42.3460 4.11442   1
  -8   0  -4 44.5531 4.03574   2
   8   0   4 51.2145 4.08132   1
  -9   0  -4 2.30372 1.34953   2
   9   0   4 -0.4544 1.18183   1
 -10   0  -4 23.6076 3.27424   2
  10   0   4 30.7565 4.11893   1
  10  -1  -4 75.2747 5.16310   4
  10  -1  -4 78.4064 5.58579   1
 -10   1   4 86.7194 5.46107   2
   9  -1  -4 0.90378 1.27660   1
   9  -1  -4 -0.6341 0.99061   4
  -9   1   4 0.62080 1.08903   2
   8  -1  -4 6.21331 1.72932   1
   8  -1  -4 3.53534 1.35910   4
  -8   1   4 7.35208 1.73180   1
  -8   1   4 8.19315 1.80470   2
   7  -1  -4 99.0330 5.09238   4
   7  -1  -4 98.8306 5.95910   6
   7  -1  -4 102.330 5.46014   1
  -7   1   4 95.1978 5.20249   1
  -7   1   4 99.3892 5.17562   2
   6  -1  -4 0.48048 0.73564   6
   6  -1  -4 3.22727 1.21058   1
   6  -1  -4 3.93201 1.14684   4
  -6   1   4 1.72622 1.01687   1
  -6   1   4 3.54936 1.09047   2
   5  -1  -4 0.11666 0.62019   4
   5  -1  -4 0.26105 0.78695   1
   5  -1  -4 0.72593 0.80521   6
  -5   1   4 1.44178 0.72956   2
  -5   1   4 0.96153 0.81057   1
   4  -1  -4 91.8049 4.66578   6
   4  -1  -4 97.5375 4.32290   4
   4  -1  -4 102.195 4.75026   6
   4  -1  -4 92.8423 4.59477   1
   4  -1  -4 92.6252 4.87948   3
  -4   1   4 100.233 4.68152   3
  -4   1   4 94.6444 4.58215   1
   3  -1  -4 86.7583 4.17210   1
   3  -1  -4 81.3930 4.03319   3
   3  -1  -4 86.2780 4.26917   6
   3  -1  -4 85.6129 3.83108   4
  -3   1   4 95.3143 4.21694   3
  -3   1   4 90.6325 4.25281   1
   2  -1  -4 565.055 19.8410   6
   2  -1  -4 575.739 19.6420   1
   2  -1  -4 562.188 19.1651   4
   2  -1  -4 560.855 19.5158   3
  -2   1   4 591.469 19.7680   1
  -2   1   4 576.033 19.5494   3
   1  -1  -4 308.181 11.1939   6
   1  -1  -4 303.443 10.4089   4
   1  -1  -4 292.000 10.8930   1
  -1   1   4 292.981 10.9856   6
  -1   1   4 310.775 10.8632   3
   0  -1  -4 1253.59 42.2005   6
   0  -1  -4 1251.23 41.8772   1
   0   1   4 1315.62 41.8964   3
   0   1   4 1257.72 42.0057   1
   0   1   4 1278.44 42.1339   6
  -1  -1  -4 143.128 5.89044   1
   1   1   4 146.906 6.02544   1
  -2  -1  -4 198.108 7.58159   1
  -2  -1  -4 191.979 7.90683   6
   2   1   4 187.830 7.68314   1
  -3  -1  -4 4.41544 1.03909   1
  -3  -1  -4 3.83066 1.10246   5
  -3  -1  -4 3.14646 0.99516   6
   3   1   4 4.63489 1.07577   1
   3   1   4 5.32438 1.25684   6
  -4  -1  -4 120.623 5.82695   6
  -4  -1  -4 131.763 5.78808   1
   4   1   4 128.082 6.21329   6
   4   1   4 123.034 5.83376   1
  -5  -1  -4 25.9819 2.63969   1
  -5  -1  -4 20.7044 2.30336   6
  -5  -1  -4 26.1203 2.60385   1
   5   1   4 25.8400 2.84427   1
   5   1   4 24.0499 2.72893   6
  -6  -1  -4 3.31749 1.15782   2
  -6  -1  -4 7.07227 1.59746   6
  -6  -1  -4 5.26563 1.39160   1
   6   1   4 4.71818 1.33703   6
   6   1   4 6.82675 1.60333   1
  -7  -1  -4 72.6626 4.49108   1
  -7  -1  -4 75.6428 4.56247   2
   7   1   4 75.7584 4.82464   1
  -8  -1  -4 6.27490 1.78963   2
   8   1   4 9.74298 2.27531   1
  -9  -1  -4 16.6341 2.92346   2
   9   1   4 14.3845 2.86868   1
  10  -2  -4 32.9021 3.92989   4
  10  -2  -4 33.4753 4.21302   1
 -10   2   4 36.7173 4.01558   2
   9  -2  -4 11.6207 2.33135   4
   9  -2  -4 7.08902 2.14837   1
  -9   2   4 8.28869 1.93493   2
   8  -2  -4 115.169 6.42255   1
   8  -2  -4 122.877 6.09354   4
  -8   2   4 114.760 6.00467   2
  -8   2   4 106.679 6.10439   1
   7  -2  -4 17.6676 2.25848   4
   7  -2  -4 14.3112 2.33436   1
  -7   2   4 15.9641 2.43090   1
  -7   2   4 17.2910 2.31559   2
   6  -2  -4 137.718 6.42461   1
   6  -2  -4 127.106 5.84773   4
  -6   2   4 122.763 6.14424   1
  -6   2   4 117.135 5.81974   2
   5  -2  -4 122.679 5.70564   1
   5  -2  -4 111.281 5.70369   6
   5  -2  -4 111.756 5.18707   4
   5  -2  -4 112.442 5.67088   6
  -5   2   4 114.767 5.73158   3
  -5   2   4 116.901 5.30755   2
  -5   2   4 116.438 5.66207   1
   4  -2  -4 15.1346 1.98218   1
   4  -2  -4 12.7552 1.49197   4
   4  -2  -4 11.0824 1.64992   6
   4  -2  -4 14.2694 1.95728   6
  -4   2   4 15.8626 2.05448   3
  -4   2   4 18.9009 2.31112   1
   3  -2  -4 161.076 6.88948   6
   3  -2  -4 156.355 6.19337   4
   3  -2  -4 157.828 6.77902   6
   3  -2  -4 153.257 6.64729   1
  -3   2   4 163.485 6.82201   3
  -3   2   4 161.636 6.79846   1
   2  -2  -4 20.1654 1.74052   6
   2  -2  -4 22.2208 1.96153   6
   2  -2  -4 19.9750 2.08158   3
   2  -2  -4 20.0050 1.94275   1
   2  -2  -4 19.3415 1.41893   4
  -2   2   4 21.8374 2.28016   3
  -2   2   4 22.5285 2.23879   1
  -2   2   4 22.1916 1.87376   6
   1  -2  -4 249.557 9.32849   6
   1  -2  -4 238.544 8.55135   4
   1  -2  -4 241.592 9.26016   1
   1  -2  -4 240.620 9.50835   6
  -1   2   4 247.486 9.45301   6
  -1   2   4 248.628 9.44456   3
  -1   2   4 245.495 9.42713   1
   0  -2  -4 50.8756 2.79192   1
   0  -2  -4 44.7396 2.08545   4
   0  -2  -4 46.8520 2.95068   6
   0   2   4 50.5756 2.91053   1
   0   2   4 46.5042 2.87420   3
  -1  -2  -4 109.505 4.80806   1
  -1  -2  -4 106.504 5.06808   6
   1   2   4 102.515 5.04842   6
   1   2   4 108.864 4.98012   1
  -2  -2  -4 34.6010 2.34700   1
  -2  -2  -4 32.9666 2.49044   6
   2   2   4 34.2521 2.48037   1
   2   2   4 34.7738 2.65362   6
  -3  -2  -4 0.27420 0.43664   4
  -3  -2  -4 0.44734 0.66219   6
  -3  -2  -4 -0.0202 0.57221   1
   3   2   4 0.23350 0.66093   6
   3   2   4 -0.0998 0.61560   1
  -4  -2  -4 21.4168 2.41128   6
  -4  -2  -4 17.9765 2.11281   1
   4   2   4 15.4753 2.08458   6
   4   2   4 17.2864 2.18072   1
  -5  -2  -4 2.78073 1.12509   1
  -5  -2  -4 1.36650 0.96036   1
  -5  -2  -4 2.52549 1.11793   2
   5   2   4 3.91701 1.41928   6
   5   2   4 3.14575 1.34161   1
  -6  -2  -4 2.49617 1.18210   2
  -6  -2  -4 3.27713 1.28284   1
   6   2   4 3.51648 1.38098   1
  -7  -2  -4 1.64115 1.12550   2
   7   2   4 2.34540 1.33495   1
  -8  -2  -4 15.4048 2.47044   2
   8   2   4 9.95364 2.45945   1
  -9  -2  -4 0.32897 1.23715   2
   9   2   4 2.02532 1.75639   1
  10  -3  -4 9.86870 2.34554   4
  10  -3  -4 6.87219 2.34610   1
 -10   3   4 6.31696 2.03339   2
   9  -3  -4 6.01074 2.05216   1
   9  -3  -4 4.30132 1.62176   4
  -9   3   4 4.93730 1.67579   2
   8  -3  -4 30.5669 3.36201   4
   8  -3  -4 30.3428 3.67102   1
  -8   3   4 32.3292 3.76551   1
  -8   3   4 26.7178 3.06018   2
   7  -3  -4 6.66929 1.62681   4
   7  -3  -4 8.20380 1.99133   1
  -7   3   4 6.45270 1.56515   2
  -7   3   4 8.65954 2.04414   1
   6  -3  -4 86.1933 4.57508   4
   6  -3  -4 89.9713 5.14745   1
  -6   3   4 87.3123 4.58002   2
  -6   3   4 85.2148 5.00814   1
  -6   3   4 79.9929 5.11594   3
   5  -3  -4 233.915 10.1615   6
   5  -3  -4 246.289 9.54430   4
   5  -3  -4 250.831 10.1567   1
  -5   3   4 254.359 10.2492   1
  -5   3   4 242.298 10.3276   3
   4  -3  -4 8.12405 1.58834   1
   4  -3  -4 5.82952 1.16097   6
   4  -3  -4 7.19368 1.24156   4
   4  -3  -4 5.72772 1.42508   6
  -4   3   4 8.39308 1.66672   1
  -4   3   4 6.45219 1.52975   3
   3  -3  -4 795.253 26.2525   4
   3  -3  -4 765.832 27.1791   6
   3  -3  -4 777.211 27.1177   6
   3  -3  -4 787.771 26.9889   1
  -3   3   4 775.235 27.2513   3
  -3   3   4 798.395 27.1686   1
   2  -3  -4 25.1612 1.68997   4
   2  -3  -4 22.5933 2.33927   6
   2  -3  -4 23.6650 2.32198   1
   2  -3  -4 28.0058 2.13030   6
  -2   3   4 19.7370 2.21857   1
  -2   3   4 24.4612 2.67235   3
  -2   3   4 26.5336 2.20540   6
   1  -3  -4 580.919 20.2409   6
   1  -3  -4 556.746 19.9009   6
   1  -3  -4 573.335 18.9806   4
   1  -3  -4 556.532 19.8460   1
  -1   3   4 598.296 20.2476   1
  -1   3   4 558.467 20.3086   3
   0  -3  -4 9.90674 0.91234   4
   0  -3  -4 11.3112 1.60159   1
   0  -3  -4 10.1128 1.58430   6
   0  -3  -4 13.0830 1.80702   6
   0   3   4 10.2923 1.86944   3
   0   3   4 9.55033 1.52090   6
   0   3   4 12.8054 1.79941   1
  -1  -3  -4 68.3548 3.47617   6
  -1  -3  -4 73.4943 3.71324   1
  -1  -3  -4 72.7463 3.87370   6
  -1  -3  -4 70.7793 2.69804   4
   1   3   4 65.0558 3.78037   1
   1   3   4 76.4364 4.11505   6
   1   3   4 62.1296 3.93883   3
  -2  -3  -4 223.212 8.00918   4
  -2  -3  -4 239.811 9.29623   6
  -2  -3  -4 242.842 9.21595   1
   2   3   4 234.111 9.74258   6
   2   3   4 250.029 9.57563   1
  -3  -3  -4 298.809 10.7640   4
  -3  -3  -4 321.015 11.9115   6
  -3  -3  -4 329.374 12.0350   1
   3   3   4 324.233 12.7044   6
   3   3   4 338.646 12.4755   1
  -4  -3  -4 287.588 10.6723   4
  -4  -3  -4 331.620 11.8790   1
   4   3   4 324.310 12.3378   1
   4   3   4 308.197 12.6132   6
  -5  -3  -4 319.319 12.5796   1
  -5  -3  -4 324.960 12.8075   1
  -5  -3  -4 336.475 12.4892   2
   5   3   4 324.819 13.3633   6
   5   3   4 316.629 12.8971   1
  -6  -3  -4 20.8599 2.61064   2
   6   3   4 16.9270 2.59286   1
  -7  -3  -4 0.18236 0.96782   2
   7   3   4 -1.6804 0.86568   1
  -8  -3  -4 27.7969 3.35834   2
   8   3   4 36.3934 4.09350   1
   9  -4  -4 29.2519 3.84109   1
   9  -4  -4 23.6614 3.22270   4
  -9   4   4 20.0512 2.83729   2
  -9   4   4 27.1992 3.62244   1
   8  -4  -4 1.64890 1.60113   1
   8  -4  -4 5.00236 1.57343   4
  -8   4   4 2.23950 1.58525   1
  -8   4   4 1.42083 1.24772   2
   7  -4  -4 188.458 8.34589   4
   7  -4  -4 191.222 8.99147   1
  -7   4   4 180.612 8.86152   1
  -7   4   4 184.100 9.10686   3
   6  -4  -4 310.933 12.6168   1
   6  -4  -4 316.753 11.9860   4
  -6   4   4 294.584 12.6298   1
  -6   4   4 304.621 12.9991   3
   5  -4  -4 20.5177 2.61694   1
   5  -4  -4 19.8499 2.26185   4
   5  -4  -4 15.2692 2.40625   6
  -5   4   4 18.1545 2.62379   1
  -5   4   4 19.4782 2.77496   3
   4  -4  -4 602.419 20.3802   1
   4  -4  -4 543.104 20.4492   6
   4  -4  -4 583.650 19.5553   4
   4  -4  -4 523.294 20.2576   6
  -4   4   4 552.567 20.6777   3
  -4   4   4 565.834 20.5366   1
   3  -4  -4 361.566 14.3696   6
   3  -4  -4 407.088 14.5137   1
   3  -4  -4 377.669 14.6268   6
   3  -4  -4 406.012 13.6442   4
  -3   4   4 380.398 14.6419   1
  -3   4   4 378.043 14.8212   3
   2  -4  -4 4.23830 0.84854   4
   2  -4  -4 4.24991 1.27802   1
   2  -4  -4 4.21535 1.25989   6
   2  -4  -4 3.34082 0.98397   6
  -2   4   4 3.93213 1.27478   1
  -2   4   4 1.26095 0.87591   6
  -2   4   4 3.44461 1.30259   3
   1  -4  -4 204.379 7.23622   4
   1  -4  -4 192.637 8.09539   6
   1  -4  -4 195.040 8.36114   6
   1  -4  -4 206.859 8.27017   1
  -1   4   4 202.475 8.86321   3
  -1   4   4 210.483 8.63191   1
  -1   4   4 200.391 8.54161   6
   0  -4  -4 155.062 6.49934   1
   0  -4  -4 152.682 5.34917   4
   0  -4  -4 152.211 6.66193   6
   0   4   4 159.569 6.92653   1
   0   4   4 141.244 6.82091   6
   0   4   4 141.020 7.03224   3
  -1  -4  -4 9.75393 1.53773   6
  -1  -4  -4 8.55215 1.47382   1
   1   4   4 8.78264 1.66852   6
   1   4   4 9.77866 1.92310   3
   1   4   4 10.1037 1.72567   1
  -2  -4  -4 49.7375 3.05248   1
   2   4   4 45.9708 3.27087   1
   2   4   4 45.8894 3.43887   6
  -3  -4  -4 20.7714 2.26816   1
   3   4   4 16.3930 2.24715   1
   3   4   4 18.8552 2.47566   6
   4   4   4 201.915 8.84549   1
   4   4   4 193.869 9.11541   6
  -5  -4  -4 7.48242 1.59810   2
   5   4   4 7.82356 1.77001   1
  -6  -4  -4 7.49899 1.68855   2
   6   4   4 6.01941 1.78509   1
  -7  -4  -4 -0.2922 1.01016   2
   7   4   4 -0.1394 1.19521   1
  -8  -4  -4 28.0945 3.49987   2
   8   4   4 30.2957 3.91625   1
   9  -5  -4 13.6140 2.58719   4
   8  -5  -4 0.18898 1.18738   1
   8  -5  -4 1.36970 1.40099   4
  -8   5   4 2.05605 1.74679   1
   7  -5  -4 11.1931 2.54477   1
   7  -5  -4 10.2794 2.08514   4
  -7   5   4 10.2975 2.61851   3
  -7   5   4 8.50222 2.11914   1
   6  -5  -4 3.00927 1.31537   4
   6  -5  -4 2.68484 1.39547   1
  -6   5   4 0.72650 1.59414   3
  -6   5   4 2.80703 1.53339   1
   5  -5  -4 14.8753 2.02361   4
   5  -5  -4 11.8806 2.19357   1
  -5   5   4 8.58503 2.20314   3
  -5   5   4 12.9566 2.30689   1
   4  -5  -4 228.389 9.68687   1
   4  -5  -4 217.196 8.90328   4
  -4   5   4 235.990 10.4356   3
  -4   5   4 243.541 10.2170   1
   3  -5  -4 12.7277 1.56714   4
   3  -5  -4 10.1600 1.87546   6
   3  -5  -4 9.91517 1.86222   1
  -3   5   4 13.8103 2.20443   1
  -3   5   4 11.2072 2.38171   3
   2  -5  -4 77.3828 4.34059   1
   2  -5  -4 77.0275 3.48678   4
   2  -5  -4 73.7542 4.37756   6
  -2   5   4 71.8307 4.50348   6
  -2   5   4 80.7194 5.00259   3
  -2   5   4 84.0605 4.74418   1
   1  -5  -4 27.1844 1.61616   4
   1  -5  -4 27.4065 2.73409   1
  -1   5   4 27.4591 2.92910   1
  -1   5   4 31.9624 3.49860   6
  -1   5   4 33.4882 3.76366   3
   0  -5  -4 24.4537 2.51928   1
   0   5   4 26.3700 3.40417   3
   0   5   4 16.8498 2.10571   6
   0   5   4 21.1609 2.67582   1
  -1  -5  -4 29.3317 2.70386   1
   1   5   4 22.0630 2.74880   6
   1   5   4 33.2458 3.82803   3
   1   5   4 22.6748 2.65166   1
   2   5   4 132.888 7.11189   3
   2   5   4 128.646 6.35987   1
   2   5   4 114.609 6.35149   6
   3   5   4 103.451 5.61139   1
   3   5   4 104.602 5.96795   6
  -4  -5  -4 2.68477 1.08600   2
   4   5   4 2.58316 1.31608   1
  -5  -5  -4 -0.2413 0.79655   2
   5   5   4 0.22177 0.97285   1
  -6  -5  -4 20.5387 2.64400   2
   6   5   4 19.3677 3.02069   1
  -7  -5  -4 33.7771 3.67552   2
   7   5   4 41.8282 4.44393   1
   8  -6  -4 4.11100 1.79968   4
  -8   6   4 4.88616 2.36095   3
  -8   6   4 3.81590 2.07441   1
   7  -6  -4 20.5563 2.68287   4
  -7   6   4 22.1609 3.49299   1
  -7   6   4 15.3271 3.26147   3
   6  -6  -4 0.30007 0.97128   4
  -6   6   4 1.83071 1.57823   3
  -6   6   4 -0.8277 1.24081   1
   5  -6  -4 2.22658 2.01144   1
   5  -6  -4 4.88743 1.35176   4
  -5   6   4 4.34205 1.89739   3
  -5   6   4 6.63272 1.97072   1
   4  -6  -4 14.4447 1.92670   4
   4  -6  -4 14.9297 2.82398   1
  -4   6   4 13.3113 2.81148   3
  -4   6   4 16.0205 2.66898   1
   3  -6  -4 28.4183 2.08797   4
  -3   6   4 28.5571 3.77771   3
  -3   6   4 23.7965 3.11354   1
   2  -6  -4 121.616 4.88190   4
  -2   6   4 127.916 6.50967   1
  -2   6   4 109.853 6.63574   3
  -1   6   4 19.5896 2.79315   1
  -1   6   4 11.5331 2.59220   3
   0   6   4 151.802 8.07712   3
   0   6   4 149.287 7.38352   1
   1   6   4 189.108 8.53556   1
   1   6   4 183.387 9.31009   3
   2   6   4 5.70643 2.29991   3
   2   6   4 6.16355 1.81169   1
   3   6   4 149.256 8.25785   3
   3   6   4 136.350 7.14386   1
  -4  -6  -4 13.8056 1.99984   2
   4   6   4 16.1647 2.68013   1
  -5  -6  -4 3.82971 1.30222   2
   5   6   4 9.61327 2.19953   1
   6   6   4 13.1587 2.64044   1
   6  -7  -4 1.15291 1.14687   4
  -6   7   4 1.41062 1.54554   1
  -6   7   4 0.17359 1.73397   3
   5  -7  -4 74.4623 4.32682   4
  -5   7   4 77.3807 5.82541   3
  -5   7   4 97.2106 6.02611   1
  -4   7   4 3.51028 1.80420   1
  -4   7   4 3.76624 1.95950   3
  -3   7   4 1.53597 1.27865   1
  -3   7   4 1.30618 1.63496   3
  -2   7   4 10.7758 2.23523   1
  -2   7   4 12.2434 2.67884   3
  -1   7   4 0.75691 1.07504   1
  -1   7   4 1.76302 1.55185   3
   0   7   4 67.2488 4.74802   1
   0   7   4 65.3544 6.31549   3
   1   7   4 59.1856 4.34310   1
   1   7   4 54.8839 5.56275   3
   2   7   4 48.9540 5.52623   3
   2   7   4 43.5342 4.38964   1
   3   7   4 16.1190 3.52462   3
   3   7   4 12.9669 2.55873   1
   4   7   4 34.9787 3.98330   1
   4   7   4 29.1892 4.51696   3
  -5   8   4 4.04220 2.35026   3
  -5   8   4 5.04513 2.18218   1
  -4   8   4 5.21375 2.42510   3
  -4   8   4 4.12361 1.95523   1
  -3   8   4 3.16867 2.07556   3
  -3   8   4 1.68352 1.52855   1
  -2   8   4 0.75850 1.39426   1
  -2   8   4 0.04640 1.41995   3
  -1   8   4 1.24483 1.74377   3
  -1   8   4 3.52967 1.73401   1
   0   8   4 10.6806 2.43699   1
   0   8   4 15.1536 3.32468   3
   1   8   4 3.69852 2.17135   3
   1   8   4 2.70049 1.60106   1
   2   8   4 42.3841 4.51871   1
   2   8   4 41.5582 5.55832   3
   3   8   4 6.85511 2.70897   3
   1  11  -5 2.05047 0.98412   1
   1  11  -5 0.83923 1.65569   3
   0  11  -5 41.0758 2.93628   1
   0  11  -5 42.5960 4.82075   3
   0  11  -5 34.1015 2.64679   6
  -1  11  -5 43.5024 5.00684   3
  -1  11  -5 42.6362 3.25371   1
  -2  11  -5 3.75798 2.00300   3
  -2  11  -5 -0.8057 1.00283   1
  -2  11  -5 -0.7883 0.93156   6
  -3  11  -5 -1.4665 1.40593   3
  -3  11  -5 -0.7406 1.06573   6
  -3  11  -5 0.53758 1.20669   1
   4  10  -5 1.22426 1.72944   3
   3  10  -5 58.6275 4.83034   3
   2  10  -5 20.5302 1.53242   1
   2  10  -5 20.6425 3.40909   3
   1  10  -5 1.85267 0.83028   1
   1  10  -5 0.80863 1.52114   3
   0  10  -5 54.8523 3.13896   6
   0  10  -5 54.1527 5.17688   3
   0  10  -5 52.7316 2.97128   6
   0  10  -5 57.1149 3.23997   1
  -1  10  -5 174.462 7.52332   6
  -1  10  -5 169.329 8.65866   3
  -1  10  -5 171.590 7.35860   1
  -2  10  -5 64.8879 4.81073   3
  -2  10  -5 53.6289 3.86934   6
  -2  10  -5 59.0310 3.81621   1
  -3  10  -5 36.7374 4.24895   3
  -3  10  -5 34.1502 3.44989   1
  -3  10  -5 30.5992 3.43110   6
  -4  10  -5 0.66007 1.19576   6
  -4  10  -5 -0.5827 1.42171   3
  -4  10  -5 -0.5106 1.11932   1
  -5  10  -5 7.95204 2.43936   3
  -5  10  -5 9.52885 2.28925   1
   6   9  -5 161.338 8.81508   3
   5   9  -5 1.25927 1.38277   5
   5   9  -5 4.04546 1.86543   3
   4   9  -5 63.3487 4.67218   3
   4   9  -5 54.5308 4.07033   5
   3   9  -5 51.2956 3.70064   5
   3   9  -5 62.3974 4.47598   3
   3   9  -5 60.1631 3.71033   4
   2   9  -5 -0.6702 1.17637   3
   2   9  -5 0.11275 0.83798   5
   1   9  -5 75.2569 4.78602   3
   1   9  -5 70.3188 3.18421   1
   0   9  -5 110.997 4.77487   1
   0   9  -5 111.036 6.08784   3
  -1   9  -5 4.94021 1.23952   1
  -1   9  -5 6.57820 1.37019   6
  -1   9  -5 5.48499 1.73889   3
  -2   9  -5 75.7170 4.39203   6
  -2   9  -5 78.2194 4.24837   1
  -2   9  -5 74.4406 4.90604   3
  -3   9  -5 57.5294 4.11578   6
  -3   9  -5 62.8538 4.55487   3
  -3   9  -5 68.4837 4.10176   1
  -4   9  -5 29.1397 3.25926   1
  -4   9  -5 29.0385 3.44973   6
  -4   9  -5 30.1136 3.72443   3
  -5   9  -5 73.6318 5.54239   6
  -5   9  -5 73.4731 5.26841   3
  -5   9  -5 84.1615 5.18769   1
  -6   9  -5 1.26573 1.37942   1
  -7   9  -5 8.53218 2.52155   1
   7   8  -5 7.36450 1.33302   1
   7   8  -5 5.03722 2.24450   5
   6   8  -5 110.063 6.45902   5
   6   8  -5 110.078 4.65850   1
   5   8  -5 4.88970 1.61734   5
   5   8  -5 4.54699 1.14660   4
   5   8  -5 5.05529 0.83539   1
   4   8  -5 46.2577 3.51235   5
   4   8  -5 47.8013 2.87432   4
   4   8  -5 53.0584 3.96054   3
   3   8  -5 48.6839 3.31982   5
   3   8  -5 46.5692 2.76453   4
   3   8  -5 49.4465 3.70014   3
   2   8  -5 7.32159 1.77761   3
   2   8  -5 6.45623 1.38178   5
   1   8  -5 123.774 4.61333   1
   1   8  -5 125.685 6.18958   3
   1   8  -5 124.735 5.28296   5
   1   8  -5 117.608 4.57055   1
   0   8  -5 41.7924 2.33834   1
   0   8  -5 43.5710 3.26937   3
  -1   8  -5 183.933 8.26752   3
  -1   8  -5 186.439 7.34300   6
  -1   8  -5 183.743 7.28781   1
  -2   8  -5 21.5011 2.31179   1
  -2   8  -5 22.3811 2.44563   6
  -2   8  -5 23.0074 2.79552   3
  -2   8  -5 20.9374 1.75464   2
  -3   8  -5 6.01795 0.88972   2
  -3   8  -5 5.20540 1.36756   1
  -3   8  -5 3.85453 1.26817   6
  -3   8  -5 5.57865 1.61171   3
  -4   8  -5 0.67313 1.04612   6
  -4   8  -5 -1.1445 1.07540   3
  -4   8  -5 1.30841 0.68849   2
  -4   8  -5 -0.2102 0.97238   1
  -5   8  -5 103.548 6.02957   3
  -5   8  -5 104.129 4.75810   2
  -5   8  -5 112.584 6.01427   1
  -5   8  -5 104.402 6.18097   6
  -6   8  -5 -0.1638 1.22264   1
  -6   8  -5 0.11740 0.81648   2
  -7   8  -5 19.5200 2.93846   2
  -7   8  -5 30.9348 3.91845   1
  -8   8  -5 -0.3558 1.42414   1
   8   7  -5 30.0440 2.91375   1
   8   7  -5 28.0049 2.89591   6
  -8  -7   5 25.7878 3.09706   2
   7   7  -5 49.5809 2.91197   6
   7   7  -5 50.6510 5.03960   5
   7   7  -5 54.6263 3.48432   4
   7   7  -5 49.9113 3.09763   1
  -7  -7   5 52.8506 3.56849   2
   6   7  -5 7.60871 1.46940   4
   6   7  -5 9.97243 2.19508   5
   6   7  -5 11.3290 1.39708   1
   5   7  -5 7.58014 0.97254   1
   5   7  -5 6.52717 1.25988   4
   5   7  -5 6.33048 1.60004   5
   4   7  -5 11.3060 1.46849   4
   4   7  -5 9.94726 1.83062   5
   3   7  -5 4.76547 1.02275   4
   3   7  -5 5.01422 1.23424   5
   3   7  -5 6.18325 1.49510   3
   2   7  -5 3.07428 0.71218   2
   2   7  -5 3.45176 0.93736   5
   2   7  -5 3.46263 1.20360   3
   1   7  -5 56.8126 2.37734   1
   1   7  -5 55.5508 3.50175   3
   1   7  -5 59.0152 2.55152   2
   1   7  -5 62.5588 3.06508   5
   1   7  -5 56.7751 2.38833   1
   0   7  -5 56.3811 2.64472   1
   0   7  -5 56.6315 2.63342   5
   0   7  -5 53.6594 2.41116   2
   0   7  -5 56.8442 2.63928   1
   0   7  -5 55.2638 3.43817   3
  -1   7  -5 14.4170 1.63283   1
  -1   7  -5 15.5084 1.68003   1
  -1   7  -5 12.2391 1.50338   1
  -1   7  -5 17.8366 2.26292   3
  -1   7  -5 14.6601 1.59946   6
  -2   7  -5 0.07878 0.69033   1
  -2   7  -5 -0.8735 0.78888   3
  -2   7  -5 -1.0507 0.60629   6
  -3   7  -5 149.354 5.89757   2
  -3   7  -5 153.804 7.04116   3
  -3   7  -5 150.230 6.68395   1
  -3   7  -5 155.558 7.06295   6
  -4   7  -5 272.167 11.2697   3
  -4   7  -5 275.370 11.1023   1
  -4   7  -5 289.053 11.6178   6
  -4   7  -5 271.432 10.1470   2
  -5   7  -5 -0.7529 0.61168   2
  -5   7  -5 0.02724 0.97740   6
  -5   7  -5 -1.0263 0.77347   1
  -6   7  -5 13.9680 2.42772   1
  -6   7  -5 10.7264 1.77637   2
  -7   7  -5 33.4673 3.96870   1
  -7   7  -5 34.6179 3.08827   2
  -8   7  -5 36.0714 3.54273   2
  -8   7  -5 42.5049 4.75729   1
   8   6  -5 2.90059 1.25792   6
   8   6  -5 7.40729 1.63528   4
   8   6  -5 5.33512 1.92589   5
   8   6  -5 4.12193 1.30719   1
  -8  -6   5 3.68880 1.48395   2
   7   6  -5 5.76054 1.21288   6
   7   6  -5 5.31577 1.33800   1
   7   6  -5 5.77657 1.37771   4
   7   6  -5 2.15849 1.51405   5
  -7  -6   5 6.15668 1.61875   2
   6   6  -5 107.156 5.99654   5
   6   6  -5 102.365 4.57596   1
   6   6  -5 102.846 4.96821   4
  -6  -6   5 103.753 5.13217   2
   5   6  -5 86.1378 4.91206   5
   5   6  -5 80.4213 3.51141   1
   5   6  -5 79.0224 4.04817   4
   4   6  -5 6.52597 1.40529   5
   4   6  -5 3.95171 0.62769   1
   4   6  -5 4.51822 0.63713   1
   4   6  -5 5.31730 1.08992   4
   3   6  -5 23.2587 2.03690   4
   3   6  -5 21.1232 2.25330   5
   2   6  -5 154.319 6.26844   5
   2   6  -5 153.590 6.38403   3
   2   6  -5 140.444 5.66638   2
   1   6  -5 95.4361 3.52293   1
   1   6  -5 97.1031 3.87435   2
   1   6  -5 94.6912 3.51165   1
   1   6  -5 93.4564 4.45303   3
   1   6  -5 93.9407 4.14191   5
   0   6  -5 0.99351 0.77493   3
   0   6  -5 0.95687 0.51070   1
   0   6  -5 0.69112 0.44769   5
   0   6  -5 0.74048 0.47897   1
  -1   6  -5 217.290 7.92552   6
  -1   6  -5 210.709 8.30931   3
  -1   6  -5 208.220 7.91561   1
  -1   6  -5 223.445 8.00361   1
   1  -6   5 202.866 8.36813   3
  -2   6  -5 10.5449 1.46445   1
  -2   6  -5 13.7656 1.74455   6
  -2   6  -5 10.7711 1.49934   1
  -2   6  -5 12.3665 1.62943   1
  -2   6  -5 12.6750 1.77526   3
   2  -6   5 11.6941 0.83609   1
  -3   6  -5 195.387 8.26004   3
  -3   6  -5 210.441 8.62770   6
  -3   6  -5 205.488 8.23234   1
  -3   6  -5 192.689 8.13211   1
   3  -6   5 200.089 7.50173   1
  -4   6  -5 394.629 14.1164   2
  -4   6  -5 388.154 15.2807   6
  -4   6  -5 413.314 14.9486   1
   4  -6   5 394.819 14.2366   1
  -5   6  -5 55.0717 3.28220   2
  -5   6  -5 60.8260 4.25527   6
  -5   6  -5 64.6225 4.11342   1
   5  -6   5 54.6051 3.43667   1
  -6   6  -5 108.843 6.54248   6
  -6   6  -5 109.931 5.34539   2
  -6   6  -5 113.895 6.14040   1
  -7   6  -5 124.044 6.21934   2
  -7   6  -5 141.977 7.28319   1
  -8   6  -5 7.21501 1.79383   2
  -8   6  -5 11.7084 2.61794   1
  -9   6  -5 27.0316 3.86255   1
  -9   6  -5 24.0013 3.05554   2
   9   5  -5 2.54587 1.42902   4
   9   5  -5 2.62761 1.29725   1
  -9  -5   5 1.58401 1.45242   2
   8   5  -5 1.82184 1.15064   4
   8   5  -5 0.16176 0.89617   1
   8   5  -5 -0.2648 0.79182   6
   8   5  -5 2.25724 1.53045   5
  -8  -5   5 -0.6029 0.91776   2
   7   5  -5 3.62025 1.08001   6
   7   5  -5 3.34837 1.11531   1
   7   5  -5 5.19322 1.45087   4
   7   5  -5 4.89804 1.73094   5
  -7  -5   5 5.61533 1.40022   2
   6   5  -5 29.6208 2.21069   1
   6   5  -5 33.8761 2.85864   4
  -6  -5   5 33.1098 2.99970   2
   5   5  -5 2.07638 0.82959   4
   5   5  -5 0.26718 0.54364   1
   5   5  -5 1.55688 0.64556   1
  -5  -5   5 0.00053 0.69297   2
   4   5  -5 117.820 4.99856   4
   4   5  -5 111.605 4.31383   1
   4   5  -5 105.832 4.25832   1
   3   5  -5 90.9446 4.09344   4
   3   5  -5 88.8403 3.35995   1
   3   5  -5 90.4440 3.40524   1
   2   5  -5 39.8727 1.65242   1
   2   5  -5 41.6499 2.35244   3
   2   5  -5 37.4537 2.11565   2
   2   5  -5 37.5230 1.65571   1
   1   5  -5 37.7973 1.68767   1
   1   5  -5 36.1705 2.11691   3
   1   5  -5 35.5343 1.67515   1
   1   5  -5 34.3584 1.94211   2
   0   5  -5 1.54623 0.64692   3
   0   5  -5 0.24961 0.40304   1
   0   5  -5 0.43765 0.40217   1
  -1   5  -5 29.5649 1.87530   6
  -1   5  -5 26.9832 1.78231   1
  -1   5  -5 29.9714 1.86721   1
  -1   5  -5 28.6723 1.89329   3
   1  -5   5 26.6905 1.90494   3
  -2   5  -5 64.4144 3.46268   6
  -2   5  -5 62.4162 3.23358   3
  -2   5  -5 62.3483 3.26821   1
  -2   5  -5 61.2572 3.18846   1
   2  -5   5 59.5932 2.75818   1
   2  -5   5 65.1862 3.33123   3
  -3   5  -5 11.3373 1.69224   6
  -3   5  -5 15.1574 1.90679   1
  -3   5  -5 14.1506 1.78160   1
  -3   5  -5 12.4807 1.69677   1
   3  -5   5 12.8330 1.48996   1
  -4   5  -5 3.70665 1.18047   1
  -4   5  -5 3.62011 1.17535   6
   4  -5   5 5.73012 1.22177   1
  -5   5  -5 64.0875 4.06299   1
  -5   5  -5 61.2207 3.53257   2
  -5   5  -5 64.1834 4.37126   6
   5  -5   5 67.4433 3.83543   1
  -6   5  -5 0.54056 0.85605   2
  -6   5  -5 1.77789 1.25109   6
  -6   5  -5 1.93135 1.13681   1
   6  -5   5 1.46350 1.05420   1
  -7   5  -5 17.4547 2.89797   1
  -7   5  -5 16.3973 2.34233   2
   7  -5   5 17.6929 2.59062   1
  -8   5  -5 2.31673 1.25915   2
  -8   5  -5 2.18291 1.47947   1
   8  -5   5 2.06302 1.20890   1
  -9   5  -5 19.4222 3.44756   1
  -9   5  -5 17.3750 2.64246   2
   9   4  -5 2.78075 1.37210   4
   9   4  -5 6.57700 1.77055   1
  -9  -4   5 1.97638 1.38367   2
   8   4  -5 33.8823 3.30086   4
   8   4  -5 34.7995 3.35347   1
   8   4  -5 33.7171 2.85901   6
  -8  -4   5 34.3741 3.46593   2
   7   4  -5 16.8081 2.11103   1
   7   4  -5 14.4086 1.94979   6
   7   4  -5 11.7049 1.81681   4
  -7  -4   5 15.3884 2.24223   2
   6   4  -5 348.452 12.8240   4
   6   4  -5 348.359 12.5869   1
   6   4  -5 340.578 12.3492   6
  -6  -4   5 342.365 13.0003   2
   5   4  -5 789.874 26.4461   4
   5   4  -5 736.697 26.0082   1
   5   4  -5 792.910 26.0516   1
  -5  -4   5 784.565 26.5583   2
   4   4  -5 218.376 8.25985   1
   4   4  -5 238.180 8.79559   4
   4   4  -5 235.026 8.30788   1
   3   4  -5 298.854 10.6961   4
   3   4  -5 304.648 10.1585   1
   3   4  -5 280.586 10.1246   1
   2   4  -5 265.126 9.12467   1
   2   4  -5 266.009 9.15732   1
   1   4  -5 39.7618 1.88660   3
   1   4  -5 39.6562 1.94152   1
   1   4  -5 42.9001 1.97802   1
   0   4  -5 230.188 7.85914   1
   0   4  -5 205.474 7.79663   1
   0   4  -5 214.167 7.58246   3
   0   4  -5 222.256 7.60390   6
  -1   4  -5 214.800 8.10462   6
  -1   4  -5 211.608 8.03119   1
  -1   4  -5 220.111 7.77299   3
  -1   4  -5 229.953 8.11352   1
   1  -4   5 217.597 7.63590   1
   1  -4   5 214.424 7.86274   3
  -2   4  -5 1.09905 0.61218   1
  -2   4  -5 1.37969 0.66517   6
  -2   4  -5 1.32911 0.68241   1
   2  -4   5 2.90037 0.81257   3
   2  -4   5 1.95828 0.59977   1
  -3   4  -5 22.7689 2.65954   6
  -3   4  -5 20.1741 1.29574   5
  -3   4  -5 21.2926 2.19943   1
   3  -4   5 24.1744 2.16742   1
   3  -4   5 22.4606 2.16038   3
   3  -4   5 19.0658 1.56699   6
  -4   4  -5 5.71882 1.34506   1
  -4   4  -5 5.51783 1.31429   1
  -4   4  -5 7.18023 1.54385   6
   4  -4   5 7.25589 1.30217   1
   4  -4   5 5.68773 1.18696   6
  -5   4  -5 1.41801 1.08101   6
  -5   4  -5 0.18344 0.71511   2
  -5   4  -5 0.15187 0.84238   1
   5  -4   5 -0.2805 0.72876   6
   5  -4   5 0.35723 0.83159   1
  -6   4  -5 193.141 8.70800   1
  -6   4  -5 199.948 8.24856   2
  -6   4  -5 190.524 9.07391   6
   6  -4   5 194.020 8.46517   1
  -7   4  -5 41.0415 4.03349   1
  -7   4  -5 45.9551 3.39096   2
   7  -4   5 46.8116 3.57986   1
  -8   4  -5 58.9942 4.58019   1
  -8   4  -5 58.2942 4.08387   2
   8  -4   5 54.2379 4.21592   1
  -9   4  -5 1.90118 1.61727   1
  -9   4  -5 2.02194 1.33351   2
   9  -4   5 1.61765 1.37015   1
  10   3  -5 21.2464 3.01104   4
  10   3  -5 21.1513 3.07193   1
 -10  -3   5 20.4278 3.00625   2
   9   3  -5 9.05783 2.02700   4
   9   3  -5 6.53206 1.75495   1
  -9  -3   5 6.01661 1.76948   2
   8   3  -5 26.1537 2.86699   4
   8   3  -5 26.2129 3.00369   1
   8   3  -5 23.0808 2.73611   6
  -8  -3   5 31.0818 3.33719   2
   7   3  -5 32.9782 3.06614   4
   7   3  -5 27.2989 2.43515   6
   7   3  -5 32.0110 2.60636   1
  -7  -3   5 33.5929 3.17756   2
   6   3  -5 67.9071 3.68909   4
   6   3  -5 62.5419 3.44328   6
   6   3  -5 63.5259 3.56928   1
  -6  -3   5 65.4145 3.77503   2
   5   3  -5 73.0442 3.78217   1
   5   3  -5 82.5949 3.98936   4
   5   3  -5 78.2241 3.81081   1
  -5  -3   5 80.4435 4.08642   2
   4   3  -5 2.64274 0.74642   1
   4   3  -5 4.47385 0.91678   1
   4   3  -5 4.46229 0.95116   4
   3   3  -5 313.717 10.6230   1
   3   3  -5 305.179 10.9086   4
   3   3  -5 286.841 10.5866   1
   2   3  -5 62.9989 2.78238   1
   2   3  -5 58.5848 2.74355   1
   1   3  -5 32.7095 1.84984   1
   1   3  -5 34.6145 1.68135   6
   1   3  -5 33.2600 1.84765   1
  -1  -3   5 33.4425 1.44422   1
   0   3  -5 36.8071 1.95834   6
   0   3  -5 34.7857 1.95349   1
   0   3  -5 32.6940 1.92793   1
   0  -3   5 33.2743 1.70651   1
  -1   3  -5 -0.0304 0.40797   1
  -1   3  -5 -0.3746 0.36293   1
  -1   3  -5 -0.1446 0.45334   6
   1  -3   5 0.75619 0.48254   1
   1  -3   5 0.59326 0.39795   3
  -2   3  -5 25.6391 1.91831   1
  -2   3  -5 28.9113 2.20722   6
  -2   3  -5 28.7345 2.00321   1
   2  -3   5 26.0927 1.84438   1
   2  -3   5 26.1916 1.72842   3
   2  -3   5 28.7534 1.80738   6
  -3   3  -5 17.4333 1.61939   5
  -3   3  -5 21.7858 2.63792   6
  -3   3  -5 20.6537 2.12599   1
   3  -3   5 22.5261 2.18021   1
   3  -3   5 18.4267 1.96119   3
   3  -3   5 19.3693 1.99296   6
  -4   3  -5 -0.0495 0.80289   6
  -4   3  -5 -0.0407 0.68465   1
  -4   3  -5 0.50161 0.48781   5
   4  -3   5 0.36902 0.69599   1
   4  -3   5 0.33930 0.67211   6
  -5   3  -5 4.27385 0.98831   5
  -5   3  -5 4.41789 1.31346   1
  -5   3  -5 3.97801 1.35870   1
  -5   3  -5 6.37752 1.72443   6
   5  -3   5 2.88573 1.09467   6
   5  -3   5 5.55899 1.36151   1
  -6   3  -5 26.8259 3.14816   6
  -6   3  -5 30.1898 2.83642   2
  -6   3  -5 33.7440 3.46551   1
   6  -3   5 25.8208 3.23698   6
   6  -3   5 39.9513 3.65067   1
  -7   3  -5 28.5325 3.15021   2
  -7   3  -5 30.2693 3.41710   1
   7  -3   5 24.8313 2.98834   1
  -8   3  -5 0.40164 1.11167   1
  -8   3  -5 0.69268 1.09967   2
   8  -3   5 -0.1402 1.07126   1
  -9   3  -5 2.08323 1.52348   2
  -9   3  -5 2.68667 1.70734   1
   9  -3   5 5.21720 1.91441   1
 -10   3  -5 5.57444 1.85377   2
  10  -3   5 6.09592 2.17825   1
  10   2  -5 27.2465 3.57513   1
  10   2  -5 26.2405 3.36696   4
 -10  -2   5 24.1780 3.19928   2
   9   2  -5 75.2478 4.97612   1
   9   2  -5 82.6106 5.01096   4
  -9  -2   5 80.7457 5.06023   2
   8   2  -5 67.9734 4.16707   4
   8   2  -5 63.4663 4.15046   1
   8   2  -5 60.4210 4.41942   6
  -8  -2   5 54.6420 3.94838   2
   7   2  -5 0.37771 0.56486   6
   7   2  -5 2.59720 1.12062   4
   7   2  -5 2.13535 1.08526   1
  -7  -2   5 0.18458 0.88641   2
   6   2  -5 172.870 7.24685   1
   6   2  -5 158.223 7.11407   4
   6   2  -5 172.680 7.24566   6
  -6  -2   5 173.154 7.30885   1
  -6  -2   5 175.930 7.43035   2
   5   2  -5 19.0414 1.99573   3
   5   2  -5 18.4093 1.96501   4
   5   2  -5 19.0666 2.02737   1
   5   2  -5 14.5168 1.80927   1
  -5  -2   5 20.7358 2.21760   2
  -5  -2   5 18.2098 1.64088   1
   4   2  -5 0.66365 0.54732   4
   4   2  -5 0.70339 0.63162   1
   4   2  -5 1.35049 0.72114   3
   4   2  -5 0.87677 0.55771   1
  -4  -2   5 1.20923 0.53000   1
   3   2  -5 209.301 7.63339   4
   3   2  -5 189.341 7.46759   1
   3   2  -5 199.859 7.13953   3
   3   2  -5 199.211 7.50219   1
  -3  -2   5 197.249 7.17846   1
   2   2  -5 8.25024 1.10007   1
   2   2  -5 8.46561 0.73056   3
   2   2  -5 8.91020 1.13821   1
   1   2  -5 153.227 5.87986   1
   1   2  -5 153.040 5.85162   6
   1   2  -5 149.689 5.89638   1
   0   2  -5 873.482 30.5234   1
   0   2  -5 921.562 30.6458   6
   0   2  -5 946.804 30.5506   1
   0  -2   5 941.161 30.4281   1
  -1   2  -5 827.131 29.5710   1
  -1   2  -5 910.032 29.9040   6
  -1   2  -5 911.468 29.6413   1
   1  -2   5 874.798 29.3934   6
   1  -2   5 915.795 29.5581   1
  -2   2  -5 110.997 4.84272   1
  -2   2  -5 105.988 5.10944   6
   2  -2   5 108.945 4.83281   6
   2  -2   5 108.322 4.73065   1
  -3   2  -5 88.7640 4.38998   1
  -3   2  -5 88.5463 4.09086   5
  -3   2  -5 95.4483 4.83366   6
   3  -2   5 88.8594 4.29527   1
   3  -2   5 88.5920 4.46979   6
  -4   2  -5 36.2318 2.44767   5
  -4   2  -5 36.4502 2.99171   6
  -4   2  -5 40.6315 2.84110   1
   4  -2   5 43.0138 3.03125   6
   4  -2   5 40.0863 2.79419   1
  -5   2  -5 4.89729 1.12450   5
  -5   2  -5 4.14743 1.31623   1
  -5   2  -5 4.75785 1.36051   6
  -5   2  -5 4.32587 1.40360   1
   5  -2   5 3.60667 1.29123   1
   5  -2   5 3.92274 1.33833   6
  -6   2  -5 53.6454 3.97755   6
  -6   2  -5 58.2778 3.62723   2
  -6   2  -5 55.8364 3.82436   1
   6  -2   5 49.7773 3.93489   6
   6  -2   5 59.9009 3.91469   1
  -7   2  -5 0.33607 0.94663   1
  -7   2  -5 1.34075 1.00405   2
   7  -2   5 0.38926 0.95983   1
  -8   2  -5 6.39138 1.69813   2
  -8   2  -5 2.30069 1.44730   1
   8  -2   5 5.34667 1.81680   1
  -9   2  -5 67.6219 4.90534   2
  -9   2  -5 74.1044 5.31727   1
   9  -2   5 85.6349 5.68999   1
 -10   2  -5 17.6432 3.07908   2
  10  -2   5 14.6948 2.97061   1
  10   1  -5 79.6766 5.37912   4
  10   1  -5 105.607 6.14610   1
 -10  -1   5 80.9085 5.53525   2
   9   1  -5 33.4879 3.59818   4
   9   1  -5 30.5208 3.59937   1
  -9  -1   5 33.8337 3.80228   2
   8   1  -5 8.56999 1.94273   1
   8   1  -5 9.85380 2.01853   4
  -8  -1   5 10.5033 1.99920   2
   7   1  -5 203.483 8.84706   1
   7   1  -5 204.952 8.61488   4
   7   1  -5 199.158 8.88338   6
  -7  -1   5 214.851 8.86691   2
   6   1  -5 53.3383 3.37913   6
   6   1  -5 58.3418 3.53740   1
   6   1  -5 55.8783 3.34762   4
  -6  -1   5 51.6613 3.07403   1
  -6  -1   5 48.5715 3.26738   2
   5   1  -5 14.5781 2.81885   3
   5   1  -5 12.2414 1.62946   6
   5   1  -5 14.5300 1.88478   1
   5   1  -5 12.5086 1.66914   4
  -5  -1   5 11.0588 1.55727   2
  -5  -1   5 13.8616 1.68156   1
   4   1  -5 175.623 7.17759   1
   4   1  -5 175.602 6.93197   3
   4   1  -5 184.400 7.09829   4
   4   1  -5 173.208 7.15174   1
  -4  -1   5 182.590 7.02629   1
   3   1  -5 5.29492 0.95519   4
   3   1  -5 3.82351 0.91284   1
   3   1  -5 6.39637 1.09966   1
   3   1  -5 6.05700 0.96758   3
  -3  -1   5 7.48473 1.09920   1
   2   1  -5 192.365 6.84080   3
   2   1  -5 202.250 7.45614   1
   2   1  -5 191.934 7.23630   4
   2   1  -5 187.472 7.41374   1
   2   1  -5 196.813 7.47850   6
  -2  -1   5 188.003 7.32374   1
   1   1  -5 184.821 7.01475   6
   1   1  -5 156.967 6.78367   1
   1   1  -5 178.860 6.84854   1
  -1  -1   5 180.469 6.81874   1
  -1  -1   5 182.203 6.16375   3
   0   1  -5 12.5026 1.70503   6
   0   1  -5 11.4823 1.44235   1
   0   1  -5 10.0501 1.34451   1
   0  -1   5 8.34031 1.20131   1
   0  -1   5 9.91598 1.19605   6
   0  -1   5 10.1090 0.94921   3
  -1   1  -5 15.5544 1.63475   1
  -1   1  -5 16.0963 1.99378   6
   1  -1   5 14.5662 1.57946   1
   1  -1   5 15.2124 1.58206   6
  -2   1  -5 95.0433 4.84852   6
  -2   1  -5 101.530 4.58880   1
   2  -1   5 100.902 4.70635   6
   2  -1   5 97.5446 4.55314   1
  -3   1  -5 50.1446 2.99123   1
  -3   1  -5 46.6075 3.21502   6
  -3   1  -5 42.7259 2.76065   5
   3  -1   5 50.2024 2.99046   1
   3  -1   5 47.4787 3.10248   6
  -4   1  -5 21.5892 2.41128   1
  -4   1  -5 24.2335 2.66014   6
  -4   1  -5 24.0954 2.35748   5
   4  -1   5 21.7272 2.37708   1
   4  -1   5 17.2638 2.22472   6
  -5   1  -5 12.2748 2.03173   6
  -5   1  -5 15.1977 2.11855   1
  -5   1  -5 13.7439 1.98679   1
   5  -1   5 16.8999 2.27535   1
   5  -1   5 12.9824 2.20057   6
  -6   1  -5 16.2897 2.17646   2
  -6   1  -5 15.3714 2.45060   6
  -6   1  -5 13.7981 2.18650   1
   6  -1   5 17.7905 2.78825   6
   6  -1   5 18.4895 2.62734   1
  -7   1  -5 -0.1664 0.79881   2
  -7   1  -5 -0.2406 0.82944   1
   7  -1   5 0.10403 0.93978   1
  -8   1  -5 7.35503 1.97409   1
  -8   1  -5 1.72054 1.36367   2
   8  -1   5 7.10220 1.92650   1
  -9   1  -5 3.65859 1.61484   2
   9  -1   5 4.52518 1.94670   1
  10   0  -5 53.5862 5.18319   1
  10   0  -5 55.0473 4.95257   4
 -10   0   5 49.8633 4.86377   2
   9   0  -5 4.12510 1.70834   1
   9   0  -5 9.14257 2.00644   4
  -9   0   5 5.54357 1.70155   2
   8   0  -5 -0.4369 0.97184   4
   8   0  -5 -1.3452 0.93305   1
  -8   0   5 -0.2291 0.88537   2
   7   0  -5 276.677 11.7780   6
   7   0  -5 300.105 11.4546   4
   7   0  -5 295.888 11.7762   1
  -7   0   5 280.789 11.3153   1
  -7   0   5 290.504 11.5879   2
   6   0  -5 47.1769 3.13337   4
   6   0  -5 52.2656 3.45495   1
   6   0  -5 45.8136 3.25744   6
  -6   0   5 48.3348 3.21032   1
  -6   0   5 46.3587 3.20283   2
   5   0  -5 8.69879 1.39166   4
   5   0  -5 7.71252 1.49549   1
   5   0  -5 12.6690 1.98463   6
  -5   0   5 9.66168 1.51430   1
   4   0  -5 30.6535 2.31127   1
   4   0  -5 29.3930 2.15017   6
   4   0  -5 26.2762 1.96699   4
   4   0  -5 25.6371 2.01930   3
  -4   0   5 25.1729 2.09353   1
   3   0  -5 1.35242 0.68698   3
   3   0  -5 -0.4311 0.38545   4
   3   0  -5 0.98182 0.67206   1
   3   0  -5 1.40221 0.67294   6
  -3   0   5 0.97446 0.67721   1
  -3   0   5 1.83441 0.78197   3
   2   0  -5 23.1612 1.59366   4
   2   0  -5 24.4838 2.19638   1
   2   0  -5 21.6295 1.84454   6
   2   0  -5 20.5776 1.52866   3
  -2   0   5 22.2648 1.55653   3
  -2   0   5 22.6886 1.83015   1
   1   0  -5 126.698 5.50038   6
   1   0  -5 120.875 5.26544   1
  -1   0   5 125.514 5.24576   6
  -1   0   5 123.989 4.84932   3
  -1   0   5 118.609 5.27110   1
   0   0  -5 1072.65 35.2515   6
   0   0  -5 1013.41 34.8888   1
   0   0   5 1077.77 35.0676   6
   0   0   5 1015.56 34.9444   1
   0   0   5 1063.40 34.5299   3
  -1   0  -5 527.875 18.0757   1
  -1   0  -5 504.425 18.4170   6
   1   0   5 525.790 18.2845   6
   1   0   5 513.925 18.1325   1
  -2   0  -5 110.112 5.04490   1
  -2   0  -5 103.067 5.27635   6
   2   0   5 118.810 5.15888   1
   2   0   5 108.965 5.21621   6
  -3   0  -5 7.13574 1.34975   5
  -3   0  -5 8.06660 1.42902   1
  -3   0  -5 9.94204 1.79127   6
   3   0   5 9.06330 1.48148   1
   3   0   5 9.67126 1.78056   6
  -4   0  -5 562.058 20.4929   6
  -4   0  -5 555.159 20.0193   1
   4   0   5 565.439 20.2291   1
   4   0   5 574.392 20.6401   6
  -5   0  -5 70.2209 4.05129   1
  -5   0  -5 56.4560 3.96179   6
   5   0   5 61.8423 4.24606   6
   5   0   5 65.1092 4.06182   1
  -6   0  -5 10.2045 1.86116   2
  -6   0  -5 10.8991 1.95017   1
  -6   0  -5 6.50936 1.54904   6
   6   0   5 7.97823 1.80910   1
  -7   0  -5 70.5565 4.43744   2
  -7   0  -5 69.4487 4.49773   1
   7   0   5 73.5299 4.91695   1
   8   0   5 41.0878 4.37070   1
  -9   0  -5 38.4164 4.09728   2
   9   0   5 45.4192 4.83142   1
  10  -1  -5 0.60158 1.36137   4
  10  -1  -5 1.45949 1.55102   1
 -10   1   5 2.12868 1.39745   2
   9  -1  -5 11.0813 2.30116   4
   9  -1  -5 11.2005 2.34078   1
  -9   1   5 10.1058 2.12673   2
   8  -1  -5 48.5117 4.09864   4
   8  -1  -5 39.9176 4.16875   1
  -8   1   5 35.3344 3.64557   2
   7  -1  -5 3.32393 1.38236   4
   7  -1  -5 6.37668 1.73285   1
  -7   1   5 7.51285 1.64690   1
  -7   1   5 6.20968 1.60174   2
   6  -1  -5 0.58264 0.76451   6
   6  -1  -5 1.05017 0.93039   4
   6  -1  -5 0.38966 0.96461   1
  -6   1   5 1.01788 0.88227   2
  -6   1   5 1.22805 0.99605   1
   5  -1  -5 60.3905 3.39647   4
   5  -1  -5 57.7466 3.69383   1
   5  -1  -5 60.0873 3.82965   6
  -5   1   5 61.3607 3.71230   1
   4  -1  -5 240.893 9.86171   6
   4  -1  -5 249.068 9.77783   1
   4  -1  -5 250.918 9.27843   4
   4  -1  -5 235.374 9.74854   6
  -4   1   5 244.507 9.70935   1
  -4   1   5 251.188 9.67729   3
   3  -1  -5 15.2317 2.06735   6
   3  -1  -5 15.3332 1.84006   3
   3  -1  -5 15.2291 1.63047   4
   3  -1  -5 16.0151 1.87054   1
  -3   1   5 20.3595 2.08898   3
  -3   1   5 19.6507 2.22505   1
   2  -1  -5 290.106 10.4767   4
   2  -1  -5 279.595 10.7797   3
   2  -1  -5 306.608 11.0954   1
   2  -1  -5 303.109 11.3214   6
  -2   1   5 294.598 10.8190   3
  -2   1   5 295.037 11.1420   1
   1  -1  -5 187.742 7.35360   1
   1  -1  -5 177.496 7.48939   6
   1  -1  -5 175.728 6.65615   4
  -1   1   5 180.074 7.31037   1
  -1   1   5 178.873 7.09320   3
  -1   1   5 180.424 7.33128   6
   0  -1  -5 136.535 6.20700   6
   0  -1  -5 140.689 5.91629   1
   0   1   5 136.331 5.75651   3
   0   1   5 134.854 6.00934   6
  -1  -1  -5 476.047 17.3263   6
  -1  -1  -5 472.788 16.8992   1
   1   1   5 500.251 17.1268   1
   1   1   5 465.943 17.2142   6
  -2  -1  -5 14.9191 2.01535   6
  -2  -1  -5 22.1198 2.30957   1
   2   1   5 15.0723 1.88359   1
   2   1   5 16.6553 2.03663   6
  -3  -1  -5 265.110 10.0293   1
  -3  -1  -5 251.255 10.3353   6
   3   1   5 247.157 10.0926   1
  -4  -1  -5 269.630 11.7193   6
  -4  -1  -5 305.819 11.6387   1
   4   1   5 328.261 12.0122   1
  -5  -1  -5 18.8891 2.30191   6
  -5  -1  -5 24.9324 2.74422   1
   5   1   5 21.4831 2.81327   1
  -6  -1  -5 41.2598 3.34289   6
  -6  -1  -5 50.7033 3.61137   1
  -6  -1  -5 48.4623 3.40504   2
   6   1   5 48.9216 3.75540   1
  -7  -1  -5 67.7000 4.39499   2
   7   1   5 65.7096 4.65398   1
  -8  -1  -5 -0.2030 1.05481   2
   8   1   5 1.30806 1.51377   1
  -9  -1  -5 9.87369 2.28631   2
   9   1   5 10.8591 2.45431   1
  10  -2  -5 15.4761 3.05891   1
  10  -2  -5 19.0721 3.05494   4
 -10   2   5 16.4905 3.00729   2
   9  -2  -5 1.84404 1.60009   1
   9  -2  -5 1.42465 1.35105   4
  -9   2   5 1.19727 1.26557   2
   8  -2  -5 83.0435 5.44214   1
   8  -2  -5 86.0746 5.01982   4
  -8   2   5 76.2625 5.37054   1
  -8   2   5 89.3109 5.15094   2
   7  -2  -5 80.9651 4.98085   1
   7  -2  -5 77.5169 4.49747   4
  -7   2   5 65.1959 4.53119   1
  -7   2   5 72.2180 4.43114   2
   6  -2  -5 91.8617 5.43477   6
   6  -2  -5 94.1458 5.35432   1
   6  -2  -5 97.2829 4.95138   4
  -6   2   5 96.7126 5.27899   1
   5  -2  -5 5.47135 1.58677   6
   5  -2  -5 1.62850 1.05029   6
   5  -2  -5 4.37144 1.31294   1
   5  -2  -5 2.06201 0.98462   4
  -5   2   5 1.86666 1.23262   3
  -5   2   5 2.47161 1.16217   1
   4  -2  -5 28.7978 2.86040   1
   4  -2  -5 18.9476 2.52679   6
   4  -2  -5 25.7383 3.02887   6
   4  -2  -5 27.5907 2.39941   4
  -4   2   5 26.6270 2.78692   3
  -4   2   5 20.4909 2.39145   1
   3  -2  -5 168.381 7.10410   1
   3  -2  -5 160.906 6.38478   4
   3  -2  -5 158.403 7.20871   6
  -3   2   5 163.228 7.10928   1
  -3   2   5 153.460 6.93265   3
   2  -2  -5 200.736 7.44395   4
   2  -2  -5 183.928 8.04815   6
   2  -2  -5 195.634 8.39149   6
   2  -2  -5 208.304 8.21839   1
  -2   2   5 207.090 8.33783   1
  -2   2   5 201.693 8.24677   6
  -2   2   5 197.832 8.10299   3
   1  -2  -5 5.82906 0.86302   4
   1  -2  -5 4.92734 1.14071   1
   1  -2  -5 6.43385 1.36439   6
  -1   2   5 4.60424 0.96087   6
  -1   2   5 6.83026 1.39308   3
  -1   2   5 5.87292 1.31623   1
   0  -2  -5 19.1709 2.41329   6
   0  -2  -5 15.5957 1.29884   4
   0  -2  -5 18.0138 2.02209   1
   0   2   5 15.8033 1.94334   1
   0   2   5 10.3913 1.56623   6
   0   2   5 14.9537 1.98522   3
  -1  -2  -5 56.4891 3.30452   1
  -1  -2  -5 55.4890 3.55394   6
   1   2   5 56.1360 3.43118   1
  -2  -2  -5 10.2229 1.73326   6
  -2  -2  -5 10.7874 1.65124   1
   2   2   5 13.6212 1.97851   1
   2   2   5 8.87257 1.67687   6
  -3  -2  -5 152.084 6.83443   6
  -3  -2  -5 144.946 6.49856   1
   3   2   5 147.837 7.10643   6
   3   2   5 137.253 6.69439   1
  -4  -2  -5 41.0699 3.02570   1
  -4  -2  -5 38.5443 2.98665   6
   4   2   5 37.2746 3.57401   1
   4   2   5 31.3742 3.21637   6
  -5  -2  -5 1.19776 1.04440   1
   5   2   5 1.28651 1.08504   1
  -6  -2  -5 11.3612 1.94633   2
   6   2   5 11.7317 2.26420   1
  -7  -2  -5 -0.0984 1.01279   2
   7   2   5 1.75026 1.30933   1
  -8  -2  -5 41.5074 4.12456   2
   8   2   5 44.2374 4.78793   1
   9  -3  -5 4.10728 1.90828   1
   9  -3  -5 3.30345 1.69625   4
  -9   3   5 5.54371 1.81393   2
   8  -3  -5 50.2523 4.98597   1
   8  -3  -5 56.9487 4.16168   4
  -8   3   5 52.4439 4.28074   1
   7  -3  -5 3.26242 1.31508   4
   7  -3  -5 6.70135 1.90531   1
  -7   3   5 3.24866 1.47661   1
   6  -3  -5 105.601 5.73874   1
   6  -3  -5 95.8571 5.02667   4
  -6   3   5 97.3277 5.59103   1
  -6   3   5 93.5322 5.64662   3
   5  -3  -5 14.8651 2.29051   1
   5  -3  -5 12.1308 1.76268   4
   5  -3  -5 6.92776 1.80270   6
  -5   3   5 11.5373 2.16830   1
  -5   3   5 8.80206 2.02377   3
   4  -3  -5 27.1830 3.20720   6
   4  -3  -5 17.0205 2.19715   6
   4  -3  -5 32.4801 2.30010   4
   4  -3  -5 25.6524 2.72165   1
  -4   3   5 24.1028 2.81111   1
  -4   3   5 31.0644 3.24616   3
   3  -3  -5 43.6909 2.66097   4
   3  -3  -5 45.7906 3.24960   1
   3  -3  -5 47.8218 3.44642   6
   3  -3  -5 49.5965 3.29205   6
  -3   3   5 49.0514 3.37912   1
  -3   3   5 44.7777 3.37834   3
   2  -3  -5 11.6812 1.82800   6
   2  -3  -5 13.7816 2.05718   1
   2  -3  -5 11.0780 1.34132   4
   2  -3  -5 9.61468 1.61346   6
  -2   3   5 8.70200 1.67387   1
  -2   3   5 9.85346 1.72096   6
  -2   3   5 13.5669 2.11609   3
   1  -3  -5 104.181 4.22759   4
   1  -3  -5 102.305 5.03818   6
   1  -3  -5 104.936 5.15391   1
   1  -3  -5 99.5319 5.33790   6
  -1   3   5 107.340 5.34797   1
  -1   3   5 102.408 5.25827   6
  -1   3   5 107.040 5.39506   3
   0  -3  -5 53.6609 3.35585   1
   0  -3  -5 57.4297 3.63615   6
   0  -3  -5 53.0727 2.45649   4
   0   3   5 59.4852 3.61457   1
   0   3   5 53.0593 3.62016   3
  -1  -3  -5 31.5444 2.78018   6
  -1  -3  -5 35.9351 2.73292   1
  -1  -3  -5 36.5308 1.75025   4
   1   3   5 38.7299 3.64535   3
   1   3   5 36.4203 2.86521   1
   1   3   5 34.7645 2.88130   6
  -2  -3  -5 31.3301 2.90480   1
  -2  -3  -5 26.3173 2.73386   6
   2   3   5 35.8586 3.49206   6
   2   3   5 30.8250 3.19540   1
  -3  -3  -5 320.869 12.4631   6
  -3  -3  -5 332.306 12.4726   1
   3   3   5 333.311 12.8903   1
   3   3   5 310.942 13.0782   6
  -4  -3  -5 2.91054 1.19709   1
   4   3   5 1.59291 1.18270   6
   4   3   5 2.30954 1.19153   1
   5   3   5 276.020 11.6832   1
  -6  -3  -5 63.7581 4.17353   2
   6   3   5 61.7590 4.56231   1
  -7  -3  -5 56.7555 4.26280   2
   7   3   5 56.4008 4.62605   1
  -8  -3  -5 73.1990 5.11101   2
   8   3   5 73.6562 5.54346   1
   9  -4  -5 25.1072 3.92937   1
   9  -4  -5 16.4618 2.82093   4
   8  -4  -5 17.2587 2.72920   4
   8  -4  -5 21.1278 3.39254   1
  -8   4   5 17.8407 3.00728   1
   7  -4  -5 2.65761 1.64170   1
   7  -4  -5 1.65629 1.30982   4
  -7   4   5 2.58175 1.72018   3
  -7   4   5 4.65331 1.81176   1
   6  -4  -5 0.52699 0.96281   4
   6  -4  -5 0.29530 1.22599   1
  -6   4   5 1.52358 1.57817   3
  -6   4   5 1.22225 1.37717   1
   5  -4  -5 25.7268 3.07485   1
   5  -4  -5 24.3030 2.49075   4
  -5   4   5 20.7060 3.09878   3
  -5   4   5 20.1439 2.93227   1
   4  -4  -5 306.918 12.2794   1
   4  -4  -5 310.679 11.4902   4
  -4   4   5 305.201 12.5903   1
  -4   4   5 300.709 12.6383   3
   3  -4  -5 3.30208 0.97423   4
   3  -4  -5 2.66645 0.88193   6
   3  -4  -5 3.60189 1.37766   6
   3  -4  -5 5.87490 1.60170   1
  -3   4   5 2.44302 1.32750   1
  -3   4   5 2.86998 1.45628   3
   2  -4  -5 24.4166 2.95241   6
   2  -4  -5 24.7608 2.72144   1
   2  -4  -5 24.1374 2.81527   6
   2  -4  -5 24.4027 1.78561   4
  -2   4   5 27.8798 3.08384   1
  -2   4   5 23.5062 3.06664   3
  -2   4   5 15.7627 2.16158   6
   1  -4  -5 86.0690 5.00026   6
   1  -4  -5 91.6256 3.86393   4
   1  -4  -5 96.2877 5.66447   6
   1  -4  -5 99.8696 5.00647   1
  -1   4   5 95.9609 5.40148   3
  -1   4   5 90.9717 5.18094   1
   0  -4  -5 77.2332 4.29896   1
   0  -4  -5 81.3695 4.58505   6
   0  -4  -5 81.2193 3.19177   4
   0   4   5 79.8921 4.61204   1
   0   4   5 67.5382 4.44447   6
   0   4   5 77.6098 4.86049   3
  -1  -4  -5 12.5573 1.88709   1
  -1  -4  -5 13.5741 0.90309   4
  -1  -4  -5 11.4252 1.95386   6
   1   4   5 15.3405 2.66522   3
   1   4   5 15.8118 2.31643   1
   1   4   5 9.62686 1.87616   6
  -2  -4  -5 176.894 7.50695   1
   2   4   5 170.248 7.88563   1
   2   4   5 166.742 8.05876   6
   2   4   5 170.549 8.35365   3
   3   4   5 85.9297 5.08656   1
   4   4   5 -0.6017 0.84070   1
  -5  -4  -5 39.4882 3.64406   2
   5   4   5 39.4036 4.02894   1
  -6  -4  -5 -1.1667 0.83234   2
   6   4   5 0.35795 1.21510   1
  -7  -4  -5 32.5974 3.62402   2
   7   4   5 33.1459 4.09964   1
   8  -5  -5 2.62135 1.68695   1
   8  -5  -5 4.93171 1.77434   4
  -8   5   5 4.73311 2.24950   3
  -8   5   5 3.27559 1.86073   1
   7  -5  -5 -0.7085 1.02461   4
   7  -5  -5 1.23412 1.31680   1
  -7   5   5 -1.3733 1.35121   3
  -7   5   5 0.87067 1.48249   1
   6  -5  -5 -1.0860 1.10842   1
   6  -5  -5 1.25902 1.10798   4
  -6   5   5 -0.3206 1.22147   1
  -6   5   5 -0.6302 1.22409   3
   5  -5  -5 11.9968 2.24301   1
   5  -5  -5 13.5714 2.03407   4
  -5   5   5 10.3521 2.42722   3
  -5   5   5 10.4582 2.20896   1
   4  -5  -5 0.78125 0.85307   4
   4  -5  -5 -0.9154 0.89838   1
  -4   5   5 0.43857 1.05800   1
  -4   5   5 1.34608 1.44409   3
   3  -5  -5 10.1029 1.49255   4
   3  -5  -5 4.82349 1.56233   1
  -3   5   5 6.69001 1.80154   1
  -3   5   5 7.30644 2.13577   3
   2  -5  -5 2.46696 1.26455   1
   2  -5  -5 0.25500 0.98437   6
   2  -5  -5 2.06184 0.77841   4
  -2   5   5 1.15686 1.27870   1
  -2   5   5 3.65631 1.58160   3
   1  -5  -5 0.73162 0.99008   1
   1  -5  -5 1.32178 0.56306   4
  -1   5   5 0.84386 1.03148   1
  -1   5   5 1.95231 1.26449   3
   0  -5  -5 18.9782 2.45176   1
   0   5   5 23.1717 2.87301   1
   0   5   5 21.4795 3.19087   3
   1   5   5 3.83283 1.31359   1
   1   5   5 0.97122 1.45965   3
   2   5   5 25.5469 3.09478   1
   2   5   5 27.2053 3.80506   3
   3   5   5 6.40773 1.80626   1
   4   5   5 14.2554 2.51662   1
  -5  -5  -5 0.45278 1.04916   2
   5   5   5 3.90503 1.59853   1
  -6  -5  -5 25.8985 3.16211   2
   6   5   5 27.1952 3.65829   1
   7  -6  -5 0.30080 1.34172   4
  -7   6   5 0.81989 1.91284   3
  -7   6   5 1.42640 1.81361   1
   6  -6  -5 3.71041 1.41611   4
  -6   6   5 3.84553 2.02672   1
  -6   6   5 3.83486 2.02158   3
   5  -6  -5 60.3952 3.90690   4
  -5   6   5 69.4479 5.35964   3
  -5   6   5 80.6625 5.47878   1
   4  -6  -5 77.5038 4.11540   4
  -4   6   5 83.6254 5.57234   1
  -4   6   5 72.7988 5.49388   3
   3  -6  -5 6.18237 1.24981   4
  -3   6   5 3.54115 1.79118   3
  -3   6   5 4.40921 1.64334   1
  -2   6   5 1.03977 1.29520   1
  -2   6   5 -0.0752 1.24708   3
  -1   6   5 3.82760 2.00503   3
  -1   6   5 4.73414 1.74837   1
   0   6   5 56.6716 4.38249   1
   0   6   5 63.4700 4.98403   3
   1   6   5 6.59834 2.30868   3
   1   6   5 7.02419 1.89440   1
   2   6   5 69.4527 4.85693   1
   2   6   5 66.9990 5.42480   3
   3   6   5 -0.1044 1.27274   1
   3   6   5 1.35490 1.66804   3
  -4  -6  -5 11.8552 2.15759   2
   4   6   5 15.9954 3.37106   3
   4   6   5 9.35719 2.27158   1
   5   6   5 4.13188 1.74733   1
  -5   7   5 8.68870 2.42921   1
  -5   7   5 10.8787 2.89324   3
  -4   7   5 0.21232 1.64531   3
  -4   7   5 4.11381 1.78576   1
  -3   7   5 1.63618 1.57165   1
  -3   7   5 4.28414 1.89547   3
  -2   7   5 -0.2281 1.18130   1
  -2   7   5 0.80884 1.47604   3
  -1   7   5 15.3044 3.12472   3
  -1   7   5 11.8243 2.55599   1
   0   7   5 6.61430 2.08796   1
   0   7   5 6.78091 2.53263   3
   1   7   5 7.51313 2.41761   3
   1   7   5 8.23985 2.11564   1
   2   7   5 33.5768 4.77208   3
   2   7   5 30.9713 3.84278   1
   3   7   5 12.1407 3.28196   3
   3   7   5 5.30041 1.91413   1
  -3   8   5 1.77657 1.93797   3
  -2   8   5 7.69195 2.34407   1
  -2   8   5 6.22388 2.40225   3
  -1   8   5 25.4705 4.34471   3
  -1   8   5 24.3799 3.59079   1
   0   8   5 3.86567 2.35093   3
   0   8   5 2.32110 1.72957   1
   1  11  -6 0.28767 0.77748   1
   1  11  -6 -0.0888 1.62224   3
   0  11  -6 13.5364 1.87972   1
   0  11  -6 13.6561 2.70502   3
  -1  11  -6 25.3229 2.69795   1
  -1  11  -6 21.2274 3.37953   3
  -2  11  -6 -0.0078 0.97826   1
  -2  11  -6 1.00608 1.71262   3
  -2  11  -6 -0.9107 1.05222   6
   3  10  -6 3.71511 2.01492   3
   2  10  -6 5.07971 1.86440   3
   1  10  -6 69.4959 4.91574   3
   1  10  -6 82.3623 3.61396   1
   0  10  -6 45.8842 4.47716   3
   0  10  -6 46.9014 2.81727   1
  -1  10  -6 4.54002 1.35708   6
  -1  10  -6 8.26759 1.56149   1
  -1  10  -6 5.55491 1.91378   3
  -2  10  -6 2.02514 1.17579   1
  -2  10  -6 1.67715 1.45052   3
  -2  10  -6 1.91691 1.13601   6
  -3  10  -6 1.92837 1.35793   1
  -3  10  -6 6.97205 2.09561   3
  -3  10  -6 2.62567 1.50567   6
  -4  10  -6 13.7807 2.84750   3
  -4  10  -6 12.9113 2.71507   6
  -4  10  -6 13.2800 2.37991   1
  -5  10  -6 12.0959 2.48489   1
  -5  10  -6 14.3451 2.91448   3
   5   9  -6 17.1571 2.95339   3
   5   9  -6 17.5272 2.77969   5
   4   9  -6 22.9758 2.35329   4
   4   9  -6 30.1423 3.61165   3
   4   9  -6 24.2280 2.93158   5
   3   9  -6 2.51156 0.94577   4
   3   9  -6 2.15598 1.45192   3
   3   9  -6 2.71946 1.22048   5
   2   9  -6 9.11671 2.02586   3
   1   9  -6 56.9110 4.04851   3
   1   9  -6 61.8130 2.83909   1
   0   9  -6 36.6734 3.56468   3
   0   9  -6 41.3363 2.48653   1
  -1   9  -6 26.9122 2.28335   6
  -1   9  -6 27.1938 3.19822   3
  -1   9  -6 23.7677 2.35389   1
  -2   9  -6 121.768 5.72807   1
  -2   9  -6 118.706 5.98084   6
  -2   9  -6 122.847 6.37467   3
  -3   9  -6 29.6387 3.36010   6
  -3   9  -6 27.9138 3.05318   1
  -3   9  -6 32.9692 3.66837   3
  -4   9  -6 21.8243 3.11248   3
  -4   9  -6 22.2348 3.45154   6
  -4   9  -6 23.2244 2.97514   1
  -5   9  -6 73.7039 4.94160   1
  -5   9  -6 72.1744 5.03768   3
  -6   9  -6 1.68828 1.47232   1
   7   8  -6 29.2061 5.69529   5
   6   8  -6 9.53855 2.21528   5
   6   8  -6 10.0586 1.83468   4
   6   8  -6 14.9573 1.53650   1
   5   8  -6 18.9583 1.32391   1
   5   8  -6 18.4443 2.72729   3
   5   8  -6 14.6989 2.44121   5
   5   8  -6 19.0108 2.11573   4
   4   8  -6 23.0774 2.76150   5
   4   8  -6 26.7268 3.10547   3
   4   8  -6 21.6990 2.29667   4
   3   8  -6 33.1041 2.34572   4
   3   8  -6 32.4554 3.22374   3
   3   8  -6 30.1406 2.89880   5
   2   8  -6 84.1355 4.28744   5
   2   8  -6 85.2214 4.75722   3
   1   8  -6 9.07692 1.31373   5
   1   8  -6 10.4134 1.07624   1
   1   8  -6 9.94400 1.80208   3
   0   8  -6 12.8589 1.99064   3
   0   8  -6 8.07014 1.07533   5
   0   8  -6 10.8271 1.32986   1
   0   8  -6 9.35512 1.26993   1
  -1   8  -6 14.0749 2.14747   3
  -1   8  -6 17.0293 1.92307   6
  -1   8  -6 17.6271 1.91413   1
  -2   8  -6 3.89343 1.20591   6
  -2   8  -6 2.78769 1.31808   3
  -2   8  -6 3.20044 1.10164   1
  -3   8  -6 -0.4012 0.72230   1
  -3   8  -6 0.70651 0.90275   6
  -3   8  -6 0.87581 0.56201   2
  -3   8  -6 0.32850 1.12087   3
  -4   8  -6 33.7441 4.03394   6
  -4   8  -6 26.5891 2.30833   2
  -4   8  -6 28.6312 3.25410   3
  -4   8  -6 30.6633 3.27165   1
  -5   8  -6 -0.0623 1.10160   1
  -5   8  -6 -0.0085 0.71375   2
  -5   8  -6 0.77311 1.17414   6
  -6   8  -6 6.97813 1.49460   2
  -6   8  -6 9.25038 2.20883   1
  -7   8  -6 25.7523 2.76744   2
  -7   8  -6 25.8126 3.76502   1
   7   7  -6 -1.0751 1.20714   5
   7   7  -6 0.59018 1.00219   4
   7   7  -6 -0.4098 0.76271   1
   6   7  -6 29.5767 2.12679   1
   6   7  -6 33.9369 3.89075   5
   6   7  -6 31.9907 2.94518   4
   5   7  -6 27.6371 2.72613   4
   5   7  -6 28.0201 1.75512   1
   5   7  -6 30.7998 3.36762   5
   4   7  -6 0.54803 0.80622   5
   4   7  -6 0.23643 0.70998   4
   4   7  -6 1.21221 1.01931   3
   3   7  -6 25.6594 2.33757   4
   3   7  -6 24.3317 2.56766   3
   3   7  -6 24.6070 2.60294   5
   2   7  -6 123.260 5.55952   5
   2   7  -6 127.091 5.72587   3
   1   7  -6 120.625 4.95769   2
   1   7  -6 122.814 4.71415   1
   1   7  -6 127.645 4.75018   1
   1   7  -6 127.092 5.62780   3
   1   7  -6 125.130 5.21617   5
   0   7  -6 202.666 7.85758   3
   0   7  -6 185.843 6.97042   5
   0   7  -6 186.813 7.13018   1
   0   7  -6 200.048 7.18965   1
   0   7  -6 181.243 7.03251   2
  -1   7  -6 -0.1414 0.78506   3
  -1   7  -6 0.19275 0.56777   6
  -1   7  -6 -0.7878 0.53676   1
  -1   7  -6 0.91181 0.96499   1
  -2   7  -6 273.109 10.4822   1
  -2   7  -6 272.873 10.6323   3
  -2   7  -6 275.515 10.7648   6
  -2   7  -6 274.159 10.4818   1
  -3   7  -6 133.397 6.20591   1
  -3   7  -6 131.278 6.20530   3
  -3   7  -6 134.260 6.57656   6
  -4   7  -6 40.9984 2.62484   2
  -4   7  -6 39.7297 3.17840   1
  -4   7  -6 42.4070 3.55536   6
  -5   7  -6 109.060 5.14689   2
  -5   7  -6 104.508 5.89613   1
  -5   7  -6 112.712 6.41633   6
  -6   7  -6 42.1168 4.10362   1
  -6   7  -6 39.9465 2.94908   2
  -7   7  -6 2.01305 1.25674   2
  -7   7  -6 2.15286 1.51106   1
  -8   7  -6 5.31945 1.71502   2
  -8   7  -6 8.27069 2.37045   1
   8   6  -6 0.13934 0.87850   6
   8   6  -6 0.88930 1.21084   4
   8   6  -6 0.59177 1.10690   1
  -8  -6   6 -0.2620 1.05741   2
   7   6  -6 75.9653 4.29893   4
   7   6  -6 68.3216 3.83787   1
   7   6  -6 61.5869 4.88653   5
   7   6  -6 71.2506 3.67990   6
   6   6  -6 35.8570 3.17101   4
   6   6  -6 37.0330 2.44213   1
   5   6  -6 0.16838 0.70277   4
   5   6  -6 -0.0984 0.54452   1
   4   6  -6 4.03049 0.75593   1
   4   6  -6 4.06875 0.76059   1
   4   6  -6 4.27765 1.08865   4
   3   6  -6 155.378 5.71548   1
   3   6  -6 161.539 5.70590   1
   3   6  -6 156.999 6.52332   4
   3   6  -6 162.681 6.64686   3
   2   6  -6 1.18698 0.76254   3
   2   6  -6 1.22897 0.45023   1
   2   6  -6 1.52152 0.45839   1
   1   6  -6 22.5686 1.71525   3
   1   6  -6 21.5910 1.40352   1
   1   6  -6 22.1572 1.40699   1
   0   6  -6 72.9442 3.26867   1
   0   6  -6 69.4467 3.17685   1
   0   6  -6 66.7536 3.33541   3
  -1   6  -6 33.2226 2.22437   3
  -1   6  -6 34.9040 2.21486   1
  -1   6  -6 38.2579 2.33355   1
  -1   6  -6 35.9719 2.31540   6
   1  -6   6 32.3668 2.29808   3
  -2   6  -6 61.6429 3.31986   3
  -2   6  -6 62.1550 3.42621   1
  -2   6  -6 59.3986 3.29978   1
  -2   6  -6 61.6757 3.57140   6
   2  -6   6 58.7960 2.51227   1
   2  -6   6 56.9587 3.36936   3
  -3   6  -6 372.747 13.2204   1
  -3   6  -6 358.715 13.1018   1
  -3   6  -6 311.832 14.0443   1
  -3   6  -6 352.773 13.4707   6
   3  -6   6 332.826 12.3550   1
  -4   6  -6 1.28268 1.03485   1
  -4   6  -6 1.47598 1.09314   6
  -5   6  -6 238.355 9.58836   2
  -5   6  -6 259.300 10.4953   1
  -5   6  -6 233.220 10.7339   6
  -6   6  -6 194.032 8.58570   2
  -6   6  -6 221.113 9.69249   1
  -7   6  -6 0.52099 1.27539   1
  -7   6  -6 0.65253 0.92962   2
  -8   6  -6 -1.1574 1.07860   1
  -8   6  -6 0.54614 1.15858   2
  -9   6  -6 13.7254 2.97052   1
  -9   6  -6 12.7289 2.39695   2
   9   5  -6 4.89705 1.70568   4
   9   5  -6 4.98164 1.64701   1
  -9  -5   6 4.70668 1.74886   2
   8   5  -6 17.8917 2.40830   6
   8   5  -6 16.9583 2.34072   1
   8   5  -6 16.7067 2.44333   4
  -8  -5   6 21.0740 2.80415   2
   7   5  -6 25.8058 2.85461   4
   7   5  -6 20.6486 2.33404   1
   7   5  -6 20.1483 2.24967   6
  -7  -5   6 18.7384 2.45037   2
   6   5  -6 201.760 8.40467   4
   6   5  -6 202.074 7.99166   1
   5   5  -6 150.094 6.65874   4
   5   5  -6 158.375 6.18142   1
   4   5  -6 78.7595 3.42775   1
   4   5  -6 74.3070 3.39090   1
   4   5  -6 76.2873 3.94105   4
   3   5  -6 361.307 12.8118   1
   3   5  -6 367.581 13.4513   4
   3   5  -6 394.863 12.8329   1
   2   5  -6 38.1167 1.98518   1
   2   5  -6 39.5471 2.00094   1
   2   5  -6 38.8088 2.10193   3
   1   5  -6 2.76926 0.64227   3
   1   5  -6 3.39359 0.71111   1
   1   5  -6 2.76677 0.62062   1
   0   5  -6 27.1411 1.62091   6
   0   5  -6 25.0779 1.69122   1
   0   5  -6 26.3978 1.74173   1
   0   5  -6 24.2943 1.50899   3
  -1   5  -6 72.3396 3.40161   1
  -1   5  -6 69.0585 3.05445   3
  -1   5  -6 64.0188 3.27695   1
  -1   5  -6 71.0846 3.45399   6
   1  -5   6 62.0741 3.07884   3
   1  -5   6 64.1449 2.57854   1
  -2   5  -6 40.1468 2.61010   1
  -2   5  -6 44.2168 2.87334   6
  -2   5  -6 35.7834 2.46658   1
   2  -5   6 39.4426 2.16225   1
   2  -5   6 38.0092 2.37553   3
  -3   5  -6 0.14714 0.75973   6
  -3   5  -6 0.76816 0.78189   1
  -3   5  -6 1.36377 0.44021   5
   3  -5   6 0.83590 0.64675   1
  -4   5  -6 699.702 24.0265   1
  -4   5  -6 683.130 24.0230   1
  -4   5  -6 666.617 24.4462   6
   4  -5   6 662.094 23.3881   1
  -5   5  -6 103.679 5.60452   1
  -5   5  -6 108.043 6.03113   6
   5  -5   6 98.2882 5.12760   1
  -6   5  -6 158.967 7.65134   1
  -6   5  -6 150.904 6.95617   2
   6  -5   6 148.235 7.07492   1
  -7   5  -6 153.356 7.20624   2
  -7   5  -6 155.050 7.94297   1
   7  -5   6 144.392 7.30588   1
  -8   5  -6 -0.3693 1.15029   1
  -8   5  -6 -0.8263 0.88495   2
  -9   5  -6 1.90310 1.39890   2
  -9   5  -6 1.26405 1.60618   1
   9   4  -6 54.4971 4.57637   4
   9   4  -6 45.7822 3.68841   1
  -9  -4   6 39.3771 4.10068   2
   8   4  -6 13.7950 2.23617   1
   8   4  -6 12.5333 2.15271   4
   8   4  -6 9.98400 2.02674   6
  -8  -4   6 9.54703 2.08076   2
   7   4  -6 0.19284 0.64277   6
   7   4  -6 1.69627 0.97492   1
   7   4  -6 1.73905 1.09590   4
  -7  -4   6 1.17763 1.00913   2
   6   4  -6 172.155 7.09876   1
   6   4  -6 166.369 7.32030   4
   5   4  -6 72.2889 3.60440   1
   5   4  -6 68.6638 3.79030   4
   4   4  -6 12.5166 1.69937   4
   4   4  -6 8.13459 1.17043   1
   4   4  -6 10.3916 1.32334   1
   3   4  -6 264.607 9.56712   1
   3   4  -6 252.746 9.89332   4
   3   4  -6 279.508 9.60473   1
   2   4  -6 198.860 7.45969   1
   2   4  -6 207.017 7.43381   1
   2   4  -6 200.227 6.93365   3
   1   4  -6 113.494 4.67937   1
   1   4  -6 115.827 4.40447   6
   1   4  -6 112.916 4.61796   1
   0   4  -6 53.6133 2.86016   1
   0   4  -6 59.9435 2.91778   1
   0   4  -6 60.7136 2.89849   6
   0  -4   6 58.6415 2.37571   1
  -1   4  -6 9.95566 1.34001   1
  -1   4  -6 9.91249 1.32116   1
  -1   4  -6 11.2642 1.57732   6
   1  -4   6 10.0930 1.13026   1
   1  -4   6 8.54567 0.97848   3
  -2   4  -6 32.0732 2.49062   6
  -2   4  -6 34.6345 2.34458   1
  -2   4  -6 26.3002 2.09730   1
   2  -4   6 30.9250 2.00165   1
   2  -4   6 30.3395 1.92781   3
  -3   4  -6 36.5231 2.91803   6
  -3   4  -6 39.2463 2.71345   1
  -3   4  -6 34.2049 2.05151   5
   3  -4   6 35.5649 2.40094   3
   3  -4   6 38.1587 2.46518   1
  -4   4  -6 -0.0135 0.91410   6
  -4   4  -6 -0.2538 0.71301   1
  -4   4  -6 0.43961 0.56527   5
   4  -4   6 0.72672 0.70157   1
  -5   4  -6 63.9546 4.08383   1
  -5   4  -6 68.8527 4.15503   1
  -5   4  -6 58.0096 4.28182   6
  -5   4  -6 53.9753 3.08345   5
   5  -4   6 60.0605 3.72729   1
  -6   4  -6 15.1504 2.39578   1
  -6   4  -6 11.6500 1.85644   2
   6  -4   6 11.0862 1.98700   1
  -7   4  -6 9.88192 1.93755   2
  -7   4  -6 10.0752 2.17392   1
   7  -4   6 10.6131 2.11024   1
  -8   4  -6 13.9529 2.37296   2
  -8   4  -6 15.3499 2.89252   1
   8  -4   6 16.0391 2.76640   1
  -9   4  -6 58.4060 5.69097   1
  -9   4  -6 57.0944 4.97954   2
   9  -4   6 61.9838 4.79824   1
   9   3  -6 0.95071 1.25810   1
   9   3  -6 3.91290 1.63551   4
  -9  -3   6 4.05282 1.73418   2
   8   3  -6 10.8582 2.06602   1
   8   3  -6 10.9629 2.27112   6
   8   3  -6 10.7688 2.02712   4
  -8  -3   6 9.24945 1.94418   2
   7   3  -6 9.69580 1.78329   1
   7   3  -6 11.6465 1.90214   4
   7   3  -6 12.4802 2.05614   6
  -7  -3   6 6.49899 1.59404   2
   6   3  -6 30.1308 2.79132   4
   6   3  -6 32.0229 2.40670   6
   6   3  -6 37.8959 2.71003   1
  -6  -3   6 33.9675 3.15267   2
   5   3  -6 6.99011 1.27661   1
   5   3  -6 8.12196 1.37435   1
   5   3  -6 8.09812 1.38479   3
   5   3  -6 8.05559 1.46208   4
   4   3  -6 71.0765 3.47701   1
   4   3  -6 62.3467 3.33082   1
   4   3  -6 65.1357 3.13443   3
   4   3  -6 71.3704 3.62610   4
   3   3  -6 257.230 8.84220   1
   3   3  -6 231.004 8.77734   1
   3   3  -6 231.585 8.92668   4
   3   3  -6 227.002 8.15733   3
  -3  -3   6 232.866 7.97452   1
   2   3  -6 68.4802 3.18463   1
   2   3  -6 62.3576 3.12930   1
  -2  -3   6 62.3210 2.61372   1
   1   3  -6 137.272 5.39365   6
   1   3  -6 135.248 5.45575   1
   1   3  -6 133.027 5.49362   1
  -1  -3   6 131.024 5.02111   1
   0   3  -6 284.258 10.4524   6
   0   3  -6 289.592 10.3819   1
   0   3  -6 281.741 10.4372   1
  -1   3  -6 531.817 18.1529   1
  -1   3  -6 546.633 18.4323   6
  -1   3  -6 481.275 18.0465   1
   1  -3   6 524.670 17.8673   1
   1  -3   6 542.940 17.3626   6
   1  -3   6 502.230 17.2381   3
  -2   3  -6 255.702 9.60877   1
  -2   3  -6 248.804 9.94598   6
   2  -3   6 241.056 8.96585   3
   2  -3   6 246.339 9.36968   1
   2  -3   6 251.109 9.20083   6
  -3   3  -6 138.005 6.13553   1
  -3   3  -6 119.892 5.48296   5
  -3   3  -6 145.075 6.58887   6
   3  -3   6 136.062 5.70949   3
   3  -3   6 138.124 5.98601   1
   3  -3   6 137.076 5.96362   6
  -4   3  -6 75.4971 4.54349   6
  -4   3  -6 70.3070 4.09772   1
  -4   3  -6 64.5996 3.46265   5
   4  -3   6 67.4756 4.06876   6
   4  -3   6 68.9984 3.95077   1
  -5   3  -6 160.604 8.00204   6
  -5   3  -6 178.564 7.79991   1
  -5   3  -6 156.001 6.89533   5
  -5   3  -6 182.035 7.88587   1
   5  -3   6 157.794 7.69168   6
   5  -3   6 171.712 7.57231   1
  -6   3  -6 13.5826 2.20776   2
  -6   3  -6 16.5094 2.50176   1
   6  -3   6 17.4458 2.48918   1
   6  -3   6 13.1736 2.19479   6
  -7   3  -6 73.3078 4.84356   1
  -7   3  -6 69.7104 4.46459   2
   7  -3   6 71.6347 4.78461   1
  -8   3  -6 67.1684 4.93087   1
  -8   3  -6 74.0235 4.72340   2
   8  -3   6 59.9385 4.66875   1
  -9   3  -6 71.8663 5.41580   1
  -9   3  -6 72.2522 5.01243   2
   9  -3   6 67.3983 5.17759   1
  10   2  -6 5.04526 1.89770   1
  10   2  -6 5.91687 1.95767   4
 -10  -2   6 4.49808 1.84988   2
   9   2  -6 1.33471 1.16332   1
   9   2  -6 0.30836 1.27164   4
  -9  -2   6 -0.9916 1.00733   2
   8   2  -6 5.75100 1.59780   4
   8   2  -6 7.66747 1.81370   1
  -8  -2   6 8.18084 1.84497   2
   7   2  -6 46.5066 3.36649   1
   7   2  -6 42.7368 3.20332   4
   7   2  -6 43.4409 3.23683   6
  -7  -2   6 44.7723 3.37987   2
   6   2  -6 2.89576 0.99008   4
   6   2  -6 3.56654 1.22489   1
   6   2  -6 1.54820 0.80141   6
   5   2  -6 46.9935 2.80776   3
   5   2  -6 51.7591 3.11700   1
   5   2  -6 42.3136 2.87787   1
   5   2  -6 48.3666 2.97535   4
  -5  -2   6 43.5127 2.50216   1
   4   2  -6 42.6009 2.65688   1
   4   2  -6 39.3178 2.26032   3
   4   2  -6 40.9545 2.57611   4
   4   2  -6 33.5757 2.40279   1
   3   2  -6 11.6654 1.12148   3
   3   2  -6 11.6474 1.52566   1
   3   2  -6 10.0219 1.37987   1
   3   2  -6 12.2885 1.57570   4
   2   2  -6 112.176 4.65353   1
   2   2  -6 106.048 4.57427   6
   2   2  -6 93.7929 4.50396   1
  -2  -2   6 99.6983 4.32207   1
   1   2  -6 378.724 13.1488   6
   1   2  -6 341.712 12.9639   1
   1   2  -6 364.494 13.0225   1
  -1  -2   6 372.999 12.8433   1
   0   2  -6 1.60255 0.71136   1
   0   2  -6 4.04035 1.10317   6
   0   2  -6 2.04591 0.73700   1
   0  -2   6 2.24572 0.61805   6
   0  -2   6 2.69455 0.77249   1
  -1   2  -6 8.27634 1.49182   6
  -1   2  -6 8.82300 1.37150   1
   1  -2   6 8.51536 1.17864   6
   1  -2   6 7.96587 1.26615   1
  -2   2  -6 76.4077 4.01358   1
  -2   2  -6 78.3084 4.36666   6
   2  -2   6 79.1505 3.99427   1
   2  -2   6 82.0716 4.04089   6
  -3   2  -6 15.5666 2.00819   6
  -3   2  -6 24.0738 2.49885   1
   3  -2   6 19.5993 2.17421   1
   3  -2   6 19.2207 2.11265   6
  -4   2  -6 1.36545 0.94544   1
  -4   2  -6 1.48160 1.08283   6
  -4   2  -6 1.69372 0.82181   5
   4  -2   6 0.67205 0.77250   6
   4  -2   6 1.48514 0.90159   1
  -5   2  -6 5.98613 1.60577   6
  -5   2  -6 6.91373 1.67710   1
   5  -2   6 4.65823 1.57095   6
   5  -2   6 5.94124 1.53924   1
  -6   2  -6 56.5670 4.02469   1
  -6   2  -6 56.4241 4.09585   1
   6  -2   6 60.9768 4.14867   1
  -7   2  -6 0.46213 1.19072   1
  -7   2  -6 -0.2331 0.97294   2
   7  -2   6 1.35048 1.26267   1
  -8   2  -6 109.781 6.47902   1
  -8   2  -6 107.193 6.15285   2
   8  -2   6 114.459 6.63538   1
  -9   2  -6 4.45161 1.98161   1
  -9   2  -6 5.15293 1.92776   2
   9  -2   6 3.14763 1.87276   1
  10   1  -6 25.8922 3.46381   4
  10   1  -6 29.5146 3.97289   1
 -10  -1   6 25.3604 3.54703   2
   9   1  -6 2.31817 1.46013   4
   9   1  -6 0.95764 1.36529   1
  -9  -1   6 1.54879 1.45055   2
   8   1  -6 42.0824 3.79063   4
   8   1  -6 41.4592 4.04921   1
  -8  -1   6 36.6331 3.76819   2
   7   1  -6 143.399 6.66232   4
   7   1  -6 124.426 6.71483   6
   7   1  -6 150.186 6.94086   1
  -7  -1   6 139.948 6.72789   2
   6   1  -6 0.57804 0.78345   1
   6   1  -6 0.07406 0.74194   4
   6   1  -6 0.14747 0.51776   6
  -6  -1   6 -0.5937 0.65413   1
   5   1  -6 60.3550 3.39773   4
   5   1  -6 59.4131 3.57657   1
   5   1  -6 53.2131 3.52360   3
   5   1  -6 54.6455 3.38954   6
  -5  -1   6 57.8285 3.29493   1
   4   1  -6 53.8864 3.04355   4
   4   1  -6 60.1872 3.32302   1
   4   1  -6 49.5076 2.82367   3
  -4  -1   6 46.3962 2.88485   1
   3   1  -6 17.4806 1.92325   1
   3   1  -6 17.3426 1.60247   3
   3   1  -6 18.5839 2.18152   6
   3   1  -6 21.1130 1.98352   4
  -3  -1   6 18.7595 1.98725   1
   2   1  -6 184.699 7.45675   1
   2   1  -6 181.901 7.18274   4
   2   1  -6 191.949 7.62953   6
  -2  -1   6 183.417 7.35687   1
  -2  -1   6 191.201 6.72203   3
   1   1  -6 22.0906 1.97012   6
   1   1  -6 20.8658 2.05882   1
  -1  -1   6 22.9601 1.87124   1
  -1  -1   6 24.8643 1.37502   3
   0   1  -6 198.398 8.29058   6
   0   1  -6 201.368 8.04776   1
   0  -1   6 207.567 7.93256   6
   0  -1   6 202.983 7.32108   3
   0  -1   6 214.934 8.12741   1
  -1   1  -6 15.1861 1.94046   6
  -1   1  -6 20.9441 2.07847   1
   1  -1   6 11.9074 1.41551   6
   1  -1   6 18.5609 1.97951   1
  -2   1  -6 65.0989 3.98648   6
  -2   1  -6 69.3495 3.76444   1
   2  -1   6 65.5674 3.74256   6
   2  -1   6 66.8369 3.68269   1
  -3   1  -6 2.63658 0.98378   1
  -3   1  -6 3.55462 1.30220   6
   3  -1   6 3.81908 1.13051   1
   3  -1   6 3.14595 1.05151   6
  -4   1  -6 330.143 13.2593   6
  -4   1  -6 331.922 12.7748   1
   4  -1   6 343.573 12.8905   1
   4  -1   6 317.733 13.0103   6
  -5   1  -6 43.0457 3.37183   1
  -5   1  -6 51.9628 3.82301   6
   5  -1   6 44.5367 3.64527   6
   5  -1   6 51.6994 3.62250   1
  -6   1  -6 26.5415 3.11644   1
  -6   1  -6 26.2727 3.14326   1
   6  -1   6 30.6358 3.39783   1
  -7   1  -6 6.06987 1.81172   1
  -7   1  -6 5.44329 1.61106   2
   7  -1   6 5.15245 1.74307   1
  -8   1  -6 0.04891 1.16836   1
  -8   1  -6 2.08921 1.20232   2
   8  -1   6 1.75976 1.39237   1
  -9   1  -6 2.95851 1.61194   2
   9  -1   6 2.87704 1.88817   1
  10   0  -6 17.7258 3.09296   4
  10   0  -6 28.1553 3.88518   1
 -10   0   6 22.5812 3.47180   2
   9   0  -6 18.0921 2.76178   4
   9   0  -6 14.5167 2.72246   1
  -9   0   6 15.4184 2.73939   2
   8   0  -6 181.323 8.29270   4
   8   0  -6 183.160 8.63421   1
  -8   0   6 173.327 8.33467   2
   7   0  -6 11.6571 2.19060   1
   7   0  -6 7.66175 1.69021   4
   6   0  -6 113.228 5.84721   1
   6   0  -6 119.940 5.64703   4
  -6   0   6 113.898 5.66157   1
   5   0  -6 145.613 6.65250   1
   5   0  -6 132.678 6.47816   6
   5   0  -6 139.840 6.17552   4
   5   0  -6 140.942 6.66553   6
  -5   0   6 143.630 6.42086   1
   4   0  -6 14.3480 2.04499   1
   4   0  -6 9.61472 1.48637   3
   4   0  -6 12.1960 1.59211   4
   4   0  -6 12.5344 2.02769   6
  -4   0   6 9.46795 1.54183   1
   3   0  -6 708.391 24.6283   6
   3   0  -6 711.787 24.4529   1
   3   0  -6 686.749 23.9601   4
   3   0  -6 682.316 23.9001   3
  -3   0   6 720.898 24.4050   1
  -3   0   6 727.743 23.9497   3
   2   0  -6 4.72945 1.19508   6
   2   0  -6 5.30787 0.97503   4
   2   0  -6 4.90930 1.13678   1
  -2   0   6 3.15605 0.95509   1
  -2   0   6 5.86689 1.04730   3
   1   0  -6 751.007 26.1312   6
   1   0  -6 757.968 25.8217   1
  -1   0   6 757.106 25.7607   6
  -1   0   6 750.919 25.8446   1
  -1   0   6 753.014 25.1945   3
   0   0  -6 338.245 12.5593   6
   0   0  -6 315.999 12.1049   1
   0   0   6 332.071 12.2294   1
   0   0   6 321.942 12.1628   6
   0   0   6 327.551 11.6751   3
  -1   0  -6 17.4195 2.04170   1
  -1   0  -6 16.3240 2.36170   6
   1   0   6 17.0589 2.23201   6
   1   0   6 13.7258 1.84094   1
  -2   0  -6 135.987 6.15326   1
  -2   0  -6 133.238 6.50337   6
   2   0   6 133.337 6.16585   1
   2   0   6 142.822 6.41993   6
  -3   0  -6 296.524 11.9392   6
  -3   0  -6 296.722 11.3992   1
   3   0   6 294.160 11.5421   1
   3   0   6 283.786 11.6791   6
  -4   0  -6 1.46280 1.01690   1
  -4   0  -6 1.88520 1.03903   6
   4   0   6 0.45730 0.84333   6
   4   0   6 2.24817 1.09872   1
  -5   0  -6 1.90337 1.04560   6
  -5   0  -6 3.07138 1.24309   1
   5   0   6 2.78883 1.34771   6
   5   0   6 2.04918 1.13741   1
  -6   0  -6 5.05472 1.59545   1
  -6   0  -6 3.06019 1.39181   1
   6   0   6 4.63928 1.53910   1
  -7   0  -6 15.3904 2.37003   2
  -7   0  -6 15.0612 2.50368   1
   7   0   6 17.4784 2.91284   1
  -8   0  -6 0.38216 1.09566   2
   8   0   6 1.59403 1.47624   1
  -9   0  -6 8.64511 2.17928   2
   9   0   6 5.55478 2.26261   1
   9  -1  -6 35.3132 3.82518   4
   9  -1  -6 28.5344 3.80783   1
  -9   1   6 27.9495 3.43340   2
   8  -1  -6 53.2904 4.27216   1
   8  -1  -6 53.8435 3.95324   4
   7  -1  -6 -0.6858 0.92624   4
   7  -1  -6 -0.5814 0.97526   1
  -7   1   6 -0.0511 0.92039   1
   6  -1  -6 71.5869 4.63891   6
   6  -1  -6 67.9729 4.56620   1
   6  -1  -6 74.8042 4.25700   4
  -6   1   6 73.1381 4.43033   1
   5  -1  -6 91.1007 4.60507   4
   5  -1  -6 101.317 5.28954   1
   5  -1  -6 80.4135 4.85068   6
  -5   1   6 93.7356 5.02025   1
  -5   1   6 93.0065 4.86570   3
   4  -1  -6 17.9894 2.01343   4
   4  -1  -6 15.1976 2.14917   1
   4  -1  -6 10.7701 1.89698   6
  -4   1   6 15.0540 2.06651   3
  -4   1   6 14.1809 2.09099   1
   3  -1  -6 502.854 17.7123   4
   3  -1  -6 476.449 17.9933   3
   3  -1  -6 545.916 18.4874   1
   3  -1  -6 512.310 18.6856   6
  -3   1   6 520.744 18.0456   3
  -3   1   6 503.871 18.4038   1
   2  -1  -6 16.7538 2.12513   1
   2  -1  -6 17.8264 1.70461   4
   2  -1  -6 15.4593 1.97464   6
  -2   1   6 16.0558 2.13224   1
  -2   1   6 15.0517 1.84629   3
   1  -1  -6 305.630 11.6485   1
   1  -1  -6 311.207 10.9175   4
   1  -1  -6 302.606 11.9741   6
  -1   1   6 299.137 11.2992   3
  -1   1   6 302.111 11.6615   6
  -1   1   6 315.152 11.8140   1
   0  -1  -6 117.644 6.01021   6
   0  -1  -6 126.740 5.73247   1
   0   1   6 133.912 5.94889   1
   0   1   6 122.213 5.84457   6
   0   1   6 125.479 5.57171   3
  -1  -1  -6 19.8513 2.15827   1
  -1  -1  -6 26.0407 2.96737   6
   1   1   6 20.0407 2.22492   6
   1   1   6 20.6833 2.38296   1
  -2  -1  -6 237.576 10.1426   6
  -2  -1  -6 247.294 9.81910   1
   2   1   6 251.639 10.0085   1
   2   1   6 234.182 10.0031   6
  -3  -1  -6 970.394 32.3596   1
  -3  -1  -6 936.434 32.8559   6
   3   1   6 931.853 32.8263   6
   3   1   6 931.443 32.5170   1
  -4  -1  -6 45.1445 3.57544   6
  -4  -1  -6 46.4486 3.38020   1
   4   1   6 43.0885 3.37150   1
   4   1   6 47.0289 3.66645   6
  -5  -1  -6 1.94149 1.17131   1
   5   1   6 1.91573 1.18640   1
  -6  -1  -6 47.9215 3.81925   1
  -6  -1  -6 54.7081 4.00260   1
   6   1   6 53.7535 4.19423   1
  -7  -1  -6 48.2925 4.30069   2
   7   1   6 53.7281 4.38232   1
  -8  -1  -6 2.18196 1.42704   2
   8   1   6 2.50072 1.69986   1
   9  -2  -6 83.9472 5.84124   1
   9  -2  -6 81.2470 5.29923   4
   8  -2  -6 43.5491 4.56564   1
   8  -2  -6 41.9924 4.03050   4
   7  -2  -6 59.5835 4.49794   1
   7  -2  -6 66.0476 4.25372   4
  -7   2   6 58.9347 4.34455   1
   6  -2  -6 207.843 8.99680   4
   6  -2  -6 224.096 9.79593   1
  -6   2   6 216.876 9.65271   1
  -6   2   6 221.398 9.60990   3
   5  -2  -6 7.59543 1.51011   4
   5  -2  -6 6.52408 1.91213   6
   5  -2  -6 11.4594 2.04915   1
  -5   2   6 11.3651 2.03505   1
  -5   2   6 10.6092 2.03778   3
   4  -2  -6 267.546 9.88599   4
   4  -2  -6 245.827 10.4950   6
   4  -2  -6 267.268 10.5845   1
   4  -2  -6 234.487 10.6075   6
  -4   2   6 253.973 10.5331   1
  -4   2   6 257.698 10.3961   3
   3  -2  -6 -0.6188 0.83271   1
   3  -2  -6 1.38390 0.71929   4
   3  -2  -6 0.44449 0.48703   6
   3  -2  -6 0.03138 0.68269   6
  -3   2   6 0.34086 0.86439   1
  -3   2   6 0.32736 0.88788   3
   2  -2  -6 0.73093 0.91626   6
   2  -2  -6 1.28267 0.98499   1
   2  -2  -6 2.39790 0.78661   4
   2  -2  -6 1.78598 0.85869   6
  -2   2   6 2.52349 1.03320   3
  -2   2   6 3.26719 1.18606   6
  -2   2   6 1.44325 1.05316   1
   1  -2  -6 52.6568 3.42170   1
   1  -2  -6 52.0033 2.64118   4
   1  -2  -6 47.6067 3.51872   6
  -1   2   6 50.0043 3.30684   3
  -1   2   6 58.3709 3.58126   1
  -1   2   6 51.6628 3.42291   6
   0  -2  -6 15.2995 2.10922   1
   0  -2  -6 12.7308 2.05942   6
   0  -2  -6 15.4083 1.42294   4
   0   2   6 14.8580 2.08693   3
   0   2   6 18.0704 2.35787   1
  -1  -2  -6 349.692 12.9988   1
  -1  -2  -6 321.991 13.2972   6
   1   2   6 329.133 13.2730   6
   1   2   6 346.988 13.1952   1
   1   2   6 352.536 13.1789   3
  -2  -2  -6 226.624 9.87641   6
  -2  -2  -6 233.248 9.57529   1
   2   2   6 233.285 9.77258   1
   2   2   6 229.855 9.89259   6
  -3  -2  -6 289.526 11.6130   1
  -3  -2  -6 291.029 11.9787   6
   3   2   6 305.637 12.0767   1
  -4  -2  -6 158.625 7.29733   1
  -4  -2  -6 148.480 7.38135   6
   4   2   6 164.457 7.68838   1
  -5  -2  -6 2.36027 1.19034   1
   5   2   6 1.03364 1.10675   1
  -6  -2  -6 3.66490 1.44864   2
   6   2   6 6.05142 1.92676   1
  -7  -2  -6 6.85389 1.85390   2
   7   2   6 8.51092 2.19981   1
  -8  -2  -6 3.54515 1.62084   2
   8   2   6 3.59869 1.81452   1
   9  -3  -6 1.21837 1.35368   4
   9  -3  -6 1.35149 1.73713   1
   8  -3  -6 34.1845 4.12390   1
   8  -3  -6 29.9612 3.44594   4
   7  -3  -6 41.9486 4.33770   1
   7  -3  -6 40.7400 3.74449   4
  -7   3   6 39.6653 4.25953   1
   6  -3  -6 6.58542 1.81137   1
   6  -3  -6 11.5725 1.95931   4
  -6   3   6 8.60026 2.15571   1
  -6   3   6 11.3869 2.35632   3
   5  -3  -6 90.0812 5.27136   1
   5  -3  -6 84.3350 4.50730   4
  -5   3   6 87.8410 5.22872   3
  -5   3   6 81.8218 5.17536   1
   4  -3  -6 500.536 17.2707   4
   4  -3  -6 493.041 18.1183   1
  -4   3   6 465.089 17.9960   3
  -4   3   6 471.737 18.1604   1
   3  -3  -6 73.5210 4.41428   1
   3  -3  -6 75.6276 3.68508   4
   3  -3  -6 62.8168 4.16545   6
   3  -3  -6 66.5486 4.47957   6
  -3   3   6 72.1051 4.49174   1
  -3   3   6 66.2040 4.33888   3
   2  -3  -6 208.175 7.68940   4
   2  -3  -6 200.176 8.68215   6
   2  -3  -6 190.401 8.89625   6
   2  -3  -6 208.419 8.70694   1
  -2   3   6 197.057 8.71279   3
  -2   3   6 186.596 8.66746   6
  -2   3   6 215.176 9.05758   1
   1  -3  -6 146.377 7.22259   6
   1  -3  -6 158.492 5.91800   4
   1  -3  -6 152.422 6.92975   6
   1  -3  -6 154.174 7.00826   1
  -1   3   6 149.812 7.14593   1
  -1   3   6 150.707 7.12885   3
  -1   3   6 136.305 6.93320   6
   0  -3  -6 0.54637 0.74060   6
   0  -3  -6 1.44391 0.58945   4
   0  -3  -6 0.91549 0.73176   6
   0  -3  -6 3.33822 1.20155   1
   0   3   6 0.26913 0.82019   6
   0   3   6 0.17933 1.12206   3
   0   3   6 2.09765 1.10457   1
  -1  -3  -6 83.2681 4.73608   1
  -1  -3  -6 84.3305 5.02181   6
  -1  -3  -6 83.9771 3.56019   4
   1   3   6 97.3172 5.19072   1
   1   3   6 92.0147 5.25412   3
  -2  -3  -6 71.7376 4.62971   6
  -2  -3  -6 75.9577 4.43926   1
   2   3   6 82.9354 4.84438   1
  -3  -3  -6 191.884 8.38139   1
   3   3   6 190.033 8.75838   1
  -4  -3  -6 2.33868 1.53243   1
   4   3   6 4.22663 1.52554   1
   5   3   6 22.2302 3.08378   1
  -6  -3  -6 54.3060 3.95419   2
   6   3   6 54.1963 5.10743   1
  -7  -3  -6 143.618 7.30572   2
   7   3   6 129.154 7.71269   1
   8  -4  -6 1.82873 1.52560   4
   8  -4  -6 7.63939 2.23529   1
  -8   4   6 0.29072 1.38813   1
   7  -4  -6 8.39677 2.25787   1
   7  -4  -6 7.71795 1.93555   4
  -7   4   6 3.99480 1.74292   1
  -7   4   6 5.98425 2.18202   3
   6  -4  -6 7.61888 1.74437   4
   6  -4  -6 5.10771 1.89315   1
  -6   4   6 5.02226 1.98464   3
  -6   4   6 6.69467 1.98983   1
   5  -4  -6 86.6268 5.40924   1
   5  -4  -6 90.0650 4.77888   4
  -5   4   6 89.3130 5.64171   3
  -5   4   6 94.0889 5.72322   1
   4  -4  -6 10.1171 2.15230   1
   4  -4  -6 6.48296 1.39363   4
  -4   4   6 10.5700 2.27199   1
  -4   4   6 10.6376 2.19792   3
   3  -4  -6 2.70772 1.39077   1
   3  -4  -6 1.97133 0.87694   4
  -3   4   6 3.30203 1.59939   3
  -3   4   6 0.33091 1.12973   1
   2  -4  -6 322.059 12.6453   1
   2  -4  -6 317.318 11.4203   4
  -2   4   6 318.756 13.0589   1
  -2   4   6 308.067 12.9493   3
   1  -4  -6 205.028 7.47669   4
   1  -4  -6 183.248 9.01299   6
   1  -4  -6 202.546 8.69682   1
  -1   4   6 203.149 9.24253   3
  -1   4   6 204.343 9.13644   1
   0  -4  -6 74.6636 3.14548   4
   0  -4  -6 66.4267 4.48383   6
   0  -4  -6 70.9129 4.38832   1
   0   4   6 69.2436 4.74251   3
   0   4   6 72.6971 4.66626   1
  -1  -4  -6 161.684 6.41646   4
  -1  -4  -6 171.158 7.70507   1
   1   4   6 177.034 8.51417   3
   1   4   6 175.765 8.21125   1
  -2  -4  -6 -1.1872 0.82796   1
   2   4   6 2.46517 1.57975   3
   2   4   6 -0.1449 0.93464   1
   3   4   6 1.00570 1.21765   1
   4   4   6 3.99678 1.65742   1
   5   4   6 1.34804 1.35521   1
  -6  -4  -6 28.8050 3.40269   2
   6   4   6 32.5510 4.09340   1
   7  -5  -6 1.70464 1.28702   4
   7  -5  -6 3.23969 1.81012   1
  -7   5   6 2.16251 1.90494   3
  -7   5   6 0.72649 1.62091   1
   6  -5  -6 -0.5770 1.17624   1
   6  -5  -6 0.06352 1.23119   4
  -6   5   6 0.17396 1.41212   1
  -6   5   6 -0.2677 1.34769   3
   5  -5  -6 42.7790 3.62947   4
   5  -5  -6 40.9994 4.31542   1
  -5   5   6 43.7869 4.70491   3
  -5   5   6 41.4525 4.32343   1
   4  -5  -6 31.1307 3.65891   1
   4  -5  -6 32.8921 2.94634   4
  -4   5   6 35.3292 4.12015   1
  -4   5   6 36.0339 4.41022   3
   3  -5  -6 3.30259 1.01698   4
   3  -5  -6 3.34625 1.48766   1
  -3   5   6 0.23943 1.44529   3
  -3   5   6 4.93259 1.85347   1
   2  -5  -6 17.4168 2.58775   1
   2  -5  -6 20.9500 1.93469   4
  -2   5   6 21.8806 3.04055   1
  -2   5   6 22.8374 3.21917   3
   1  -5  -6 1.08511 1.12480   1
  -1   5   6 -1.7894 0.84489   1
  -1   5   6 -0.7910 1.02936   3
   0   5   6 82.3047 5.25815   1
   0   5   6 78.2797 5.41903   3
   1   5   6 34.7704 3.85506   1
   1   5   6 31.9919 4.06264   3
   2   5   6 25.5574 3.33308   1
   2   5   6 37.6598 4.66906   3
   3   5   6 21.3825 3.24755   1
   3   5   6 13.6087 3.08967   3
   4   5   6 13.1878 2.64658   1
  -5  -5  -6 33.0716 3.44225   2
   5   5   6 34.6476 4.19552   1
   6  -6  -6 6.84465 1.78406   4
  -6   6   6 11.1441 2.78171   3
  -6   6   6 4.79382 2.12209   1
   5  -6  -6 0.77572 1.16707   4
  -5   6   6 -0.1294 1.37548   1
  -5   6   6 0.56851 1.53156   3
  -4   6   6 3.36443 1.69692   1
  -4   6   6 0.65261 1.53717   3
  -3   6   6 4.30954 1.81976   1
  -3   6   6 6.21213 2.40280   3
  -2   6   6 2.53206 1.64784   1
  -2   6   6 0.94699 1.47856   3
  -1   6   6 11.0696 2.39538   1
  -1   6   6 9.65763 2.57821   3
   0   6   6 8.38247 2.10995   1
   0   6   6 8.06737 2.51682   3
   1   6   6 -0.0427 1.28850   1
   1   6   6 2.23724 1.98285   3
   2   6   6 5.69537 1.95986   1
   2   6   6 7.02822 2.44843   3
   3   6   6 9.93118 2.83692   3
   3   6   6 15.3004 2.88783   1
   4   6   6 -1.6935 1.74767   3
   4   6   6 -1.6822 1.19092   1
  -4   7   6 5.00974 2.11175   1
  -4   7   6 9.66069 2.90713   3
  -3   7   6 1.39140 1.81322   3
  -3   7   6 0.36322 1.51171   1
  -2   7   6 2.74434 1.77991   1
  -2   7   6 5.72066 2.37828   3
  -1   7   6 3.38848 1.98142   3
  -1   7   6 1.01344 1.56428   1
   0   7   6 2.90794 1.77807   1
   0   7   6 2.12115 2.15287   3
   1   7   6 5.01247 2.09928   1
   1   7   6 3.63715 2.17642   3
   2   7   6 4.10176 2.37197   3
   0  11  -7 45.3275 2.96879   1
  -1  11  -7 2.45656 1.22243   1
   1  10  -7 73.9711 3.47155   1
   0  10  -7 2.40448 1.79456   3
   0  10  -7 1.22094 0.86592   6
   0  10  -7 0.92351 0.81504   1
  -1  10  -7 81.3588 5.06938   3
  -1  10  -7 88.7472 4.47571   1
  -1  10  -7 81.2657 4.62435   6
  -2  10  -7 18.5356 2.74238   3
  -2  10  -7 18.5687 2.37022   1
  -2  10  -7 16.1116 2.51100   6
  -3  10  -7 -0.5856 1.45516   3
  -3  10  -7 0.52566 1.04333   6
  -3  10  -7 0.66285 1.17039   1
  -4  10  -7 2.22809 1.45480   6
  -4  10  -7 2.98049 1.79949   3
  -4  10  -7 -0.4945 1.23705   1
   5   9  -7 41.9391 3.13200   4
   5   9  -7 46.0511 4.43751   5
   4   9  -7 0.12052 1.01452   5
   4   9  -7 -0.2044 0.82701   4
   3   9  -7 9.50934 1.60379   4
   2   9  -7 111.204 4.24211   1
   2   9  -7 112.967 6.05008   3
   1   9  -7 0.15907 0.93832   3
   1   9  -7 0.24862 0.53784   1
   0   9  -7 8.05778 1.31317   1
   0   9  -7 6.31638 1.66435   3
   0   9  -7 8.36800 1.32569   1
  -1   9  -7 171.627 6.95275   1
  -1   9  -7 156.756 7.07479   6
  -1   9  -7 162.355 7.45762   3
  -2   9  -7 30.7680 3.26939   3
  -2   9  -7 29.7897 3.26318   6
  -2   9  -7 30.9200 3.02590   1
  -3   9  -7 6.90665 1.76767   6
  -3   9  -7 6.15165 1.54478   1
  -3   9  -7 7.62783 1.78360   3
  -4   9  -7 91.0235 5.80682   6
  -4   9  -7 92.3169 5.38171   1
  -5   9  -7 0.92796 1.27276   1
  -6   9  -7 3.82871 1.80283   1
   6   8  -7 5.07730 1.45323   4
   6   8  -7 10.2723 2.23685   5
   6   8  -7 5.16617 1.08929   1
   5   8  -7 3.41757 0.73245   1
   5   8  -7 3.18804 1.51809   5
   5   8  -7 2.05721 1.06206   4
   4   8  -7 0.04585 0.87023   5
   4   8  -7 -0.3131 0.68277   4
   3   8  -7 30.5028 2.71776   4
   3   8  -7 33.0770 3.07173   3
   3   8  -7 32.9649 3.16579   5
   2   8  -7 4.02240 0.70439   1
   2   8  -7 4.59257 1.16021   5
   2   8  -7 6.11000 1.37968   3
   1   8  -7 22.5316 1.80604   5
   1   8  -7 22.3073 2.41210   3
   1   8  -7 19.8669 1.53957   1
   0   8  -7 40.7789 2.45168   1
   0   8  -7 40.3816 2.80614   3
  -1   8  -7 3.66644 1.15329   3
  -1   8  -7 2.25590 0.96920   6
  -1   8  -7 3.07634 1.05176   1
  -2   8  -7 1.84178 1.13714   3
  -2   8  -7 0.70218 0.89070   6
  -2   8  -7 0.52171 0.78132   1
  -2   8  -7 1.02879 0.92273   1
  -3   8  -7 8.29008 1.94773   6
  -3   8  -7 5.51983 1.54030   3
  -3   8  -7 7.33503 1.69325   1
  -4   8  -7 29.6434 3.23334   1
  -4   8  -7 27.3174 3.32474   6
  -4   8  -7 28.3060 2.50233   2
  -5   8  -7 -0.3162 0.80820   2
  -5   8  -7 0.09788 1.23044   6
  -5   8  -7 0.37321 1.15991   1
  -6   8  -7 47.9449 4.70281   1
  -6   8  -7 45.6995 3.31458   2
  -7   8  -7 44.5082 4.89853   1
  -7   8  -7 32.5050 3.33579   2
   7   7  -7 28.7836 2.20784   6
   7   7  -7 33.2055 2.56597   1
   7   7  -7 31.3421 3.14228   4
   7   7  -7 27.2149 3.63721   5
   6   7  -7 76.6813 3.83847   1
   6   7  -7 80.8404 5.38176   5
   6   7  -7 85.3820 4.61611   4
   5   7  -7 25.2128 1.79821   1
   5   7  -7 23.4616 2.60398   4
   4   7  -7 27.8876 2.70574   4
   4   7  -7 29.0914 2.72289   3
   4   7  -7 26.8368 1.70176   1
   3   7  -7 42.0665 2.06994   1
   3   7  -7 39.7100 2.69906   3
   2   7  -7 7.11358 1.27354   3
   2   7  -7 9.86631 1.07732   1
   1   7  -7 2.78300 0.87400   3
   1   7  -7 2.04213 0.69130   1
   0   7  -7 4.19689 1.05098   3
   0   7  -7 3.44447 0.81443   6
   0   7  -7 3.55906 0.89888   1
  -1   7  -7 269.297 9.97225   1
  -1   7  -7 256.827 9.85187   3
  -1   7  -7 258.290 10.0189   6
  -2   7  -7 30.5918 3.10084   6
  -2   7  -7 32.1964 2.97507   1
  -2   7  -7 31.3872 2.37330   3
  -3   7  -7 12.8864 2.06631   1
  -3   7  -7 15.4385 2.14979   1
  -3   7  -7 14.0000 2.37177   6
  -4   7  -7 179.704 8.11821   1
  -4   7  -7 170.185 8.44182   6
  -5   7  -7 46.8648 4.21670   6
  -5   7  -7 56.5650 4.09400   1
  -5   7  -7 49.2367 3.28176   2
  -6   7  -7 10.5233 1.83176   2
  -6   7  -7 10.3657 2.31223   1
  -7   7  -7 5.39111 1.59421   2
  -7   7  -7 4.64835 1.75553   1
  -8   7  -7 26.6684 4.09837   1
  -8   7  -7 22.8679 3.08914   2
   8   6  -7 141.769 6.85985   6
   8   6  -7 150.188 6.95963   1
   8   6  -7 161.096 7.43574   4
   7   6  -7 184.857 7.65250   1
   7   6  -7 176.737 8.00221   4
   7   6  -7 176.877 7.36107   6
   6   6  -7 41.9121 3.62510   4
   6   6  -7 45.0388 2.86766   1
   5   6  -7 384.546 14.4612   4
   5   6  -7 391.892 13.7089   1
   4   6  -7 8.43027 1.16249   1
   4   6  -7 11.1077 1.71980   4
   3   6  -7 1.36834 0.58590   1
   3   6  -7 0.58428 0.65425   3
   3   6  -7 0.30614 0.49508   1
   2   6  -7 1.18636 0.58841   1
   2   6  -7 1.84308 0.66463   1
   2   6  -7 2.58332 0.71157   3
   1   6  -7 7.54622 1.11417   1
   1   6  -7 5.73490 0.97338   1
   1   6  -7 6.01569 0.92290   3
   0   6  -7 16.2868 1.61690   6
   0   6  -7 15.6159 1.66643   1
   0   6  -7 18.2047 1.78846   1
   0   6  -7 16.7320 1.35996   3
  -1   6  -7 8.63474 1.34856   1
  -1   6  -7 7.00249 1.42532   6
  -1   6  -7 4.46189 1.07854   1
   1  -6   7 8.08202 1.22392   3
  -2   6  -7 91.8998 4.56143   1
  -2   6  -7 85.2140 4.71533   6
   2  -6   7 87.5725 4.23803   3
  -3   6  -7 1.02185 0.36749   5
  -3   6  -7 -0.2080 0.79911   6
  -3   6  -7 0.61893 0.89791   1
  -4   6  -7 72.1986 4.35673   1
  -4   6  -7 61.4813 4.47783   6
  -4   6  -7 64.6462 4.18447   1
  -5   6  -7 18.4114 2.72151   1
  -5   6  -7 14.4863 2.40899   6
  -6   6  -7 45.7556 4.42242   1
  -6   6  -7 40.7332 3.62928   2
  -7   6  -7 26.6076 3.09722   2
  -7   6  -7 20.7841 3.18011   1
  -8   6  -7 13.0975 2.74797   1
  -8   6  -7 17.0136 2.71773   2
   8   5  -7 -1.0792 0.93403   4
   8   5  -7 1.10365 1.13201   1
   8   5  -7 -0.1594 0.84220   6
   7   5  -7 -0.7220 0.84078   4
   7   5  -7 -0.3318 0.74538   1
   7   5  -7 -0.0627 0.63984   6
   6   5  -7 111.500 5.57465   4
   6   5  -7 109.451 5.16473   1
   5   5  -7 4.02843 1.15200   4
   5   5  -7 3.49039 0.99546   1
   4   5  -7 58.0877 3.10893   1
   4   5  -7 65.5836 3.61499   4
   3   5  -7 136.856 5.32363   1
   3   5  -7 124.014 5.27746   1
   3   5  -7 128.526 5.71311   4
   3   5  -7 130.310 4.99741   3
   2   5  -7 39.3721 2.26588   1
   2   5  -7 37.1755 2.26247   1
   1   5  -7 62.5217 2.87043   6
   1   5  -7 56.9834 3.01116   1
   1   5  -7 60.8211 3.06592   1
   0   5  -7 223.004 8.35424   1
   0   5  -7 226.201 8.33112   6
   0   5  -7 205.953 8.29179   1
  -1   5  -7 87.1563 4.30991   1
  -1   5  -7 92.1797 4.55107   6
  -1   5  -7 97.8659 4.50696   1
   1  -5   7 91.2404 3.69335   1
   1  -5   7 92.3230 3.80406   3
  -2   5  -7 0.64588 0.84006   6
  -2   5  -7 -0.0676 0.67657   1
  -2   5  -7 0.86980 0.77736   1
   2  -5   7 0.22118 0.57274   3
   2  -5   7 -0.0357 0.34093   1
  -3   5  -7 3.41925 1.35024   6
  -3   5  -7 2.10401 0.69843   5
  -3   5  -7 1.85898 0.97874   1
   3  -5   7 2.22755 0.96754   3
   3  -5   7 2.19127 0.86614   1
  -4   5  -7 51.4975 2.69670   5
  -4   5  -7 52.6834 4.02170   6
  -4   5  -7 61.2099 3.89167   1
   4  -5   7 55.5260 3.37329   1
  -5   5  -7 2.75674 1.35656   1
  -5   5  -7 3.13511 1.38515   1
  -5   5  -7 3.31131 1.41730   6
   5  -5   7 1.08808 0.94044   1
  -6   5  -7 16.9461 2.35295   2
  -6   5  -7 20.1977 3.01559   1
   6  -5   7 13.9733 3.03026   1
  -7   5  -7 0.44775 1.29938   1
  -7   5  -7 2.73183 1.35302   2
  -8   5  -7 -1.7882 1.20911   1
  -8   5  -7 -0.7214 1.03334   2
   9   4  -7 54.9548 4.21160   1
   9   4  -7 54.0563 4.65224   4
   8   4  -7 18.9947 2.65456   4
   8   4  -7 19.6958 2.72658   1
   7   4  -7 43.4395 3.82445   4
   7   4  -7 41.4610 3.06483   6
   7   4  -7 45.3009 3.25115   1
   6   4  -7 72.8468 4.05990   1
   6   4  -7 77.2910 4.30623   4
   5   4  -7 43.7626 2.99219   4
   5   4  -7 42.3439 2.80817   1
   4   4  -7 160.113 6.76865   4
   4   4  -7 145.198 7.28295   1
   4   4  -7 151.786 5.92812   3
   4   4  -7 166.063 6.53170   1
   3   4  -7 184.369 7.30718   1
   3   4  -7 192.576 7.60487   4
   3   4  -7 191.062 7.30418   1
   3   4  -7 182.227 6.43505   3
   2   4  -7 12.6923 1.40494   6
   2   4  -7 9.25069 1.30984   1
   2   4  -7 13.7605 1.58399   1
   1   4  -7 677.237 22.4312   6
   1   4  -7 673.025 22.4221   1
   1   4  -7 633.978 22.4155   1
  -1  -4   7 651.209 21.4909   1
   0   4  -7 579.521 20.5392   1
   0   4  -7 597.733 20.5150   1
   0   4  -7 604.404 20.6169   6
   0  -4   7 601.838 19.9273   1
  -1   4  -7 147.477 6.09133   1
  -1   4  -7 132.785 5.97780   1
  -1   4  -7 142.792 6.27549   6
   1  -4   7 137.157 5.07603   3
  -2   4  -7 116.261 5.31000   1
  -2   4  -7 101.023 5.44207   6
   2  -4   7 106.847 4.53160   3
   2  -4   7 115.425 4.96059   1
  -3   4  -7 3.54188 1.18400   1
  -3   4  -7 5.04010 1.53670   6
  -3   4  -7 3.96180 0.92543   5
   3  -4   7 4.88316 1.19865   1
   3  -4   7 4.12323 1.03460   3
  -4   4  -7 3.69744 1.31072   1
  -4   4  -7 3.44711 1.20562   6
  -4   4  -7 1.71586 0.79903   5
   4  -4   7 3.16285 1.09768   1
  -5   4  -7 23.9753 2.99951   1
  -5   4  -7 26.9538 3.35906   6
  -5   4  -7 22.1303 2.17780   5
  -5   4  -7 23.0429 2.95021   1
   5  -4   7 24.8132 2.88940   1
  -6   4  -7 0.88885 1.09480   1
  -6   4  -7 0.13363 1.07762   1
   6  -4   7 -0.2139 0.82126   1
  -7   4  -7 -1.3614 1.06361   1
  -7   4  -7 -0.1414 0.95212   2
   7  -4   7 3.33708 1.48517   1
  -8   4  -7 -0.7138 1.01765   2
  -8   4  -7 0.70426 1.30063   1
   8  -4   7 0.07944 1.08372   1
  -9   4  -7 3.02664 1.70212   2
  -9   4  -7 2.21273 1.56304   1
   9   3  -7 81.2295 5.26817   4
   9   3  -7 90.0514 5.51395   1
   8   3  -7 8.15580 1.86662   4
   8   3  -7 8.87117 2.06219   1
   7   3  -7 187.733 7.92041   1
   7   3  -7 168.492 7.70104   4
   7   3  -7 159.318 7.61416   6
   6   3  -7 20.1584 2.37289   4
   6   3  -7 20.1543 2.39935   1
   5   3  -7 54.5185 3.35265   4
   5   3  -7 46.8248 2.99800   3
   5   3  -7 56.2959 3.29899   1
   4   3  -7 180.606 6.86274   3
   4   3  -7 197.160 7.65053   1
   4   3  -7 175.368 7.47111   1
   4   3  -7 196.183 7.77333   4
  -4  -3   7 183.056 6.83856   1
   3   3  -7 67.9877 3.63039   1
   3   3  -7 66.2853 3.59530   1
   3   3  -7 74.3099 3.64884   6
   3   3  -7 72.7926 3.71953   4
  -3  -3   7 69.2606 3.04243   1
   2   3  -7 578.607 21.2912   1
   2   3  -7 646.898 21.3813   1
   2   3  -7 651.019 21.3737   6
  -2  -3   7 603.148 20.7321   1
   1   3  -7 291.880 11.2952   1
   1   3  -7 325.901 11.4909   6
   1   3  -7 302.068 11.2785   1
   0   3  -7 35.9007 2.57686   6
   0   3  -7 29.5485 2.28125   1
   0   3  -7 39.9592 2.51069   1
   0  -3   7 36.6937 2.22022   1
  -1   3  -7 0.22752 0.67293   1
  -1   3  -7 0.14725 0.63396   6
   1  -3   7 0.64827 0.56390   1
   1  -3   7 1.08876 0.43397   3
  -2   3  -7 80.6225 4.57363   6
  -2   3  -7 88.6071 4.34804   1
   2  -3   7 77.5961 3.49688   3
   2  -3   7 70.2866 3.87850   1
  -3   3  -7 35.7697 2.76334   1
  -3   3  -7 34.9499 3.04538   6
   3  -3   7 30.6673 2.23007   3
   3  -3   7 36.8110 2.64360   1
  -4   3  -7 334.598 13.2241   5
  -4   3  -7 379.778 14.0194   1
  -4   3  -7 355.391 14.4693   6
   4  -3   7 377.671 13.8939   1
  -5   3  -7 1.14927 1.28947   6
  -5   3  -7 1.31729 1.07444   1
   5  -3   7 0.43582 0.84167   1
  -6   3  -7 80.1429 5.01226   1
  -6   3  -7 76.7642 4.98327   1
   6  -3   7 65.1826 4.55678   1
  -7   3  -7 51.5416 3.90065   2
  -7   3  -7 54.5722 4.39583   1
   7  -3   7 53.8625 4.16675   1
  -8   3  -7 8.20419 2.06287   2
  -8   3  -7 12.0276 2.71131   1
   8  -3   7 8.82477 2.25411   1
  -9   3  -7 0.82403 1.58119   1
  -9   3  -7 0.10309 1.24016   2
   9  -3   7 -1.4915 1.24063   1
   9   2  -7 4.36523 1.74640   4
   9   2  -7 2.43644 1.34559   1
   8   2  -7 6.09903 1.73090   4
   8   2  -7 3.84052 1.54067   1
   7   2  -7 66.4673 4.35996   1
   7   2  -7 66.9355 4.21901   4
   6   2  -7 1.02672 0.76646   6
   6   2  -7 1.73404 1.03285   1
   6   2  -7 1.71883 1.02960   4
   5   2  -7 102.291 4.90402   1
   5   2  -7 77.7140 4.12816   3
   5   2  -7 90.0471 4.58107   4
   4   2  -7 29.7917 1.96900   3
   4   2  -7 30.9713 2.68492   4
   4   2  -7 38.3460 2.69679   1
   4   2  -7 34.8903 2.62748   6
   3   2  -7 6.58649 1.31771   1
   3   2  -7 5.14706 1.09010   4
   3   2  -7 7.60875 1.48382   6
   3   2  -7 5.10645 1.18654   1
   3   2  -7 6.00145 0.80988   3
  -3  -2   7 6.44699 1.15719   1
   2   2  -7 528.232 19.6670   1
   2   2  -7 564.410 19.8405   6
   2   2  -7 570.736 19.7435   1
  -2  -2   7 588.001 19.4868   1
   1   2  -7 415.526 14.8377   1
   1   2  -7 411.090 15.0483   6
  -1  -2   7 407.881 14.6145   1
   0   2  -7 101.745 4.82016   1
   0   2  -7 102.100 5.09077   6
   0  -2   7 97.7349 4.66863   1
   0  -2   7 106.037 3.73634   3
   0  -2   7 101.775 4.39809   6
  -1   2  -7 311.357 11.7516   1
  -1   2  -7 322.258 12.2026   6
   1  -2   7 316.058 11.6640   1
   1  -2   7 294.711 11.3596   6
  -2   2  -7 116.424 5.47993   1
  -2   2  -7 105.688 5.68045   6
   2  -2   7 109.801 5.25711   1
   2  -2   7 109.087 5.23108   6
  -3   2  -7 15.1143 2.51488   6
  -3   2  -7 13.0677 2.04794   1
   3  -2   7 16.1216 2.21660   1
   3  -2   7 18.6375 2.31867   6
  -4   2  -7 190.541 9.19739   6
  -4   2  -7 201.101 8.82264   1
   4  -2   7 201.517 8.91696   6
   4  -2   7 217.687 8.87835   1
  -5   2  -7 0.81068 1.08505   1
   5  -2   7 2.10720 1.14198   1
   5  -2   7 3.76419 1.40162   6
  -6   2  -7 0.94314 1.17201   1
  -6   2  -7 1.74237 1.16356   1
   6  -2   7 0.51613 1.01243   1
  -7   2  -7 64.3897 4.44361   2
  -7   2  -7 65.9394 4.87297   1
   7  -2   7 72.2109 4.97675   1
  -8   2  -7 18.5051 2.84618   2
  -8   2  -7 17.7723 3.02704   1
   8  -2   7 27.2781 3.83361   1
  -9   2  -7 23.1593 3.40234   2
   9  -2   7 26.3136 3.85524   1
   9   1  -7 31.3459 3.62371   4
   9   1  -7 29.5562 3.71171   1
   8   1  -7 93.0393 5.69641   1
   8   1  -7 92.5093 5.39893   4
   7   1  -7 -0.7150 0.77216   4
   7   1  -7 0.54033 1.11403   1
   6   1  -7 0.06251 0.65278   6
   6   1  -7 0.29570 0.87981   4
   6   1  -7 -1.4311 0.68470   1
   5   1  -7 2.10400 0.94589   4
   5   1  -7 2.43622 1.07736   6
   5   1  -7 3.43867 1.76256   3
   5   1  -7 1.58618 0.99082   1
  -5  -1   7 2.57075 0.95305   1
   4   1  -7 322.759 12.2476   3
   4   1  -7 356.207 12.7931   4
   4   1  -7 343.296 13.0060   1
   4   1  -7 350.767 13.2096   6
  -4  -1   7 341.142 12.7479   1
   3   1  -7 16.9856 1.58960   3
   3   1  -7 21.0151 2.55454   6
   3   1  -7 16.4258 2.08696   1
   3   1  -7 18.5022 1.96316   4
  -3  -1   7 14.5665 1.88273   1
   2   1  -7 4.85753 1.01882   4
   2   1  -7 3.89558 1.17449   1
   2   1  -7 4.01967 1.05184   6
  -2  -1   7 4.15995 0.79120   3
  -2  -1   7 4.02438 1.05130   1
   1   1  -7 2.38515 0.91025   1
   1   1  -7 4.23525 1.36219   6
  -1  -1   7 4.16306 1.10062   1
  -1  -1   7 3.56066 0.70313   3
   0   1  -7 34.3290 2.56923   1
   0   1  -7 34.0905 2.79084   6
   0  -1   7 35.4419 2.56774   1
   0  -1   7 33.1173 2.33345   6
   0  -1   7 32.6309 1.90608   3
  -1   1  -7 188.685 8.32597   6
  -1   1  -7 189.855 7.89026   1
   1  -1   7 179.647 7.77108   6
   1  -1   7 191.776 7.86687   1
  -2   1  -7 2.49156 1.07630   1
  -2   1  -7 1.44775 0.99802   6
   2  -1   7 1.28361 0.85747   6
   2  -1   7 0.62965 0.82426   1
  -3   1  -7 506.929 18.3891   1
  -3   1  -7 476.619 18.8846   6
   3  -1   7 535.741 18.5719   1
   3  -1   7 495.869 18.5944   6
  -4   1  -7 -0.7831 0.76152   6
  -4   1  -7 1.01022 1.01346   1
   4  -1   7 1.67715 1.04936   6
   4  -1   7 -0.8541 0.68636   1
  -5   1  -7 0.75522 1.01705   1
   5  -1   7 0.81948 1.03886   1
  -6   1  -7 124.807 6.57557   1
  -6   1  -7 117.661 6.51082   1
   6  -1   7 118.291 6.53927   1
  -7   1  -7 8.46236 2.09051   1
  -7   1  -7 13.7380 2.36063   2
   7  -1   7 10.8242 2.51992   1
  -8   1  -7 28.6308 3.52488   2
  -8   1  -7 36.7937 4.51274   1
   8  -1   7 33.2886 4.27371   1
   9   0  -7 31.6377 3.96099   1
   9   0  -7 27.5676 3.54983   4
   8   0  -7 40.6421 4.28323   1
   8   0  -7 38.5744 3.84791   4
   7   0  -7 33.5634 3.71113   1
   7   0  -7 32.3777 3.41627   4
   6   0  -7 106.834 5.96023   6
   6   0  -7 108.131 5.44905   4
   6   0  -7 102.840 5.70126   1
   5   0  -7 38.2059 3.25632   6
   5   0  -7 43.4339 3.38319   1
   5   0  -7 47.2181 3.31323   6
   5   0  -7 42.0308 2.98763   4
  -5   0   7 40.2947 3.12872   1
   4   0  -7 90.2635 4.47312   4
   4   0  -7 88.7661 4.98373   6
   4   0  -7 89.6759 4.89519   1
   4   0  -7 88.4182 4.40950   3
  -4   0   7 89.9494 4.76371   1
  -4   0   7 90.7127 4.38215   3
   3   0  -7 239.070 9.35694   1
   3   0  -7 222.087 8.71996   4
   3   0  -7 219.023 9.48179   6
   3   0  -7 211.210 8.54821   3
  -3   0   7 224.767 9.13784   1
  -3   0   7 230.950 8.62386   3
   2   0  -7 39.4003 2.88914   1
   2   0  -7 31.5283 2.31536   4
   2   0  -7 36.2954 2.94478   6
  -2   0   7 39.3534 2.37336   3
  -2   0   7 38.9887 2.85165   1
   1   0  -7 50.8249 3.48942   6
   1   0  -7 52.0479 3.31279   1
  -1   0   7 50.0158 2.77016   3
  -1   0   7 48.5329 3.12421   6
  -1   0   7 52.4150 3.30640   1
   0   0  -7 79.0497 4.36139   1
   0   0  -7 85.2367 4.82346   6
   0   0   7 80.6083 3.89752   3
   0   0   7 76.3404 4.26238   6
   0   0   7 86.6883 4.51068   1
  -1   0  -7 9.69818 1.97507   6
  -1   0  -7 10.9225 1.71143   1
   1   0   7 6.70617 1.55644   1
   1   0   7 5.13480 1.09913   6
  -2   0  -7 195.323 8.33025   1
   2   0   7 192.036 8.35845   1
   2   0   7 189.902 8.47083   6
  -3   0  -7 552.861 19.4834   1
  -3   0  -7 523.152 19.9581   6
   3   0   7 531.861 19.5470   1
   3   0   7 519.911 19.7081   6
  -4   0  -7 38.0208 4.96743   6
  -4   0  -7 35.8381 3.50045   1
   4   0   7 45.1053 4.13622   1
   4   0   7 38.0740 4.29484   6
  -5   0  -7 174.224 8.13900   1
   5   0   7 165.138 8.17770   1
  -6   0  -7 258.267 10.9189   1
  -6   0  -7 228.228 10.6525   1
   6   0   7 253.303 11.0610   1
  -7   0  -7 -0.3497 1.04803   2
  -7   0  -7 0.30656 1.11710   1
   7   0   7 -0.2491 1.04563   1
  -8   0  -7 85.9645 5.60365   2
   8   0   7 84.9895 6.06993   1
   9  -1  -7 -2.0391 1.02833   4
   9  -1  -7 -0.4307 1.47204   1
   8  -1  -7 106.208 6.04743   4
   8  -1  -7 109.788 6.58054   1
   7  -1  -7 13.8553 2.30196   4
   7  -1  -7 10.5493 2.20307   1
   6  -1  -7 2.29505 1.15426   4
   6  -1  -7 2.47228 1.42603   1
  -6   1   7 2.03826 1.28139   1
   5  -1  -7 75.0043 4.61209   1
   5  -1  -7 65.7782 4.48868   6
   5  -1  -7 74.4043 4.04319   4
  -5   1   7 66.2060 4.08011   3
  -5   1   7 67.0138 4.31723   1
   4  -1  -7 239.807 9.97683   1
   4  -1  -7 227.974 10.0954   6
   4  -1  -7 225.914 9.19808   4
  -4   1   7 231.300 9.43981   3
  -4   1   7 238.225 9.85362   1
   3  -1  -7 41.8944 4.24219   6
   3  -1  -7 34.8857 2.42215   4
   3  -1  -7 38.9605 3.63120   1
  -3   1   7 35.8648 3.36226   1
  -3   1   7 33.9618 2.65556   3
   2  -1  -7 37.4555 2.43477   4
   2  -1  -7 39.2649 3.25800   6
   2  -1  -7 42.0889 3.20588   1
  -2   1   7 44.7286 3.16329   1
  -2   1   7 36.8188 2.68770   3
   1  -1  -7 2.93508 0.85672   4
   1  -1  -7 1.52556 1.00443   6
   1  -1  -7 1.82338 1.21290   1
  -1   1   7 3.52456 1.09364   3
  -1   1   7 2.25955 0.92030   6
  -1   1   7 2.64887 1.18287   1
   0  -1  -7 70.7110 4.53765   6
   0  -1  -7 73.0123 4.32078   1
   0   1   7 77.1035 4.40684   1
   0   1   7 68.5273 4.21218   6
   0   1   7 80.2773 4.10341   3
  -1  -1  -7 94.5012 5.08810   1
  -1  -1  -7 94.8708 5.45620   6
   1   1   7 96.9351 5.25520   1
   1   1   7 92.6206 5.21683   6
   1   1   7 104.347 5.04646   3
  -2  -1  -7 50.5231 3.50903   1
  -2  -1  -7 39.3003 3.50326   6
   2   1   7 41.8985 3.39508   6
   2   1   7 37.3069 3.64570   1
  -3  -1  -7 111.689 5.80086   1
  -3  -1  -7 115.474 6.33298   6
   3   1   7 115.750 6.03746   1
   3   1   7 110.741 6.23367   6
  -4  -1  -7 63.3937 4.29274   1
   4   1   7 68.7334 4.54105   1
  -5  -1  -7 211.192 9.51466   1
   5   1   7 211.010 9.76360   1
  -6  -1  -7 69.4147 4.74148   1
  -6  -1  -7 69.1084 4.77586   1
   6   1   7 63.9977 4.81465   1
  -7  -1  -7 10.6980 2.33128   2
   7   1   7 11.2731 2.65596   1
  -8  -1  -7 16.1447 2.82634   2
   8   1   7 20.3092 3.52071   1
   8  -2  -7 4.02643 1.70372   1
   8  -2  -7 3.81041 1.56833   4
   7  -2  -7 27.9139 3.16047   4
   7  -2  -7 28.0950 3.66593   1
   6  -2  -7 0.92136 0.98820   4
   6  -2  -7 -0.1169 1.13839   1
  -6   2   7 1.77278 1.28382   1
  -6   2   7 0.82554 1.30863   3
   5  -2  -7 51.8748 3.34049   4
   5  -2  -7 47.5528 3.88579   1
  -5   2   7 47.9072 3.75367   3
  -5   2   7 49.0409 3.87760   1
   4  -2  -7 31.0564 3.33920   1
   4  -2  -7 31.3836 2.81238   4
  -4   2   7 31.8194 3.39449   1
  -4   2   7 30.7383 3.32527   3
   3  -2  -7 12.8027 1.72718   4
   3  -2  -7 8.48665 1.86757   1
   3  -2  -7 8.39689 2.01179   6
  -3   2   7 8.77149 1.86499   1
  -3   2   7 11.1678 2.03915   3
   2  -2  -7 2.06384 0.83000   4
   2  -2  -7 1.38004 1.07130   1
   2  -2  -7 0.33329 0.60868   6
   2  -2  -7 1.65676 1.07837   6
  -2   2   7 1.12464 0.87345   6
  -2   2   7 2.16995 1.07112   1
  -2   2   7 1.58404 1.09407   3
   1  -2  -7 38.8355 2.46982   4
   1  -2  -7 44.3291 3.63930   6
   1  -2  -7 48.6448 3.45679   1
  -1   2   7 48.0305 3.39065   6
  -1   2   7 45.9360 3.53285   1
  -1   2   7 43.2631 3.19591   3
   0  -2  -7 50.5505 3.61323   1
   0  -2  -7 47.6811 3.81228   6
   0  -2  -7 48.6263 2.64995   4
   0   2   7 54.2828 3.80785   1
   0   2   7 49.9125 3.48507   3
  -1  -2  -7 69.3001 4.63175   6
  -1  -2  -7 74.7446 4.39537   1
   1   2   7 66.3788 4.24043   3
   1   2   7 67.3561 4.38304   1
  -2  -2  -7 222.504 9.40189   1
  -2  -2  -7 207.780 10.1640   6
   2   2   7 213.699 9.52222   1
  -3  -2  -7 30.1697 3.19761   1
   3   2   7 36.9021 3.95796   1
  -4  -2  -7 25.1707 3.02552   1
   4   2   7 25.0181 3.13626   1
   5   2   7 33.8139 3.92490   1
   6   2   7 -1.7410 1.13549   1
  -7  -2  -7 32.0991 3.68544   2
   7   2   7 35.9490 4.41790   1
   8  -3  -7 -0.7841 1.24882   4
   8  -3  -7 0.43649 1.61155   1
   7  -3  -7 0.40375 1.35696   1
   7  -3  -7 -0.4593 1.06264   4
  -7   3   7 -0.4314 1.25654   1
   6  -3  -7 6.05119 1.66458   4
   6  -3  -7 10.2532 2.42898   1
  -6   3   7 8.36790 2.22836   3
  -6   3   7 6.60202 1.80122   1
   5  -3  -7 59.2237 3.71101   4
   5  -3  -7 49.3293 4.07315   1
  -5   3   7 58.1415 4.42847   1
  -5   3   7 54.4222 4.12986   3
   4  -3  -7 125.647 6.68404   1
   4  -3  -7 129.568 5.85710   4
  -4   3   7 123.019 6.52076   3
  -4   3   7 117.962 6.65759   1
   3  -3  -7 60.2878 4.24346   1
   3  -3  -7 63.0120 3.48593   4
  -3   3   7 59.9979 4.21478   3
  -3   3   7 64.3887 4.40770   1
   2  -3  -7 4.46559 1.48605   1
   2  -3  -7 3.43458 0.99944   4
  -2   3   7 4.76371 1.65786   1
  -2   3   7 2.77149 1.50190   3
   1  -3  -7 5.16110 1.05373   4
   1  -3  -7 3.36307 1.33655   6
   1  -3  -7 5.69990 1.50640   1
  -1   3   7 4.54063 1.50797   3
  -1   3   7 4.12951 1.50810   1
   0  -3  -7 7.85098 1.77785   1
   0  -3  -7 5.01262 0.94770   4
   0  -3  -7 6.81067 1.76803   6
   0   3   7 3.85512 1.53902   3
   0   3   7 4.18422 1.47867   1
  -1  -3  -7 15.0049 1.47737   4
  -1  -3  -7 17.9218 2.50955   1
   1   3   7 14.8288 2.44783   1
   1   3   7 16.8409 2.60756   3
  -2  -3  -7 15.8054 1.43954   4
  -2  -3  -7 16.1843 2.43253   1
   2   3   7 21.7710 3.03161   1
   2   3   7 18.1948 2.89640   3
  -3  -3  -7 -0.0856 0.99443   1
   3   3   7 0.67919 1.24813   1
   4   3   7 72.7063 5.06497   1
   5   3   7 1.36811 1.48406   1
  -6  -3  -7 15.7735 2.69420   2
   6   3   7 13.1454 2.81237   1
   7  -4  -7 0.17634 1.32592   1
   7  -4  -7 0.19857 1.15863   4
  -7   4   7 -3.1448 1.27515   3
  -7   4   7 -0.0456 1.28036   1
   6  -4  -7 3.86674 1.50942   4
   6  -4  -7 5.10622 1.90131   1
  -6   4   7 4.78939 2.00941   3
  -6   4   7 2.16148 1.61526   1
   5  -4  -7 16.2255 2.26529   4
   5  -4  -7 11.6743 2.40488   1
  -5   4   7 13.2424 2.60916   1
  -5   4   7 17.4285 2.98335   3
   4  -4  -7 33.3005 3.78960   1
   4  -4  -7 36.9577 3.16691   4
  -4   4   7 26.7193 3.50393   1
  -4   4   7 40.0896 4.36139   3
   3  -4  -7 2.86858 1.04426   4
   3  -4  -7 4.14768 1.59794   1
  -3   4   7 1.80040 1.55016   3
  -3   4   7 3.91052 1.58447   1
   2  -4  -7 17.7370 2.76687   1
   2  -4  -7 14.6970 1.73244   4
  -2   4   7 19.5094 2.92110   3
  -2   4   7 15.3964 2.66407   1
   1  -4  -7 1.94940 1.26217   1
   1  -4  -7 2.05332 0.78845   4
  -1   4   7 1.25222 1.17962   1
  -1   4   7 0.35948 1.13569   3
   0  -4  -7 59.4349 4.18460   1
   0   4   7 58.3953 4.48035   3
   0   4   7 64.7307 4.67483   1
  -1  -4  -7 3.96365 1.48990   1
   1   4   7 1.90152 1.49156   3
   1   4   7 2.47262 1.35725   1
   2   4   7 2.39847 1.50383   1
   2   4   7 0.62081 1.31836   3
   3   4   7 3.47922 1.84075   3
   3   4   7 -0.4097 1.15963   1
   4   4   7 0.61384 1.37783   1
   5   4   7 0.43790 1.27075   1
   6  -5  -7 -0.5256 1.51711   1
   6  -5  -7 -0.2362 1.10732   4
  -6   5   7 -0.5844 1.38577   1
  -6   5   7 -0.5605 1.53978   3
   5  -5  -7 15.5652 2.21126   4
   5  -5  -7 13.8408 2.69932   1
  -5   5   7 16.7579 3.28654   3
  -5   5   7 13.8102 2.76541   1
   4  -5  -7 4.89210 1.37124   4
   4  -5  -7 3.88517 1.65706   1
  -4   5   7 2.65768 1.63581   1
  -4   5   7 3.59885 1.87083   3
   3  -5  -7 0.95056 1.48666   1
  -3   5   7 0.33346 1.31068   1
  -3   5   7 0.25999 1.32596   3
  -2   5   7 4.26695 1.77394   3
  -2   5   7 6.59447 2.01697   1
  -1   5   7 26.6300 3.55880   1
  -1   5   7 27.1046 3.81040   3
   0   5   7 0.16614 1.54671   3
   0   5   7 -0.0433 1.15165   1
   1   5   7 -0.7223 0.96528   1
   1   5   7 0.32466 1.43198   3
   2   5   7 5.01479 2.00092   3
   2   5   7 1.89371 1.42100   1
   3   5   7 4.60822 1.79711   1
   3   5   7 2.34261 1.72903   3
   4   5   7 0.91084 1.46518   1
   4   5   7 -0.7033 1.71084   3
  -4   6   7 9.84029 2.59183   1
  -4   6   7 12.0510 3.03023   3
  -3   6   7 0.48916 1.53802   3
  -3   6   7 -0.6773 1.28320   1
  -2   6   7 4.08265 1.95259   3
  -2   6   7 2.44611 1.63133   1
  -1   6   7 14.6066 3.21250   3
  -1   6   7 15.7184 2.99556   1
   0   6   7 10.5716 2.92964   3
   0   6   7 14.9823 3.00623   1
   1   6   7 5.66550 2.48820   3
   1   6   7 5.44924 2.06590   1
   2   6   7 1.72197 2.17615   3
   2   6   7 -0.4075 1.37987   1
   3  10  -8 3.97207 1.34633   4
   2  10  -8 44.7765 2.36464   1
   2  10  -8 48.3270 2.41954   1
   1  10  -8 13.0471 1.53726   1
   0  10  -8 63.7024 3.53832   1
   0  10  -8 63.0615 4.03991   6
  -1  10  -8 61.2619 3.98066   6
  -1  10  -8 57.3297 3.59532   1
  -2  10  -8 12.5225 2.10675   1
  -2  10  -8 15.7065 2.57056   6
  -3  10  -8 1.20747 1.27134   1
  -3  10  -8 0.04298 1.16589   6
  -4  10  -8 30.8617 3.97398   6
  -4  10  -8 41.9820 4.21728   1
   5   9  -8 11.2156 1.99784   4
   4   9  -8 2.14720 1.07651   4
   3   9  -8 65.6617 2.95349   1
   3   9  -8 78.4877 4.21396   4
   2   9  -8 41.5478 2.25480   1
   1   9  -8 11.6855 1.44314   1
   0   9  -8 89.9917 4.24350   1
   0   9  -8 80.0906 4.15116   6
  -1   9  -8 37.6863 2.84179   1
  -1   9  -8 35.8995 2.90439   6
  -1   9  -8 36.9240 2.78984   1
  -2   9  -8 3.96558 1.38708   1
  -2   9  -8 0.59832 1.05006   6
  -3   9  -8 51.7414 3.75441   1
  -3   9  -8 44.4458 3.96864   6
  -4   9  -8 8.82624 2.03188   1
  -4   9  -8 8.20166 2.10322   6
  -5   9  -8 13.2646 2.65645   1
   6   8  -8 19.8512 2.64660   4
   6   8  -8 15.9520 2.79934   5
   6   8  -8 22.1939 2.06021   1
   5   8  -8 25.4326 3.23526   5
   5   8  -8 25.4302 1.86086   1
   5   8  -8 23.4776 2.74473   4
   4   8  -8 18.3339 2.32368   4
   4   8  -8 14.1123 2.34336   5
   4   8  -8 18.3312 1.48869   1
   3   8  -8 25.4398 2.64549   4
   3   8  -8 23.1418 1.64984   1
   3   8  -8 26.3056 2.78332   5
   2   8  -8 25.2006 1.79627   1
   1   8  -8 20.7163 1.90303   1
   0   8  -8 0.30538 0.67446   1
   0   8  -8 0.52439 0.67143   6
  -1   8  -8 46.0379 2.98670   1
  -1   8  -8 41.0419 3.03780   6
  -1   8  -8 40.0230 2.92327   3
  -2   8  -8 11.3588 2.16076   6
  -2   8  -8 12.3302 1.95323   1
  -3   8  -8 14.7657 2.53667   6
  -3   8  -8 17.3798 2.48700   1
  -3   8  -8 19.2886 2.51541   1
  -4   8  -8 -0.8946 1.14686   6
  -4   8  -8 0.87937 1.10070   1
  -5   8  -8 40.0294 4.21320   1
  -5   8  -8 43.0444 3.15449   2
  -6   8  -8 9.84562 1.85174   2
  -6   8  -8 12.5058 2.72076   1
   7   7  -8 6.28946 2.34919   5
   7   7  -8 8.81196 2.03985   4
   7   7  -8 10.3086 1.74140   1
   6   7  -8 1.03742 0.86612   1
   6   7  -8 -1.1576 0.98400   4
   5   7  -8 3.14578 0.96549   1
   5   7  -8 1.35215 1.02389   4
   4   7  -8 64.7368 3.93741   4
   4   7  -8 65.4511 3.19545   1
   3   7  -8 -0.7090 0.52472   1
   2   7  -8 76.0635 3.56494   1
   1   7  -8 15.4426 1.69237   1
   0   7  -8 3.95089 0.84048   3
   0   7  -8 2.69744 0.89816   6
   0   7  -8 3.52316 1.02322   1
  -1   7  -8 101.189 4.90056   1
  -1   7  -8 99.6450 5.05772   6
  -2   7  -8 168.203 7.26756   1
  -2   7  -8 159.649 7.54621   6
  -3   7  -8 31.9677 3.23872   1
  -3   7  -8 30.3234 3.72602   6
  -4   7  -8 397.415 16.7836   6
  -4   7  -8 419.213 16.3167   1
  -4   7  -8 449.360 16.4821   1
  -5   7  -8 73.2241 5.00325   1
  -6   7  -8 23.3220 3.51695   1
  -6   7  -8 22.1603 2.81737   2
  -7   7  -8 31.4290 3.50133   2
  -7   7  -8 36.4241 4.34166   1
   7   6  -8 155.157 7.46686   4
   7   6  -8 152.802 6.91603   1
   6   6  -8 56.7489 3.77980   4
   6   6  -8 52.3739 3.31900   1
   5   6  -8 157.903 7.00192   4
   5   6  -8 146.787 6.35954   1
   4   6  -8 59.2550 3.17892   1
   4   6  -8 61.1397 3.73373   4
   3   6  -8 -0.0443 0.59867   1
   2   6  -8 126.159 5.31429   1
   1   6  -8 6.34068 1.14514   1
   1   6  -8 7.46047 1.21140   6
   0   6  -8 106.900 4.95080   6
   0   6  -8 105.644 4.88844   1
  -1   6  -8 3.21152 1.06047   1
  -1   6  -8 4.76143 1.20554   6
  -2   6  -8 62.0137 3.69518   1
  -2   6  -8 49.7981 3.66490   6
  -3   6  -8 304.126 11.6688   1
  -3   6  -8 269.961 11.9212   6
  -4   6  -8 51.7538 3.79417   1
  -4   6  -8 44.3342 3.93943   6
  -5   6  -8 242.162 10.7359   1
  -5   6  -8 241.477 10.7420   1
  -6   6  -8 12.0442 2.08870   2
  -6   6  -8 11.7443 2.49460   1
  -7   6  -8 34.1913 3.64427   2
  -7   6  -8 33.9950 4.26409   1
  -8   6  -8 18.5468 3.03438   2
  -8   6  -8 17.2425 3.45288   1
   8   5  -8 2.32214 1.45003   4
   8   5  -8 1.33497 1.13515   1
   7   5  -8 0.93226 1.18992   4
   7   5  -8 -0.2889 0.88898   1
   6   5  -8 24.0793 2.55908   1
   6   5  -8 25.9570 2.83474   4
   5   5  -8 5.22374 1.37798   4
   5   5  -8 7.30230 1.42542   1
   4   5  -8 29.1829 2.94359   4
   4   5  -8 31.7728 2.29537   1
   3   5  -8 12.2764 1.59125   1
   3   5  -8 9.87064 1.57174   4
   2   5  -8 0.98144 0.58063   6
   2   5  -8 0.99745 0.76170   1
   1   5  -8 8.45372 1.36955   1
   1   5  -8 7.65624 1.33698   6
   1   5  -8 10.8020 2.01116   1
   0   5  -8 2.84147 0.94440   1
   0   5  -8 1.36913 0.88950   1
   0   5  -8 2.12337 0.85826   6
  -1   5  -8 41.4844 2.87302   1
  -1   5  -8 36.5753 2.92110   6
  -2   5  -8 6.77914 1.74710   6
  -2   5  -8 5.33721 1.33638   1
   2  -5   8 6.46387 1.03622   3
  -3   5  -8 70.4325 4.73329   6
  -3   5  -8 82.7270 4.56950   1
  -3   5  -8 70.6572 3.59682   5
  -4   5  -8 2.06370 1.30060   1
  -4   5  -8 1.07864 1.04223   6
  -5   5  -8 166.720 8.24375   1
  -5   5  -8 175.070 8.36388   1
  -6   5  -8 91.4129 5.78150   1
  -6   5  -8 90.1652 5.76093   1
  -7   5  -8 1.77054 1.28053   2
  -7   5  -8 0.53213 1.36654   1
  -8   5  -8 46.9282 5.01766   1
  -8   5  -8 36.6195 3.99921   2
   8   4  -8 0.67632 1.10622   1
   8   4  -8 -1.4361 1.00723   4
   7   4  -8 87.6203 4.92329   4
   7   4  -8 73.6774 4.46937   6
   7   4  -8 78.3482 4.69138   1
   6   4  -8 0.59363 0.97926   4
   6   4  -8 0.62172 0.93915   1
   5   4  -8 44.6439 3.19498   4
   5   4  -8 42.9935 3.01966   1
   4   4  -8 4.64036 1.17528   1
   4   4  -8 7.91270 1.45225   4
   3   4  -8 233.881 9.05001   6
   3   4  -8 228.012 9.19448   4
   3   4  -8 231.892 9.05514   1
   2   4  -8 172.092 7.01249   6
   2   4  -8 153.525 6.92683   1
   2   4  -8 180.434 7.12412   1
   1   4  -8 311.953 12.2841   1
   1   4  -8 320.685 12.3508   6
   1   4  -8 357.424 12.4150   1
  -1  -4   8 336.349 11.5172   1
   0   4  -8 64.9309 3.79819   1
   0   4  -8 76.1431 4.13091   6
   0   4  -8 76.5078 3.94799   1
   0  -4   8 72.8727 3.44089   1
  -1   4  -8 16.6561 2.11544   1
  -1   4  -8 15.2766 2.25140   6
   1  -4   8 16.5414 1.82996   1
  -2   4  -8 79.3093 4.40320   1
  -2   4  -8 86.3171 4.89155   6
   2  -4   8 74.8432 3.44029   3
   2  -4   8 76.4238 4.06759   1
  -3   4  -8 7.37240 1.72367   6
  -3   4  -8 11.6399 1.94879   1
   3  -4   8 10.2369 1.66941   1
   3  -4   8 8.17671 1.37496   3
  -4   4  -8 81.7492 4.49022   5
  -4   4  -8 101.839 5.93695   6
  -4   4  -8 98.9261 5.42377   1
   4  -4   8 101.299 5.18390   1
  -5   4  -8 73.9820 4.84237   1
   5  -4   8 72.4482 4.52087   1
  -6   4  -8 10.5653 2.37495   1
  -6   4  -8 7.30423 2.10563   1
   6  -4   8 9.22095 2.00576   1
  -7   4  -8 33.4139 4.19006   1
  -7   4  -8 30.6526 3.59706   2
  -8   4  -8 29.9023 3.61202   2
  -8   4  -8 32.9455 4.40228   1
   9   3  -8 4.86804 1.85013   4
   8   3  -8 6.84796 1.95066   4
   8   3  -8 8.25990 2.12848   1
   7   3  -8 11.1954 1.99310   4
   7   3  -8 7.82570 1.81054   1
   6   3  -8 0.38613 0.94125   4
   6   3  -8 1.89688 1.16968   1
   5   3  -8 39.2024 2.98277   1
   5   3  -8 31.5687 2.99052   4
   4   3  -8 3.63060 1.17101   1
   4   3  -8 2.86033 1.06412   6
   4   3  -8 3.39374 1.10883   4
   3   3  -8 72.9560 3.96447   1
   3   3  -8 67.9516 3.89699   6
   3   3  -8 69.3820 3.83002   4
   2   3  -8 237.958 8.83246   1
   2   3  -8 222.958 8.84277   6
   2   3  -8 182.698 8.45588   1
   1   3  -8 34.6754 2.60742   1
   1   3  -8 35.7497 2.73194   6
  -1  -3   8 32.6102 2.24291   1
   0   3  -8 11.4848 1.80005   6
   0   3  -8 12.2532 1.77921   1
   0  -3   8 11.6849 1.60074   1
  -1   3  -8 151.832 6.83743   1
  -1   3  -8 162.678 7.30174   6
   1  -3   8 149.883 5.46200   3
   1  -3   8 152.636 6.55066   1
  -2   3  -8 180.405 8.15641   6
  -2   3  -8 179.876 7.73845   1
   2  -3   8 170.584 7.36083   1
   2  -3   8 163.734 6.54149   3
  -3   3  -8 0.76491 1.09790   6
  -3   3  -8 -0.0833 0.84095   1
   3  -3   8 0.38206 0.73747   3
   3  -3   8 0.58802 0.81403   1
  -4   3  -8 228.224 10.5692   6
  -4   3  -8 230.397 10.0386   1
   4  -3   8 240.374 9.94048   1
  -5   3  -8 5.36988 1.66461   1
   5  -3   8 2.50331 1.27068   1
  -6   3  -8 82.6860 5.39343   1
  -6   3  -8 81.2529 5.34346   1
   6  -3   8 78.8014 5.13939   1
  -7   3  -8 32.2785 3.60960   2
  -7   3  -8 36.6909 4.33743   1
   7  -3   8 29.2580 3.64764   1
  -8   3  -8 0.60358 1.42915   2
  -8   3  -8 0.21066 1.51854   1
   8  -3   8 0.22174 1.44978   1
   9   2  -8 17.2380 2.83251   4
   9   2  -8 18.9190 3.08060   1
   8   2  -8 73.1560 4.92522   4
   8   2  -8 86.9924 5.39145   1
   7   2  -8 1.12913 1.11492   4
   7   2  -8 1.01070 1.15831   1
   6   2  -8 73.1598 5.02296   6
   6   2  -8 89.2431 4.97310   1
   6   2  -8 83.6970 4.72591   4
   5   2  -8 138.507 6.59983   1
   5   2  -8 138.332 6.40269   4
   5   2  -8 135.409 6.65736   6
   4   2  -8 72.4114 4.17999   1
   4   2  -8 63.7923 3.82592   4
   4   2  -8 68.7493 4.12690   6
   3   2  -8 962.641 32.3374   1
   3   2  -8 947.662 32.4629   6
   3   2  -8 954.906 32.0596   4
  -3  -2   8 911.126 31.7901   1
   2   2  -8 54.4541 3.45403   1
   2   2  -8 46.5175 3.33432   6
  -2  -2   8 53.5101 3.15101   1
   1   2  -8 8.72601 1.61305   1
   1   2  -8 8.96048 1.61901   6
  -1  -2   8 9.43952 1.49300   1
   0   2  -8 163.218 7.09478   1
   0   2  -8 144.892 7.21322   6
   0  -2   8 163.740 5.66762   3
   0  -2   8 164.616 6.93371   1
  -1   2  -8 132.545 6.19763   1
  -1   2  -8 128.939 6.59700   6
   1  -2   8 131.652 6.06652   1
  -2   2  -8 0.22522 0.95049   6
  -2   2  -8 1.35101 0.97418   1
   2  -2   8 -0.2835 0.71420   1
  -3   2  -8 121.357 6.15557   1
  -3   2  -8 117.857 6.60198   6
   3  -2   8 129.173 6.17129   1
  -4   2  -8 78.9168 4.73034   1
   4  -2   8 61.7414 5.37958   6
   4  -2   8 74.8557 4.54328   1
  -5   2  -8 49.6305 3.92126   1
   5  -2   8 46.7708 4.47949   1
  -6   2  -8 2.53253 1.51002   1
   6  -2   8 2.02697 1.50987   1
  -7   2  -8 4.36867 1.82250   1
  -7   2  -8 3.16644 1.70229   1
   7  -2   8 5.77092 1.99964   1
  -8   2  -8 20.2062 3.12191   2
  -8   2  -8 22.5751 3.56511   1
   8  -2   8 25.1161 3.75642   1
   9   1  -8 9.14306 2.45310   1
   9   1  -8 14.0955 2.63259   4
   8   1  -8 2.27004 1.46079   4
   8   1  -8 -0.2243 1.11194   1
   7   1  -8 15.1119 2.46081   4
   7   1  -8 13.8126 2.47657   1
   6   1  -8 37.8668 3.73500   1
   6   1  -8 43.3064 3.70377   4
   6   1  -8 36.1978 3.88311   6
   5   1  -8 3.82821 1.17922   4
   5   1  -8 3.60379 1.49384   6
   5   1  -8 2.01545 1.13555   1
   4   1  -8 21.2260 2.54577   6
   4   1  -8 31.0065 3.13773   1
   4   1  -8 25.2009 2.56392   4
  -4  -1   8 28.6696 2.90364   1
   3   1  -8 76.0783 4.13214   4
   3   1  -8 83.6691 4.60910   1
   3   1  -8 74.9283 4.61606   6
  -3  -1   8 77.3363 4.27023   1
   2   1  -8 7.43050 1.33022   4
   2   1  -8 6.10454 1.48083   6
   2   1  -8 9.70881 1.75292   1
  -2  -1   8 9.41786 1.64488   1
  -2  -1   8 7.83866 1.03668   3
   1   1  -8 9.80777 1.79290   6
   1   1  -8 11.0318 1.88579   1
  -1  -1   8 14.2922 1.39835   3
  -1  -1   8 13.4707 1.93313   1
   0   1  -8 37.7206 3.24595   6
   0   1  -8 37.5600 2.91705   1
   0  -1   8 39.6822 2.94226   1
   0  -1   8 36.6376 2.19708   3
   0  -1   8 36.0518 3.16056   6
  -1   1  -8 2.59056 1.38738   6
  -1   1  -8 2.21636 1.07141   1
   1  -1   8 3.00137 1.11435   1
   1  -1   8 2.37491 0.98469   6
  -2   1  -8 77.0194 4.53524   1
  -2   1  -8 63.6588 4.57140   6
   2  -1   8 68.7302 4.30008   6
   2  -1   8 78.5954 4.49526   1
  -3   1  -8 70.3782 4.29024   1
  -3   1  -8 53.9032 4.25957   6
   3  -1   8 64.7313 4.17780   1
   3  -1   8 52.8599 3.91389   6
  -4   1  -8 35.9613 3.58114   1
   4  -1   8 38.2261 3.83895   1
  -5   1  -8 1.41066 1.28317   1
   5  -1   8 0.54024 1.02600   1
  -6   1  -8 2.54316 1.58851   1
   6  -1   8 2.88294 1.51977   1
  -7   1  -8 -0.9663 1.14341   1
  -7   1  -8 0.27488 1.27148   1
   7  -1   8 0.74714 1.31394   1
  -8   1  -8 54.4913 5.11498   2
   8  -1   8 54.6194 5.70567   1
   8   0  -8 3.61137 1.53474   4
   8   0  -8 2.42283 1.60396   1
   7   0  -8 55.8242 4.32676   1
   7   0  -8 46.8394 4.33948   4
   6   0  -8 94.7906 5.18184   4
   6   0  -8 95.4687 5.57601   1
   5   0  -8 0.85909 1.02918   6
   5   0  -8 1.53940 1.27901   1
   5   0  -8 -0.0683 0.80718   4
  -5   0   8 0.50202 0.97397   1
   4   0  -8 406.983 15.9609   6
   4   0  -8 409.382 15.0056   4
   4   0  -8 413.909 15.6803   1
  -4   0   8 426.904 15.5249   1
  -4   0   8 385.185 14.6248   3
   3   0  -8 27.6745 2.60414   4
   3   0  -8 19.4492 2.59168   1
  -3   0   8 17.4383 2.38201   1
  -3   0   8 24.7159 2.30148   3
   2   0  -8 11.6675 1.95773   1
   2   0  -8 11.4263 1.59385   4
   2   0  -8 11.0088 1.84644   6
  -2   0   8 9.65133 1.47260   3
  -2   0   8 12.1636 1.94343   1
   1   0  -8 244.232 10.8925   6
   1   0  -8 280.429 10.8098   1
   1   0  -8 264.723 9.85686   4
  -1   0   8 256.936 9.78051   3
  -1   0   8 264.601 10.6303   1
  -1   0   8 251.972 10.3510   6
   0   0  -8 19.7434 2.74167   6
   0   0  -8 17.2412 2.40372   1
   0   0   8 25.2987 2.83506   1
   0   0   8 17.1247 2.13076   6
   0   0   8 20.7622 2.17510   3
  -1   0  -8 705.925 26.7912   6
  -1   0  -8 746.669 26.3224   1
   1   0   8 786.103 26.5305   1
   1   0   8 742.696 25.6726   3
  -2   0  -8 506.956 18.4798   1
  -2   0  -8 465.761 18.8595   6
   2   0   8 497.677 18.5905   6
   2   0   8 508.253 18.5266   1
  -3   0  -8 129.355 6.56364   1
   3   0   8 128.188 6.67195   1
  -4   0  -8 98.7942 5.58448   1
   4   0   8 89.9805 5.58003   1
  -5   0  -8 148.917 7.48489   1
   5   0   8 138.318 7.54082   1
  -6   0  -8 8.46327 2.13351   1
   6   0   8 4.05373 1.63900   1
  -7   0  -8 36.4247 3.99648   2
   7   0   8 37.0710 4.36982   1
   8  -1  -8 34.1411 4.18232   1
   8  -1  -8 37.2014 3.82547   4
   7  -1  -8 147.084 7.84502   1
   7  -1  -8 152.027 7.38421   4
   6  -1  -8 34.5990 4.02416   1
   6  -1  -8 35.0588 3.33560   4
   5  -1  -8 28.5496 2.88010   4
   5  -1  -8 32.4775 3.73038   1
  -5   1   8 38.3561 3.01731   3
  -5   1   8 31.8455 3.42977   1
   4  -1  -8 231.502 9.61682   4
   4  -1  -8 262.757 10.6874   1
  -4   1   8 240.468 10.2589   1
  -4   1   8 233.831 9.77554   3
   3  -1  -8 6.35443 1.81375   1
   3  -1  -8 6.43516 1.35988   4
   3  -1  -8 7.53644 2.31956   6
  -3   1   8 7.13538 1.73384   1
  -3   1   8 4.36109 1.35716   3
   2  -1  -8 29.2152 3.64315   6
   2  -1  -8 34.4391 2.43549   4
   2  -1  -8 38.4274 3.66473   1
  -2   1   8 27.9366 3.25505   1
  -2   1   8 33.6168 2.64332   3
   1  -1  -8 13.9962 2.31550   1
   1  -1  -8 16.0062 2.55670   6
   1  -1  -8 18.5695 1.96246   4
  -1   1   8 16.0122 2.48542   6
  -1   1   8 17.6061 2.45819   1
  -1   1   8 14.9074 2.06918   3
   0  -1  -8 38.3295 3.70128   1
   0  -1  -8 38.5972 3.91445   6
   0   1   8 38.5986 3.68943   1
   0   1   8 39.0285 2.84366   3
   0   1   8 34.6260 3.04009   6
  -1  -1  -8 74.0712 4.49253   1
   1   1   8 61.7347 4.31086   6
   1   1   8 77.4985 4.66939   1
   1   1   8 65.6665 4.08864   3
  -2  -1  -8 -0.2353 0.96858   1
   2   1   8 0.38369 0.98483   1
  -3  -1  -8 55.1261 3.96738   1
   3   1   8 54.7853 4.11670   1
  -4  -1  -8 66.8843 4.63079   1
   4   1   8 65.8795 4.80607   1
  -5  -1  -8 59.2600 4.57210   1
   5   1   8 72.6853 5.02320   1
   6   1   8 3.80825 1.84308   1
  -7  -1  -8 73.7530 5.31228   2
   7   1   8 75.1079 5.66874   1
   8  -2  -8 2.64593 1.71676   1
   8  -2  -8 2.61078 1.55808   4
   7  -2  -8 5.26593 2.04462   1
   7  -2  -8 3.70313 1.47358   4
   6  -2  -8 3.90903 1.81955   1
   6  -2  -8 7.23573 1.67593   4
  -6   2   8 5.59250 1.81580   3
  -6   2   8 3.80483 2.62098   1
   5  -2  -8 25.8999 2.79865   4
   5  -2  -8 25.4464 3.36053   1
  -5   2   8 28.9450 3.43352   3
  -5   2   8 24.1231 3.31176   1
   4  -2  -8 0.40872 1.13603   1
   4  -2  -8 -0.3303 0.78373   4
  -4   2   8 -0.6167 1.00858   3
  -4   2   8 -0.4573 0.92078   1
   3  -2  -8 12.3069 2.29052   1
   3  -2  -8 9.70311 1.60917   4
  -3   2   8 8.91928 1.87493   1
  -3   2   8 13.8560 2.27736   3
   2  -2  -8 81.0378 4.13946   4
   2  -2  -8 86.1254 5.08908   1
  -2   2   8 87.0743 5.22939   1
  -2   2   8 86.2776 4.83493   3
   1  -2  -8 42.0246 3.46871   1
   1  -2  -8 41.5208 2.61615   4
  -1   2   8 41.9137 4.19333   1
  -1   2   8 47.1477 3.37603   3
   0  -2  -8 130.387 6.68602   1
   0  -2  -8 131.658 5.58547   4
   0   2   8 145.319 7.10460   1
   0   2   8 129.511 6.56859   3
  -1  -2  -8 9.88229 2.05048   1
  -1  -2  -8 9.24494 1.28303   4
   1   2   8 7.85767 1.90565   1
   1   2   8 8.68262 2.00257   3
  -2  -2  -8 45.5929 3.71560   1
   2   2   8 49.1853 4.00554   1
   2   2   8 48.1335 3.80007   3
  -3  -2  -8 31.9952 3.61594   1
   3   2   8 30.3456 3.72627   1
  -4  -2  -8 8.40845 2.02696   1
   4   2   8 10.2498 2.30953   1
   5   2   8 7.30265 2.14567   1
   6   2   8 71.6210 5.48809   1
   7  -3  -8 0.04239 1.43635   1
   7  -3  -8 0.44600 1.24032   4
   6  -3  -8 4.92703 1.65540   4
   6  -3  -8 6.33820 2.17549   1
  -6   3   8 5.95300 2.07594   1
  -6   3   8 6.93733 2.11830   3
   5  -3  -8 7.99347 1.72434   4
   5  -3  -8 5.54779 1.91913   1
  -5   3   8 5.81700 1.85674   3
  -5   3   8 4.48841 1.83894   1
   4  -3  -8 41.4608 3.03139   4
   4  -3  -8 37.0140 4.03427   1
  -4   3   8 36.7646 4.09201   1
  -4   3   8 40.7641 4.19369   3
   3  -3  -8 74.0805 4.01348   4
   3  -3  -8 67.3831 4.78592   1
  -3   3   8 72.1875 4.97623   1
  -3   3   8 70.6923 4.73865   3
   2  -3  -8 12.7676 2.46830   1
   2  -3  -8 10.9616 1.57161   4
  -2   3   8 8.46753 2.05833   1
  -2   3   8 11.0202 2.34858   3
   1  -3  -8 19.5936 1.92820   4
   1  -3  -8 20.2888 3.00780   1
  -1   3   8 11.5634 2.37991   3
  -1   3   8 10.3733 2.44005   1
   0  -3  -8 91.2237 4.22751   4
   0  -3  -8 96.4450 5.59540   1
   0   3   8 95.2304 5.68213   3
   0   3   8 97.5648 5.81584   1
  -1  -3  -8 27.8957 2.25027   4
  -1  -3  -8 28.8778 3.29438   1
   1   3   8 27.0400 3.60350   3
   1   3   8 28.0702 3.57840   1
  -2  -3  -8 1.52128 1.18585   1
   2   3   8 1.96636 1.44508   1
   2   3   8 2.76903 1.39635   3
   3   3   8 76.4884 5.42421   1
   4   3   8 1.78477 1.56332   1
   5   3   8 23.9100 3.66574   1
   6  -4  -8 -0.1447 1.21513   4
   6  -4  -8 -0.2730 1.43201   1
  -6   4   8 -1.7277 1.55544   3
  -6   4   8 -0.3390 1.40286   1
   5  -4  -8 3.33023 1.77298   1
   5  -4  -8 3.91270 1.50377   4
  -5   4   8 1.82607 1.55469   3
  -5   4   8 2.36688 1.61302   1
   4  -4  -8 0.43534 0.95503   4
   4  -4  -8 1.80162 1.40792   1
  -4   4   8 0.08498 1.35938   1
  -4   4   8 1.89505 1.72880   3
   3  -4  -8 1.23066 1.43253   1
   3  -4  -8 2.20441 1.00953   4
  -3   4   8 4.98991 2.08296   3
  -3   4   8 2.77984 1.67519   1
   2  -4  -8 0.13570 1.14107   1
   2  -4  -8 0.56589 0.77652   4
  -2   4   8 0.10468 1.16457   1
  -2   4   8 0.24715 1.40733   3
   1  -4  -8 68.8128 4.76810   1
  -1   4   8 72.5379 5.23213   1
  -1   4   8 67.9167 4.96755   3
   0   4   8 5.69809 1.91663   1
   0   4   8 6.02568 2.19669   3
   1   4   8 -0.1406 1.40222   3
   1   4   8 -1.5293 1.04177   1
   2   4   8 15.9008 2.84355   1
   2   4   8 19.7735 3.50153   3
   3   4   8 5.56635 2.19347   3
   3   4   8 0.09792 1.40310   1
   4   4   8 0.59903 1.41298   1
  -4   5   8 0.85219 1.74811   3
  -4   5   8 -0.7528 1.26015   1
  -3   5   8 4.12949 2.05709   3
  -3   5   8 1.22003 1.59612   1
  -2   5   8 -0.4070 1.48577   3
  -2   5   8 0.22373 1.40182   1
  -1   5   8 11.4800 2.76136   3
  -1   5   8 15.3134 2.91281   1
   0   5   8 -0.5345 1.60075   3
   0   5   8 -0.5806 1.17337   1
   1   5   8 0.71711 1.35803   1
   1   5   8 0.52499 1.75124   3
   2   5   8 18.5483 3.75120   3
   2   5   8 13.1313 2.84435   1
   2  10  -9 37.0823 2.32693   1
   1  10  -9 81.4330 4.00792   1
   0  10  -9 34.5775 2.68727   1
   0  10  -9 34.1566 2.67820   1
  -1  10  -9 9.50912 1.75308   1
  -1  10  -9 4.57026 1.72729   6
  -2  10  -9 15.1701 2.31880   1
  -2  10  -9 13.5947 2.57113   6
  -3  10  -9 18.8562 3.11880   6
  -3  10  -9 20.3290 2.82717   1
   4   9  -9 1.33626 1.21022   4
   4   9  -9 0.44609 0.67548   1
   3   9  -9 -0.4774 0.89579   4
   3   9  -9 1.22032 0.74520   1
   2   9  -9 -0.1557 0.69406   1
   1   9  -9 44.1482 2.82776   1
   0   9  -9 44.2730 2.93242   1
   0   9  -9 39.8378 2.96047   6
  -1   9  -9 65.5811 3.95233   1
  -1   9  -9 64.4832 4.19324   6
  -2   9  -9 50.3386 3.60417   1
  -2   9  -9 51.2125 3.63654   1
  -2   9  -9 42.6050 4.34338   6
  -3   9  -9 19.5748 2.83517   1
  -3   9  -9 15.1941 2.48275   1
  -3   9  -9 20.8943 3.18780   6
  -4   9  -9 0.48696 1.33793   1
  -5   9  -9 48.8471 4.94831   1
   5   8  -9 53.1034 3.12337   1
   5   8  -9 66.6867 4.15911   4
   4   8  -9 -0.6726 0.64835   1
   4   8  -9 0.63626 1.08870   4
   3   8  -9 5.39553 1.07616   1
   2   8  -9 12.6910 1.63395   1
   1   8  -9 20.9679 2.10659   6
   1   8  -9 23.8681 2.30391   1
   0   8  -9 95.1621 4.91079   6
   0   8  -9 102.678 4.87502   1
  -1   8  -9 0.98016 1.03803   6
  -1   8  -9 1.94556 1.05781   1
  -2   8  -9 148.368 6.98547   1
  -2   8  -9 142.934 7.29521   6
  -3   8  -9 45.8130 3.55797   1
  -3   8  -9 40.1076 4.13764   6
  -4   8  -9 -1.1231 0.93903   1
  -4   8  -9 1.94063 1.62035   6
  -4   8  -9 0.37340 1.24437   1
  -5   8  -9 0.38646 1.20946   2
  -5   8  -9 1.17748 1.36133   1
  -6   8  -9 0.91747 1.26071   2
  -6   8  -9 3.82560 1.85366   1
   6   7  -9 301.272 12.1957   4
   6   7  -9 293.020 11.3403   1
   5   7  -9 44.4223 2.92840   1
   5   7  -9 49.0020 3.54664   4
   4   7  -9 9.74885 1.82418   4
   4   7  -9 11.6667 1.57594   1
   3   7  -9 50.8183 3.00640   1
   3   7  -9 53.0252 2.77722   6
   2   7  -9 214.085 8.48674   1
   2   7  -9 223.700 8.35549   6
   1   7  -9 53.2387 3.09514   6
   1   7  -9 49.4188 3.07779   1
   0   7  -9 26.4587 2.76874   6
   0   7  -9 26.9685 2.70773   1
  -1   7  -9 83.4532 4.77291   6
  -1   7  -9 80.8121 4.44522   1
  -2   7  -9 -0.4384 0.88895   1
  -2   7  -9 -0.2381 0.84654   6
  -3   7  -9 1.59486 1.24495   1
  -3   7  -9 0.20291 1.08458   6
  -4   7  -9 61.4108 4.48762   1
  -4   7  -9 61.4794 4.87329   6
  -5   7  -9 107.630 6.45671   1
  -5   7  -9 106.355 6.39206   1
  -6   7  -9 20.1616 2.71988   2
  -6   7  -9 18.1113 3.14250   1
   7   6  -9 84.1675 4.84577   1
   7   6  -9 79.0689 5.08339   4
   6   6  -9 55.4477 3.60294   1
   6   6  -9 51.8002 3.81095   4
   5   6  -9 2.46278 1.34387   4
   5   6  -9 -0.4140 0.76611   1
   4   6  -9 32.6485 3.33728   4
   4   6  -9 31.1147 2.47429   1
   3   6  -9 266.357 10.3557   1
   3   6  -9 276.363 10.2363   6
   2   6  -9 4.05468 1.15809   1
   2   6  -9 4.20887 1.07871   6
   1   6  -9 94.5652 4.74709   6
   1   6  -9 99.0516 4.77854   1
   0   6  -9 57.6648 3.51017   1
   0   6  -9 57.5212 3.62962   6
  -1   6  -9 22.7386 2.95829   6
  -1   6  -9 25.7097 2.72343   1
  -2   6  -9 72.8079 4.77465   6
  -2   6  -9 76.9055 4.47723   1
  -3   6  -9 0.42844 1.05529   1
  -3   6  -9 0.40213 1.13126   6
  -4   6  -9 62.0614 4.86385   6
  -4   6  -9 67.4954 4.58820   1
  -5   6  -9 38.1131 4.16659   1
  -5   6  -9 40.4103 4.24086   1
  -6   6  -9 4.96582 1.95029   1
  -6   6  -9 4.45358 1.76651   1
  -7   6  -9 10.0283 2.24929   2
  -7   6  -9 4.14689 2.03641   1
   7   5  -9 69.7096 4.61841   4
   7   5  -9 59.4721 4.17252   1
   6   5  -9 17.4361 2.56721   4
   6   5  -9 14.8361 2.30273   1
   5   5  -9 35.9302 2.81869   1
   5   5  -9 33.7187 3.40498   4
   4   5  -9 85.6290 4.87564   4
   4   5  -9 90.2718 4.69481   1
   4   5  -9 94.8510 4.66729   6
   3   5  -9 103.293 5.06242   6
   3   5  -9 111.506 5.41583   4
   3   5  -9 108.222 5.20224   1
   2   5  -9 641.628 22.2698   1
   2   5  -9 633.951 22.3371   6
   1   5  -9 57.9693 3.46001   1
   1   5  -9 54.2543 3.46038   6
   0   5  -9 16.6369 2.36942   6
   0   5  -9 21.9619 2.49496   1
  -1   5  -9 21.7458 2.61930   1
  -1   5  -9 26.0174 2.85017   6
  -2   5  -9 125.547 6.80366   6
  -2   5  -9 140.521 6.57707   1
  -3   5  -9 45.6245 3.86877   6
  -3   5  -9 44.6198 3.53554   1
  -4   5  -9 395.131 15.6276   1
  -5   5  -9 0.33978 1.27427   1
  -6   5  -9 -0.2167 1.23691   1
  -6   5  -9 0.29497 1.18213   1
  -7   5  -9 4.94246 2.04589   1
  -7   5  -9 4.21598 1.72948   2
   8   4  -9 25.2115 3.23271   4
   8   4  -9 21.4826 3.11160   1
   7   4  -9 15.5123 2.57871   4
   7   4  -9 16.6402 2.53205   1
   6   4  -9 0.30229 0.99653   4
   6   4  -9 -0.3594 0.95259   1
   5   4  -9 15.9593 2.22232   6
   5   4  -9 18.3648 2.34398   4
   5   4  -9 15.9164 2.20934   1
   4   4  -9 45.7732 3.25739   4
   4   4  -9 45.8005 3.22141   6
   4   4  -9 43.9860 3.20466   1
   3   4  -9 42.3816 2.98595   4
   3   4  -9 38.3928 2.93284   6
   3   4  -9 38.9513 2.93550   1
   2   4  -9 142.574 6.36024   1
   2   4  -9 133.235 6.35367   6
   1   4  -9 78.8375 4.53080   6
   1   4  -9 83.5740 4.45057   1
   0   4  -9 58.2493 3.64179   1
   0   4  -9 53.0798 3.71631   6
  -1   4  -9 191.816 8.73198   6
  -1   4  -9 189.278 8.25134   1
  -2   4  -9 5.34250 1.58682   6
  -2   4  -9 4.69103 1.32804   1
  -3   4  -9 24.9584 2.93639   1
  -3   4  -9 20.5128 2.69290   6
  -4   4  -9 0.34293 0.98998   1
  -5   4  -9 0.35456 1.04994   1
  -6   4  -9 7.39748 2.17255   1
  -6   4  -9 5.22232 1.90362   1
  -7   4  -9 26.9990 3.91740   1
  -7   4  -9 27.6335 3.96440   1
   8   3  -9 10.0138 2.31304   4
   8   3  -9 8.56186 2.11934   1
   7   3  -9 1.96074 1.39502   4
   7   3  -9 3.24525 1.53421   1
   6   3  -9 0.16208 0.87505   6
   6   3  -9 1.80888 1.17704   4
   6   3  -9 0.58529 1.04119   1
   5   3  -9 2.25221 1.12161   4
   5   3  -9 2.48904 1.18144   6
   5   3  -9 2.58011 1.30651   1
   4   3  -9 31.4079 3.06533   4
   4   3  -9 31.9293 2.81148   6
   4   3  -9 28.3279 3.02839   1
   3   3  -9 431.800 16.0931   4
   3   3  -9 448.282 16.3328   1
   3   3  -9 435.610 16.4715   6
   2   3  -9 4.30353 1.26756   6
   2   3  -9 7.79335 1.60023   1
   1   3  -9 4.67555 1.22409   6
   1   3  -9 2.27770 1.01256   1
  -1  -3   9 1.96198 1.04268   1
   0   3  -9 257.432 10.8683   6
   0   3  -9 266.583 10.5579   1
   0  -3   9 252.704 10.0848   1
  -1   3  -9 483.834 17.5141   1
  -1   3  -9 471.554 17.9939   6
   1  -3   9 462.569 15.5584   3
   1  -3   9 460.901 17.0248   1
  -2   3  -9 -0.8234 0.77769   1
  -2   3  -9 1.40065 1.00462   6
   2  -3   9 1.54479 0.92560   1
  -3   3  -9 507.768 17.8532   1
  -3   3  -9 436.665 18.1413   6
   3  -3   9 454.751 17.3252   1
  -4   3  -9 23.7469 3.03098   1
   4  -3   9 21.4163 2.77023   1
  -5   3  -9 0.40651 1.20597   1
   5  -3   9 -0.7633 0.82770   1
  -6   3  -9 108.790 6.64865   1
   6  -3   9 111.894 6.48280   1
  -7   3  -9 4.52526 1.91612   1
  -7   3  -9 5.52011 2.01308   1
   8   2  -9 11.4418 2.44779   1
   8   2  -9 12.0896 2.24979   4
   7   2  -9 6.73856 1.76499   4
   7   2  -9 6.32252 1.89605   1
   6   2  -9 18.3771 2.63600   4
   6   2  -9 9.09562 2.03703   1
   6   2  -9 13.9384 2.61886   6
   5   2  -9 61.9119 4.41154   6
   5   2  -9 73.8657 4.31006   4
   5   2  -9 74.7696 4.58807   1
   4   2  -9 0.29025 0.96927   1
   4   2  -9 1.53809 0.99826   6
   4   2  -9 0.61321 0.92068   4
   3   2  -9 62.1516 4.14510   1
   3   2  -9 72.7595 4.03442   4
   3   2  -9 66.0667 4.33148   6
   2   2  -9 70.6234 4.63742   6
   2   2  -9 81.2306 4.60485   1
   2   2  -9 79.6078 4.18139   4
  -2  -2   9 78.0639 4.24550   1
   1   2  -9 44.0216 3.49477   6
   1   2  -9 42.7983 3.28721   1
  -1  -2   9 37.6501 2.90104   1
   0   2  -9 220.745 9.50327   1
   0   2  -9 219.001 9.94991   6
   0  -2   9 224.674 7.80316   3
   0  -2   9 233.253 9.36227   1
  -1   2  -9 50.8141 3.78775   1
  -1   2  -9 67.1558 4.56732   6
   1  -2   9 60.9116 3.82399   1
   1  -2   9 58.0474 2.87629   3
  -2   2  -9 44.7300 3.63852   1
  -2   2  -9 43.3221 3.78749   6
   2  -2   9 45.3236 3.42415   1
  -3   2  -9 256.550 10.8631   1
   3  -2   9 249.804 10.6991   1
  -4   2  -9 72.8947 4.83256   1
   4  -2   9 66.9221 4.54471   1
  -5   2  -9 46.4625 4.52074   1
   5  -2   9 58.0984 4.24577   1
  -6   2  -9 71.3572 5.14636   1
   6  -2   9 71.9841 5.17718   1
  -7   2  -9 4.10111 2.06759   1
  -7   2  -9 3.66827 1.87513   1
   7  -2   9 3.36344 1.84382   1
   8   1  -9 38.7608 4.37853   1
   8   1  -9 37.0939 4.20768   4
   7   1  -9 -1.1229 1.01345   4
   7   1  -9 -0.1653 1.01106   1
   6   1  -9 18.3055 2.51412   4
   6   1  -9 15.4088 2.61074   1
   5   1  -9 34.9008 3.30420   4
   5   1  -9 39.9050 3.91711   1
   5   1  -9 31.7442 3.86202   6
   4   1  -9 102.159 5.99160   6
   4   1  -9 111.296 5.96458   1
   4   1  -9 106.238 5.41765   4
   3   1  -9 8.54923 2.05965   6
   3   1  -9 3.56107 1.44880   1
   3   1  -9 5.25697 1.46587   4
  -3  -1   9 4.22933 1.33964   1
   2   1  -9 17.3467 2.34738   6
   2   1  -9 26.5764 2.96351   1
   2   1  -9 24.0618 2.42852   4
  -2  -1   9 20.7036 1.57636   3
  -2  -1   9 28.1735 2.98027   1
   1   1  -9 34.3746 3.40563   1
   1   1  -9 43.9456 3.60491   6
  -1  -1   9 38.0753 3.07586   1
  -1  -1   9 36.4017 2.17505   3
   0   1  -9 1.20116 1.13617   6
   0   1  -9 1.60592 1.14356   1
   0  -1   9 0.60780 0.69213   3
   0  -1   9 1.10743 0.98180   1
  -1   1  -9 0.58723 1.08915   6
  -1   1  -9 0.78333 1.07944   1
   1  -1   9 0.66164 0.79234   3
   1  -1   9 0.27639 0.96905   1
  -2   1  -9 1.18480 1.17703   1
   2  -1   9 0.69445 1.05635   1
  -3   1  -9 0.88173 1.13390   1
   3  -1   9 0.67523 1.00347   1
  -4   1  -9 12.7402 2.40714   1
   4  -1   9 9.26776 2.04445   1
  -5   1  -9 59.3450 4.56808   1
   5  -1   9 66.9649 4.78841   1
  -6   1  -9 -0.1945 1.32945   1
   6  -1   9 0.94045 1.41637   1
  -7   1  -9 55.3953 5.54485   1
  -7   1  -9 52.9778 5.44150   1
   7  -1   9 57.2010 5.69904   1
   8   0  -9 9.90305 2.44545   1
   8   0  -9 12.6048 2.57507   4
   7   0  -9 1.55998 1.54691   1
   7   0  -9 2.24876 1.41395   4
   6   0  -9 39.2632 4.20325   1
   6   0  -9 33.2513 3.48298   4
   5   0  -9 31.9441 3.65550   1
   5   0  -9 32.1854 3.17520   4
   4   0  -9 11.4859 2.33905   1
   4   0  -9 10.8027 1.80796   4
  -4   0   9 12.2206 3.56536   1
  -4   0   9 9.07203 1.55596   3
   3   0  -9 9.89390 2.04525   1
   3   0  -9 13.4837 1.96141   4
  -3   0   9 15.6704 2.43258   1
  -3   0   9 14.5669 1.84878   3
   2   0  -9 4.84719 1.22356   4
   2   0  -9 4.75144 1.62036   1
  -2   0   9 4.51127 1.21239   3
  -2   0   9 7.12329 1.75840   1
   1   0  -9 67.0544 4.49492   1
   1   0  -9 66.6627 3.71169   4
  -1   0   9 77.0604 4.57169   1
  -1   0   9 66.1000 3.64208   3
   0   0  -9 107.918 5.86065   1
   0   0   9 101.546 5.06014   3
   0   0   9 114.376 5.95841   1
  -1   0  -9 19.5306 2.72380   1
   1   0   9 21.6910 3.11702   6
   1   0   9 23.4679 2.48037   3
   1   0   9 18.1101 2.76730   1
  -2   0  -9 97.4782 5.71276   1
   2   0   9 97.1103 5.65342   1
  -3   0  -9 7.65819 1.91968   1
   3   0   9 4.66226 1.68696   1
  -4   0  -9 110.429 6.33942   1
   4   0   9 102.958 6.31683   1
  -5   0  -9 23.7761 3.38496   1
   5   0   9 21.2014 3.24200   1
  -6   0  -9 11.2155 2.58002   1
   6   0   9 15.5793 2.92447   1
   7  -1  -9 17.9928 3.08853   1
   7  -1  -9 17.3339 2.81847   4
   6  -1  -9 28.3763 3.27444   4
   6  -1  -9 27.3034 3.69467   1
   5  -1  -9 63.6020 4.07837   4
   5  -1  -9 68.7121 4.88739   1
  -5   1   9 54.4949 3.84608   3
   4  -1  -9 11.0844 1.85899   4
   4  -1  -9 7.63060 2.02179   1
  -4   1   9 8.28561 1.92601   1
  -4   1   9 7.47663 1.79859   3
   3  -1  -9 13.9030 2.43011   1
   3  -1  -9 11.3630 1.87702   4
  -3   1   9 11.4117 2.01866   3
  -3   1   9 11.8980 2.29832   1
   2  -1  -9 0.92626 1.17822   1
   2  -1  -9 0.88818 0.76095   4
  -2   1   9 0.35265 1.01050   1
  -2   1   9 -0.2561 0.83725   3
   1  -1  -9 5.72630 1.78716   1
   1  -1  -9 3.86751 1.11909   4
  -1   1   9 7.21032 1.65821   3
  -1   1   9 5.95964 1.72922   1
   0  -1  -9 2.13659 0.89744   4
   0  -1  -9 3.30170 1.43370   1
   0   1   9 1.46192 1.19196   1
   0   1   9 1.84000 1.22718   3
  -1  -1  -9 2.32534 1.36741   1
   1   1   9 2.18178 1.24954   1
   1   1   9 1.04214 1.15556   3
  -2  -1  -9 12.8875 2.48540   1
   2   1   9 10.4260 2.25789   3
   2   1   9 10.5964 2.20334   1
  -3  -1  -9 10.8625 2.32708   1
   3   1   9 4.69763 1.77172   1
  -4  -1  -9 5.66283 1.77904   1
   4   1   9 6.28705 1.98957   1
   5   1   9 3.27929 1.76284   1
   6   1   9 19.5202 3.51209   1
   7  -2  -9 1.76390 1.86082   1
   7  -2  -9 5.05276 1.90135   4
   6  -2  -9 0.86099 1.16499   4
   6  -2  -9 0.42569 1.44431   1
   5  -2  -9 24.8829 3.53272   1
   5  -2  -9 27.7922 3.13491   4
  -5   2   9 24.2600 3.27292   3
   4  -2  -9 7.40146 2.01243   1
   4  -2  -9 3.56405 1.36479   4
  -4   2   9 3.08993 1.53231   3
  -4   2   9 4.41777 1.62526   1
   3  -2  -9 12.5102 2.54617   1
   3  -2  -9 11.5463 1.87360   4
  -3   2   9 9.04779 1.99291   3
  -3   2   9 11.9563 2.50140   1
   2  -2  -9 3.94810 1.16928   4
   2  -2  -9 4.67626 1.74095   1
  -2   2   9 2.74012 1.41123   3
  -2   2   9 4.20098 1.68460   1
   1  -2  -9 1.93432 0.89399   4
   1  -2  -9 0.70450 1.21436   1
  -1   2   9 3.11583 1.50077   1
  -1   2   9 1.28365 1.27924   3
   0  -2  -9 4.69362 1.80047   1
   0  -2  -9 6.66703 1.28121   4
   0   2   9 6.87035 1.94519   3
   0   2   9 5.64360 1.80276   1
  -1  -2  -9 7.94316 1.33866   4
  -1  -2  -9 9.62508 2.14683   1
   1   2   9 6.12824 1.87619   1
   1   2   9 6.37725 1.92065   3
  -2  -2  -9 6.52913 1.92190   1
   2   2   9 10.0198 2.40199   1
   2   2   9 10.2499 2.33949   3
  -3  -2  -9 2.41705 1.43673   1
   3   2   9 1.23741 1.47208   1
   4   2   9 1.04775 1.51548   1
   5   2   9 -1.1666 1.33244   1
   6  -3  -9 0.79373 1.60754   1
   6  -3  -9 0.13953 1.15532   4
  -6   3   9 0.76329 2.03168   3
   5  -3  -9 17.1186 2.40440   4
   5  -3  -9 16.6032 3.08988   1
  -5   3   9 10.1878 2.57641   1
  -5   3   9 15.6021 2.82828   3
   4  -3  -9 20.9182 3.16227   1
   4  -3  -9 21.2179 2.52281   4
  -4   3   9 21.7500 3.18152   1
  -4   3   9 23.7497 3.32390   3
   3  -3  -9 16.6933 2.95245   1
   3  -3  -9 11.7605 1.90005   4
  -3   3   9 11.7123 2.54039   1
  -3   3   9 12.5796 2.56688   3
   2  -3  -9 18.4219 2.15874   4
   2  -3  -9 18.0740 2.88249   1
  -2   3   9 14.2317 2.66794   1
  -2   3   9 17.6743 2.84104   3
   1  -3  -9 31.6308 2.59897   4
   1  -3  -9 23.2753 3.12777   1
  -1   3   9 22.3825 3.40378   1
  -1   3   9 25.0057 3.36028   3
   0  -3  -9 15.0305 2.61083   1
   0   3   9 8.11345 2.18313   1
   0   3   9 9.68668 2.36179   3
  -1  -3  -9 0.53323 1.13172   1
   1   3   9 0.73494 1.16591   1
   1   3   9 0.53213 1.32720   3
   2   3   9 7.24290 2.30749   1
   2   3   9 11.5045 2.66333   3
   3   3   9 1.26129 1.50391   1
   3   3   9 3.56340 1.91264   3
   4   3   9 -1.3427 1.22487   1
   4  -4  -9 0.50647 1.55565   1
   4  -4  -9 1.96893 1.18914   4
  -4   4   9 -1.0275 1.22129   1
  -4   4   9 1.48227 1.55712   3
   3  -4  -9 16.1133 2.99764   1
  -3   4   9 15.8460 3.02156   3
  -3   4   9 14.0856 2.84403   1
   2  -4  -9 29.7367 4.59759   1
  -2   4   9 29.1552 3.88519   1
  -2   4   9 26.1986 3.73542   3
  -1   4   9 1.55753 1.46644   1
  -1   4   9 6.00024 2.24677   3
   0   4   9 14.4250 2.96702   3
   0   4   9 11.7393 2.68087   1
   1   4   9 35.8331 4.56655   1
   1   4   9 31.7870 4.46786   3
   2   4   9 9.88939 2.72442   3
   2   4   9 7.45453 2.50660   1
   3   9 -10 -0.3952 0.75201   1
   3   9 -10 -1.4391 0.82284   4
   2   9 -10 83.7694 4.24250   1
   1   9 -10 2.78400 1.12850   1
   1   9 -10 3.51287 1.46433   6
   0   9 -10 6.92581 1.70178   6
   0   9 -10 6.59782 1.53765   1
  -1   9 -10 24.1764 3.14611   6
  -1   9 -10 26.0415 2.96099   1
  -2   9 -10 130.305 6.57480   1
  -2   9 -10 123.042 6.98695   6
  -3   9 -10 -0.3279 1.22037   1
  -3   9 -10 -0.6434 1.16714   6
  -3   9 -10 0.18645 1.23172   1
   4   8 -10 4.49260 1.19308   1
   4   8 -10 8.01933 1.98132   4
   3   8 -10 3.70276 1.01750   6
   3   8 -10 5.24756 1.57697   4
   3   8 -10 3.88981 1.18042   1
   2   8 -10 121.153 5.55356   6
   2   8 -10 124.660 5.64388   1
   1   8 -10 3.85049 1.18029   1
   1   8 -10 2.84038 1.13033   6
   0   8 -10 128.524 6.38391   6
   0   8 -10 130.723 6.16815   1
  -1   8 -10 93.9898 5.04974   1
  -1   8 -10 80.4247 5.15122   6
  -2   8 -10 25.9888 3.32918   6
  -2   8 -10 40.9494 3.74298   1
  -3   8 -10 182.298 8.50133   1
  -3   8 -10 169.689 8.96402   6
  -4   8 -10 33.9461 3.96982   1
  -4   8 -10 45.2150 4.54546   1
  -5   8 -10 104.301 6.61478   1
   5   7 -10 0.24268 0.98178   1
   5   7 -10 2.54814 1.42239   4
   4   7 -10 33.4321 2.55399   6
   4   7 -10 33.2775 3.44763   4
   4   7 -10 30.1156 2.87246   1
   3   7 -10 145.085 6.34514   6
   3   7 -10 142.629 6.40674   1
   2   7 -10 26.0223 2.60861   1
   2   7 -10 25.8018 2.64762   6
   1   7 -10 -0.9708 0.71660   1
   1   7 -10 0.65773 0.85559   6
   0   7 -10 7.87955 1.69286   1
   0   7 -10 6.22095 1.64568   6
  -1   7 -10 0.00843 0.91676   1
  -1   7 -10 -0.2506 0.84039   6
  -2   7 -10 49.7703 4.09552   6
  -2   7 -10 54.1658 3.92272   1
  -3   7 -10 24.6205 3.26886   1
  -3   7 -10 16.9675 2.77925   6
  -4   7 -10 38.5979 4.15056   1
  -5   7 -10 17.3575 3.06075   1
  -5   7 -10 16.4057 3.05255   1
   6   6 -10 0.49882 1.17928   4
   6   6 -10 -0.5117 1.05642   1
   5   6 -10 0.77823 0.90761   6
   5   6 -10 0.87818 1.19666   4
   5   6 -10 1.35370 1.04960   1
   4   6 -10 0.84235 1.03857   1
   4   6 -10 1.10251 0.98629   6
   4   6 -10 2.33058 1.38536   4
   3   6 -10 294.139 11.8524   4
   3   6 -10 296.023 11.5634   6
   3   6 -10 302.369 11.5709   1
   2   6 -10 6.91550 1.54108   6
   2   6 -10 7.47703 1.53229   1
   1   6 -10 54.4734 3.72153   6
   1   6 -10 61.3418 3.75687   1
   0   6 -10 39.2843 3.33482   6
   0   6 -10 43.1153 3.19034   1
  -1   6 -10 41.1040 3.65780   6
  -1   6 -10 50.7084 3.56850   1
  -2   6 -10 54.9046 3.96015   1
  -2   6 -10 52.8469 4.25854   6
  -3   6 -10 11.6813 2.61464   6
  -3   6 -10 14.0295 2.43604   1
  -4   6 -10 283.332 12.3116   1
  -5   6 -10 16.1073 2.92903   1
  -6   6 -10 4.68825 2.06364   1
  -6   6 -10 1.43866 1.51287   1
   7   5 -10 6.78839 1.81166   1
   7   5 -10 4.17903 1.66114   4
   6   5 -10 -0.5483 1.00136   1
   6   5 -10 0.46866 1.09874   4
   6   5 -10 0.11646 0.92434   6
   5   5 -10 40.1408 3.26433   1
   5   5 -10 39.9273 3.73510   4
   5   5 -10 38.2778 3.23893   6
   4   5 -10 75.0053 4.44506   1
   4   5 -10 75.1588 4.57988   4
   4   5 -10 75.9514 4.45961   6
   3   5 -10 97.2744 5.02729   1
   3   5 -10 82.4884 4.79208   4
   3   5 -10 88.2452 4.93879   6
   2   5 -10 6.51359 1.60360   6
   2   5 -10 5.56035 1.50891   1
   1   5 -10 32.6461 2.94227   6
   1   5 -10 38.9993 2.96661   1
   0   5 -10 3.56748 1.37843   6
   0   5 -10 3.95365 1.27825   1
  -1   5 -10 51.2656 4.08093   6
  -1   5 -10 57.4165 3.89178   1
  -2   5 -10 70.7344 5.02404   6
  -2   5 -10 80.1385 4.84402   1
  -3   5 -10 12.5060 2.32483   1
  -4   5 -10 59.1577 4.40633   1
  -5   5 -10 22.3413 3.26430   1
  -6   5 -10 28.5420 3.86053   1
  -6   5 -10 29.1462 3.96695   1
   7   4 -10 15.8031 2.54030   1
   7   4 -10 12.8152 2.44756   6
   7   4 -10 14.2539 2.52581   4
   6   4 -10 0.98068 1.10832   1
   6   4 -10 0.62468 1.13093   4
   6   4 -10 -0.1955 0.95730   6
   5   4 -10 28.8417 3.17197   4
   5   4 -10 20.5583 2.75889   6
   5   4 -10 25.4867 3.01113   1
   4   4 -10 33.0590 3.40790   6
   4   4 -10 38.4519 3.56068   4
   4   4 -10 40.5694 3.29108   1
   3   4 -10 178.604 7.67154   4
   3   4 -10 167.542 7.67054   1
   3   4 -10 156.116 7.66798   6
   2   4 -10 -0.1637 0.78261   1
   2   4 -10 -0.9360 0.62246   6
   1   4 -10 18.5713 2.50985   1
   1   4 -10 13.6785 2.18476   6
   0   4 -10 113.430 5.82074   1
   0   4 -10 105.031 6.06436   6
  -1   4 -10 45.6140 3.86466   6
  -1   4 -10 40.9478 3.36400   1
  -2   4 -10 62.3800 4.79856   6
  -2   4 -10 73.8846 4.58761   1
  -3   4 -10 67.9690 4.68175   1
  -4   4 -10 22.9886 3.24302   1
  -5   4 -10 0.74616 1.37373   1
  -6   4 -10 29.3693 4.05298   1
   7   3 -10 15.8231 2.67822   4
   7   3 -10 21.2518 3.11287   1
   6   3 -10 49.3830 4.14207   6
   6   3 -10 56.1401 4.18484   1
   6   3 -10 64.3695 4.27333   4
   5   3 -10 8.40238 1.92424   4
   5   3 -10 9.03507 2.00038   1
   5   3 -10 7.17266 1.81152   6
   4   3 -10 184.587 8.07731   4
   4   3 -10 183.724 8.30062   1
   4   3 -10 159.881 8.18240   6
   3   3 -10 -0.1424 0.86938   4
   3   3 -10 -0.0507 0.93479   6
   3   3 -10 0.61533 1.09099   1
   2   3 -10 18.7825 2.60427   1
   2   3 -10 16.0688 2.66609   6
   1   3 -10 99.6148 5.84096   6
   1   3 -10 105.407 5.61648   1
   0   3 -10 108.103 6.33821   6
   0   3 -10 112.911 5.96781   1
  -1   3 -10 4.82611 1.64914   6
  -1   3 -10 6.27865 1.68036   1
  -2   3 -10 90.1860 5.42333   1
  -3   3 -10 25.4117 3.23713   1
  -4   3 -10 1.30438 1.33484   1
  -5   3 -10 8.14205 2.30430   1
  -6   3 -10 9.81900 2.46143   1
   7   2 -10 12.2723 2.39416   4
   7   2 -10 10.6799 2.38416   1
   6   2 -10 38.6774 4.18608   1
   6   2 -10 42.6451 4.08591   4
   5   2 -10 11.6317 2.32130   1
   5   2 -10 9.83744 1.96718   4
   4   2 -10 117.002 5.93121   4
   4   2 -10 119.248 6.33426   1
   4   2 -10 109.472 6.42495   6
   3   2 -10 6.52225 1.66480   6
   3   2 -10 7.93303 1.89293   1
   3   2 -10 9.01543 1.77260   4
   2   2 -10 6.72791 1.74842   1
   2   2 -10 3.45029 1.37033   6
   2   2 -10 5.50792 1.32574   4
   1   2 -10 231.958 10.6961   6
   1   2 -10 251.739 10.4657   1
   0   2 -10 163.799 8.47277   6
   0   2 -10 179.242 8.15031   1
   0  -2  10 164.339 7.95626   1
  -1   2 -10 144.046 7.26208   1
   1  -2  10 140.821 6.96922   1
  -2   2 -10 96.0266 5.62448   1
   2  -2  10 78.4649 5.02412   1
  -3   2 -10 17.3905 2.73226   1
   3  -2  10 17.3155 2.71193   1
  -4   2 -10 -0.2133 1.17794   1
   4  -2  10 0.10741 1.10180   1
  -5   2 -10 7.41969 2.09047   1
   5  -2  10 9.36099 2.28120   1
  -6   2 -10 0.99867 1.44978   1
   6  -2  10 -0.1661 1.21794   1
   7   1 -10 13.8920 2.52243   4
   7   1 -10 11.1527 2.56306   1
   6   1 -10 1.69062 1.57329   1
   6   1 -10 1.50887 1.25543   4
   5   1 -10 13.5325 2.52870   1
   5   1 -10 19.1030 2.63827   4
   4   1 -10 4.97297 1.75950   1
   4   1 -10 8.17672 1.80398   4
   3   1 -10 28.8244 3.43066   1
   3   1 -10 20.3702 2.47664   4
   2   1 -10 108.526 6.23704   1
   2   1 -10 119.029 5.73042   4
   1   1 -10 -0.3670 1.00759   1
  -1  -1  10 -0.3114 1.04580   1
   0   1 -10 213.574 9.78397   1
   0  -1  10 221.743 9.62362   1
  -1   1 -10 23.0607 3.08334   1
   1  -1  10 22.0419 2.96050   1
  -2   1 -10 12.0558 2.33891   1
   2  -1  10 16.3729 2.39091   3
   2  -1  10 11.7433 2.30660   1
  -3   1 -10 17.4270 2.87591   1
   3  -1  10 14.9104 2.52470   1
  -4   1 -10 17.8223 3.07166   1
   4  -1  10 13.7601 2.58799   1
  -5   1 -10 2.08234 1.58599   1
   5  -1  10 1.86843 1.44546   1
  -6   1 -10 8.95027 2.53125   1
   6  -1  10 13.0960 2.75889   1
   7   0 -10 0.77861 1.48503   1
   7   0 -10 -0.0868 1.28122   4
   6   0 -10 81.4891 5.57670   1
   6   0 -10 76.7108 4.94963   4
   5   0 -10 10.7809 2.04114   4
   5   0 -10 11.8524 2.55645   1
   4   0 -10 1.53651 1.44697   1
   4   0 -10 2.81025 1.28967   4
   3   0 -10 11.3259 2.33856   1
   3   0 -10 17.2841 2.31713   4
   2   0 -10 37.5427 3.32071   4
   2   0 -10 31.6164 3.62034   1
  -2   0  10 30.9178 3.56025   1
   1   0 -10 7.41291 1.93180   1
   1   0 -10 5.64232 1.40224   4
  -1   0  10 8.32262 1.98472   1
   0   0 -10 117.321 6.67615   1
   0   0  10 131.943 6.86074   1
  -1   0 -10 -1.1393 1.00954   1
   1   0  10 2.10094 1.33274   1
   1   0  10 2.52077 1.09856   3
  -2   0 -10 22.7354 3.30346   1
   2   0  10 20.5825 2.99626   1
   2   0  10 25.0550 2.92131   3
  -3   0 -10 128.368 7.08333   1
   3   0  10 118.424 6.96680   1
  -4   0 -10 0.68220 1.22417   1
   4   0  10 -0.0212 1.26059   1
  -5   0 -10 11.9357 2.55658   1
   5   0  10 4.68781 2.09086   1
   6  -1 -10 18.4019 3.20558   1
   6  -1 -10 16.2753 2.65961   4
   5  -1 -10 42.2843 3.97166   4
   5  -1 -10 41.3999 4.56038   1
   4  -1 -10 6.66952 1.64883   4
   4  -1 -10 5.47063 1.95473   1
   3  -1 -10 41.7104 4.34099   1
   3  -1 -10 49.4618 3.42328   4
  -3   1  10 46.7151 4.60162   1
   2  -1 -10 12.2418 1.93456   4
   2  -1 -10 11.8325 2.38836   1
  -2   1  10 9.00174 2.20686   1
   1  -1 -10 1.83082 0.99102   4
   1  -1 -10 0.28685 1.25712   1
  -1   1  10 0.79983 1.28735   1
   0  -1 -10 -0.9877 0.68264   4
   0  -1 -10 -1.1977 1.15178   1
   0   1  10 0.83999 1.35894   1
   0   1  10 1.38870 1.18396   3
  -1  -1 -10 0.76373 1.14964   1
   1   1  10 1.77333 1.23739   3
   1   1  10 0.42832 1.25013   1
  -2  -1 -10 9.81780 2.48340   1
   2   1  10 7.65273 2.01803   3
   2   1  10 8.47911 2.19791   1
  -3  -1 -10 18.0701 3.01370   1
   3   1  10 14.2505 2.93884   1
   3   1  10 15.3075 2.76998   3
  -4  -1 -10 14.0814 2.68689   1
   4   1  10 11.7396 2.67689   1
   5  -2 -10 1.12462 1.22943   4
   5  -2 -10 0.80784 1.55619   1
   4  -2 -10 19.8194 2.56672   4
   4  -2 -10 17.0745 3.05065   1
   3  -2 -10 1.41412 1.07726   4
   3  -2 -10 -1.1557 1.05920   1
  -3   2  10 0.96976 1.28845   1
   2  -2 -10 0.22775 0.96077   4
   2  -2 -10 1.07836 1.21252   1
  -2   2  10 -0.7641 0.93584   1
   1  -2 -10 47.5325 4.70424   1
   1  -2 -10 41.8694 2.98895   4
  -1   2  10 45.6608 4.61010   1
  -1   2  10 42.7635 4.34269   3
   0  -2 -10 0.14828 1.28899   1
   0  -2 -10 -0.5208 0.68095   4
   0   2  10 -0.1353 1.15756   1
   0   2  10 1.28575 1.35883   3
  -1  -2 -10 6.75143 2.04717   1
   1   2  10 13.0807 2.80886   1
   1   2  10 6.30244 2.01396   3
  -2  -2 -10 24.5835 3.45896   1
   2   2  10 25.7004 3.65657   1
   2   2  10 20.7541 3.30075   3
   3   2  10 10.2947 2.51965   3
   3   2  10 11.7813 2.78672   1
   4  -3 -10 2.83810 1.31209   4
   4  -3 -10 3.91870 1.92554   1
   3  -3 -10 5.28585 1.52896   4
   3  -3 -10 1.82957 1.65765   1
  -3   3  10 3.53334 1.92877   1
   2  -3 -10 1.18504 1.60004   1
  -2   3  10 2.81084 1.68364   1
   1  -3 -10 0.21289 1.53561   1
  -1   3  10 -0.9516 1.21047   1
  -1   3  10 1.37102 1.46678   3
   0  -3 -10 2.91074 2.10391   1
   0   3  10 3.79295 1.88374   3
   0   3  10 1.82376 1.59442   1
   1   3  10 5.15428 2.09901   3
   1   3  10 0.56333 1.48550   1
   2   3  10 0.93562 1.67619   3
   2   3  10 0.87037 1.66141   1
   1   9 -11 83.1512 4.71602   1
   0   9 -11 2.49580 1.39599   1
  -1   9 -11 27.1967 3.17525   1
  -1   9 -11 18.7629 2.90046   6
   3   8 -11 175.919 8.25253   4
   3   8 -11 174.203 7.63035   1
   2   8 -11 34.8128 3.21358   1
   2   8 -11 35.0718 2.95977   6
   1   8 -11 10.5493 1.92490   1
   1   8 -11 7.43371 1.78289   6
   0   8 -11 22.9088 2.72740   1
   0   8 -11 15.0790 2.51823   6
  -1   8 -11 0.20490 1.07945   6
  -1   8 -11 -0.7126 1.02645   1
  -2   8 -11 52.5614 4.11318   1
  -2   8 -11 51.3260 4.44789   6
  -3   8 -11 8.82891 2.31206   1
   4   7 -11 177.078 7.85410   1
   4   7 -11 181.008 8.42916   4
   4   7 -11 172.842 8.00290   6
   3   7 -11 29.0151 3.06694   6
   3   7 -11 32.0295 3.13640   1
   3   7 -11 31.8623 3.38686   4
   2   7 -11 177.529 8.25789   6
   2   7 -11 192.486 8.19803   1
   1   7 -11 19.0480 2.60113   6
   1   7 -11 22.6264 2.75130   1
   0   7 -11 0.01154 1.01047   1
   0   7 -11 0.35255 1.10473   6
  -1   7 -11 -0.2445 1.01566   1
  -1   7 -11 -0.3532 1.05851   6
  -2   7 -11 16.3798 2.84736   6
  -2   7 -11 19.8076 2.87974   1
  -3   7 -11 2.01755 1.38624   1
  -4   7 -11 93.8793 6.12190   1
   5   6 -11 59.7599 4.09520   1
   5   6 -11 56.9902 4.08835   6
   5   6 -11 58.6635 4.32112   4
   4   6 -11 57.1343 4.02936   6
   4   6 -11 56.1832 4.02410   1
   4   6 -11 66.4822 4.42494   4
   3   6 -11 74.4743 4.67338   6
   3   6 -11 75.9901 4.65831   1
   3   6 -11 83.3100 4.85894   4
   2   6 -11 40.8009 3.72071   1
   2   6 -11 37.6869 3.92360   6
   1   6 -11 62.5152 4.17657   1
   1   6 -11 60.3799 4.29973   6
   0   6 -11 34.3997 3.97440   6
   0   6 -11 34.1363 3.49575   1
  -1   6 -11 136.394 7.51305   6
  -1   6 -11 143.259 7.09435   1
  -2   6 -11 24.1129 3.18721   1
  -2   6 -11 21.1922 3.71529   6
  -3   6 -11 92.2062 5.80594   1
  -4   6 -11 1.77669 1.55768   1
  -5   6 -11 0.90038 1.47558   1
   6   5 -11 7.94026 1.96193   6
   6   5 -11 6.82560 1.91774   1
   6   5 -11 6.27754 1.82731   4
   5   5 -11 39.6481 3.81144   1
   5   5 -11 37.4347 3.81090   4
   5   5 -11 31.4105 3.57833   6
   4   5 -11 6.02947 1.69599   6
   4   5 -11 10.6584 2.13760   4
   4   5 -11 5.40554 1.71665   1
   3   5 -11 81.1129 4.80840   1
   3   5 -11 75.1968 4.89610   6
   3   5 -11 79.7028 4.80097   4
   2   5 -11 28.3725 3.12780   1
   2   5 -11 26.3711 3.40047   6
   1   5 -11 13.7666 2.23710   1
   1   5 -11 13.2808 2.42825   6
   0   5 -11 7.34562 2.13582   6
   0   5 -11 11.5859 2.26178   1
  -1   5 -11 152.096 8.14189   6
  -1   5 -11 153.978 7.62528   1
  -2   5 -11 5.22052 1.84144   1
  -3   5 -11 59.9995 4.56930   1
  -4   5 -11 28.2621 3.68724   1
  -5   5 -11 11.7309 2.74908   1
   6   4 -11 -0.5405 1.26258   4
   6   4 -11 0.83728 1.22598   1
   5   4 -11 1.39602 1.24704   4
   5   4 -11 2.24330 1.45953   1
   5   4 -11 1.13695 1.31613   6
   4   4 -11 -0.5476 1.04835   1
   4   4 -11 0.01493 0.99000   6
   4   4 -11 2.79533 1.18813   4
   3   4 -11 2.55019 1.42691   1
   3   4 -11 3.03783 1.29405   4
   3   4 -11 0.51493 1.15448   6
   2   4 -11 -0.9744 0.76271   6
   2   4 -11 -0.1339 1.03842   1
   1   4 -11 35.6976 3.69869   1
   1   4 -11 24.9622 3.26201   6
   0   4 -11 60.5293 4.29542   1
   0   4 -11 59.3482 4.68244   6
  -1   4 -11 8.63378 2.07757   1
  -2   4 -11 20.3789 2.87526   1
  -3   4 -11 60.8182 4.58535   1
  -4   4 -11 1.51857 1.43270   1
  -5   4 -11 36.0077 4.33060   1
   6   3 -11 10.1774 2.19358   4
   6   3 -11 15.0194 2.75913   1
   5   3 -11 1.20231 1.36514   1
   5   3 -11 1.79657 1.19130   4
   4   3 -11 5.42013 1.77768   1
   4   3 -11 4.99807 1.61692   4
   3   3 -11 30.2076 3.26257   4
   3   3 -11 27.3630 3.31296   1
   3   3 -11 20.3816 2.95576   6
   2   3 -11 67.6387 4.91826   6
   2   3 -11 69.3367 4.74255   1
   2   3 -11 74.1954 4.41378   4
   1   3 -11 2.86543 1.36944   1
   0   3 -11 0.71281 1.11836   1
  -1   3 -11 118.012 6.55201   1
  -2   3 -11 134.101 7.25551   1
  -3   3 -11 35.8749 4.13032   1
  -4   3 -11 70.6527 5.17207   1
  -5   3 -11 25.8066 3.80412   1
   6   2 -11 7.03768 1.93990   4
   6   2 -11 8.79424 2.41619   1
   5   2 -11 1.49909 1.17639   4
   5   2 -11 2.56674 1.74199   1
   4   2 -11 2.09074 1.27686   4
   4   2 -11 2.95921 1.64576   1
   3   2 -11 5.63585 1.83933   1
   3   2 -11 7.29981 1.72491   4
   2   2 -11 79.8122 4.76187   4
   2   2 -11 86.3620 5.42607   1
   1   2 -11 11.1881 2.29139   1
   0   2 -11 26.3925 3.50240   1
  -1   2 -11 1.12514 1.28984   1
  -2   2 -11 65.8199 4.96109   1
  -3   2 -11 0.99856 1.33892   1
  -4   2 -11 14.0052 2.89393   1
  -5   2 -11 36.1224 4.27219   1
   6   1 -11 18.5686 2.96601   4
   6   1 -11 24.3761 3.72700   1
   5   1 -11 0.13582 1.06995   4
   5   1 -11 0.43082 1.27531   1
   4   1 -11 3.24372 1.70731   1
   4   1 -11 2.37780 1.41663   4
   3   1 -11 31.2176 3.34662   4
   3   1 -11 25.2213 3.42253   1
   2   1 -11 1.97966 1.45510   1
   2   1 -11 1.22731 1.22572   4
   1   1 -11 4.61987 1.70755   1
   1   1 -11 1.96740 1.02686   4
   0   1 -11 3.14402 1.65350   1
  -1   1 -11 3.50665 1.54426   1
  -2   1 -11 0.57880 1.37222   1
   2  -1  11 1.14752 2.17129   1
  -3   1 -11 8.50284 2.24999   1
   3  -1  11 6.94681 2.17018   1
  -4   1 -11 3.74779 1.84050   1
   4  -1  11 5.59913 2.96733   1
   5   0 -11 27.9781 3.89872   1
   5   0 -11 36.3492 3.82159   4
   4   0 -11 68.8850 4.60739   4
   4   0 -11 71.8488 5.37638   1
   3   0 -11 1.28340 1.21737   4
   3   0 -11 3.46538 1.60510   1
   2   0 -11 1.48599 1.18856   4
   2   0 -11 3.30905 1.66527   1
   1   0 -11 6.69908 1.54463   4
   1   0 -11 8.46878 2.26208   1
   0   0 -11 1.91278 1.50107   1
   0   0 -11 1.71264 1.07151   4
   0   0  11 2.18283 1.76602   1
  -1   0 -11 4.54094 1.78715   1
   1   0  11 0.54280 1.33481   1
  -2   0 -11 2.44883 1.60103   1
   2   0  11 0.10035 1.34737   1
  -3   0 -11 20.3383 3.30206   1
   3   0  11 21.6823 3.29385   1
  -4   0 -11 2.14483 1.54484   1
   4   0  11 -0.4114 1.39031   1
   4  -1 -11 38.4501 4.50519   1
   4  -1 -11 44.2536 3.99513   4
   3  -1 -11 12.4669 2.15131   4
   3  -1 -11 9.31933 2.43275   1
   2  -1 -11 6.73549 2.20050   1
   2  -1 -11 11.3775 1.98107   4
   1  -1 -11 2.78029 1.21346   4
   1  -1 -11 1.76421 1.54232   1
  -1   1  11 1.71274 1.79715   1
   0  -1 -11 9.73072 2.48099   1
   0  -1 -11 6.93936 1.54420   4
   0   1  11 9.23310 2.39248   1
  -1  -1 -11 3.84964 1.21875   4
  -1  -1 -11 4.25843 1.86255   1
   1   1  11 0.42135 1.32826   1
  -2  -1 -11 0.58881 1.44254   1
   2   1  11 -0.8762 1.36105   1
  -3  -1 -11 22.3978 3.45949   1
   3   1  11 17.2724 3.40763   1
   3  -2 -11 3.06641 1.36196   4
   3  -2 -11 6.96225 2.44740   1
   2  -2 -11 16.2797 2.26729   4
   2  -2 -11 15.0613 2.94860   1
   1  -2 -11 -0.3891 1.41044   1
  -1   2  11 0.92040 1.50745   1
   0  -2 -11 13.5589 2.97141   1
   0   2  11 11.5277 2.87254   1
  -1  -2 -11 6.06925 2.11250   1
   1   2  11 6.01392 2.37447   1
   0   8 -12 17.8461 2.70865   1
   0   8 -12 19.5168 3.09540   6
   3   7 -12 52.5692 4.66333   4
   3   7 -12 52.4864 3.94101   1
   3   7 -12 46.6518 3.89880   6
   2   7 -12 4.41057 1.58202   1
   2   7 -12 7.86220 1.91363   6
   1   7 -12 5.82354 1.80636   6
   1   7 -12 7.47484 1.95030   1
   0   7 -12 2.99328 1.68040   6
   0   7 -12 5.50802 1.71033   1
  -1   7 -12 15.6131 2.78876   1
  -2   7 -12 0.84797 1.32833   1
   4   6 -12 2.83811 1.39919   1
   4   6 -12 1.34948 1.38998   4
   4   6 -12 1.31269 1.28536   6
   3   6 -12 49.2254 3.88152   1
   3   6 -12 44.0275 3.87715   6
   3   6 -12 48.7868 4.47003   4
   2   6 -12 44.0889 3.95775   6
   2   6 -12 56.4728 4.09572   1
   1   6 -12 0.78662 1.26958   1
   1   6 -12 2.03042 1.24800   6
   0   6 -12 76.5327 5.58546   6
   0   6 -12 93.1560 5.48461   1
  -1   6 -12 32.6581 3.67021   1
  -2   6 -12 37.7321 4.13248   1
  -3   6 -12 35.5438 4.29637   1
   4   5 -12 25.7516 3.23993   1
   4   5 -12 24.1397 3.31617   6
   4   5 -12 27.7830 3.31786   4
   3   5 -12 7.22859 1.97739   6
   3   5 -12 7.59357 2.02710   1
   3   5 -12 5.20422 1.67910   4
   2   5 -12 0.81162 1.41668   6
   2   5 -12 1.89544 1.34781   1
   1   5 -12 0.32657 1.23035   1
   1   5 -12 0.08266 1.24189   6
   0   5 -12 27.4081 3.53432   1
  -1   5 -12 12.9056 2.56374   1
  -2   5 -12 1.39844 1.45720   1
  -3   5 -12 0.98058 1.50925   1
  -4   5 -12 13.3332 2.86651   1
   5   4 -12 0.46437 1.23067   4
   4   4 -12 1.52491 1.36156   4
   4   4 -12 0.06555 1.27589   1
   3   4 -12 2.27655 1.27524   4
   3   4 -12 2.54921 1.52218   1
   2   4 -12 0.24868 1.33169   1
   1   4 -12 2.28549 1.51604   1
   0   4 -12 5.47037 1.89156   1
  -1   4 -12 36.9186 4.11102   1
  -2   4 -12 0.21343 1.28515   1
  -3   4 -12 0.53848 1.45553   1
  -4   4 -12 23.0423 3.53805   1
   5   3 -12 22.4004 3.49183   1
   5   3 -12 16.4760 2.72216   4
   4   3 -12 36.5901 3.90696   4
   4   3 -12 38.9003 4.25221   1
   3   3 -12 110.449 6.62679   1
   3   3 -12 107.177 6.04398   4
   2   3 -12 133.846 7.18364   1
   2   3 -12 124.682 6.56740   4
   1   3 -12 2.88076 1.57078   1
   0   3 -12 251.237 11.4025   1
  -1   3 -12 42.5095 4.52152   1
  -2   3 -12 0.86931 1.32497   1
  -3   3 -12 37.5566 4.48423   1
   4   2 -12 0.69335 1.20371   4
   4   2 -12 -1.2002 1.37996   1
   3   2 -12 19.1643 2.72164   4
   3   2 -12 22.9532 3.42284   1
   2   2 -12 0.17273 1.16195   1
   2   2 -12 -0.0969 1.03529   4
   1   2 -12 21.6358 3.23226   1
   1   2 -12 20.8560 2.79052   4
   0   2 -12 52.4950 5.01147   1
  -1   2 -12 4.87607 1.96616   1
  -2   2 -12 6.67611 2.22129   1
  -3   2 -12 47.9062 4.90775   1
   4   1 -12 50.1287 5.25891   1
   4   1 -12 69.7153 4.66312   4
   3   1 -12 -0.4321 1.37851   1
   3   1 -12 3.01370 1.37302   4
   2   1 -12 9.10931 2.55811   1
   2   1 -12 11.8641 2.24441   4
   1   1 -12 41.9864 4.65309   1
   1   1 -12 37.3185 3.64720   4
   0   1 -12 -0.2418 1.28093   1
  -1   1 -12 7.52534 2.28862   1
  -2   1 -12 36.2497 4.33745   1
   3   0 -12 2.06189 1.80331   1
   3   0 -12 -0.0573 1.16613   4
   2   0 -12 -1.3270 1.29100   1
   2   0 -12 2.12895 1.36086   4
   1   0 -12 21.6987 2.75543   4
   1   0 -12 31.1650 4.18375   1
   0   0 -12 5.64984 2.17745   1
   0   0 -12 2.44664 1.28803   4
  -1   0 -12 22.2974 3.57385   1
   2   5 -13 3.76640 1.59723   4
   1   5 -13 14.9413 2.78809   1
   0   5 -13 16.9052 2.99709   1
  -1   5 -13 0.10187 1.45619   1
   2   4 -13 81.9887 5.73524   1
   2   4 -13 85.1000 5.31878   4
   1   4 -13 19.6773 3.28529   1
   0   4 -13 17.9203 3.11575   1
  -1   4 -13 5.01015 2.01706   1
   2   3 -13 2.78582 1.46969   4
   2   3 -13 0.82431 1.58735   1
   1   3 -13 0.57254 1.52370   1
   0   3 -13 4.73907 2.06781   1
   0   0   0    0.00    0.00   0

 _exptl_absorpt_process_details 'SADABS 2014/4'
 _exptl_absorpt_correction_type   multiscan
 _exptl_absorpt_correction_T_max  0.9485
 _exptl_absorpt_correction_T_min  0.8595
 _exptl_special_details
)
 The following wavelength and cell were deduced by SADABS from the
 direction cosines etc. They are given here for emergency use only:
 CELL 0.71100    8.883    9.014   10.547  111.273   92.513   94.256
)

;
_shelx_hkl_checksum              24709
#END Tags that were not found in dictionaries
loop_
_space_group_symop_operation_xyz
'x, y, z'
'-x, -y, -z'
loop_
_atom_site_label
_atom_site_type_symbol
_atom_site_fract_x
_atom_site_fract_y
_atom_site_fract_z
_atom_site_U_iso_or_equiv
_atom_site_adp_type
_atom_site_occupancy
_atom_site_site_symmetry_order
_atom_site_calc_flag
_atom_site_refinement_flags_posn
_atom_site_refinement_flags_adp
S1 S 0.82678(6) 0.37264(6) 0.85131(5) 0.03143(19) Uani 1 1 d . .
F1 F 0.79588(13) 1.47738(13) 1.45533(11) 0.0285(3) Uani 1 1 d . .
O1 O 0.92042(18) 0.24065(19) 0.80725(17) 0.0393(4) Uani 1 1 d . .
O2 O 0.80666(18) 0.4455(2) 0.99467(16) 0.0390(4) Uani 1 1 d . .
N1 N 0.86162(19) 0.7886(2) 0.96644(18) 0.0302(4) Uani 1 1 d . .
H11 H 0.9249 0.7823 1.0305 0.036 Uiso 1 1 calc R U
C1 C 0.2066(3) 0.1479(3) 0.5510(3) 0.0474(6) Uani 1 1 d . .
H16 H 0.1757 0.0404 0.5491 0.071 Uiso 1 1 calc R U
H2 H 0.2107 0.1447 0.4571 0.071 Uiso 1 1 calc R U
H1 H 0.1328 0.2213 0.5984 0.071 Uiso 1 1 calc R U
C2 C 0.3610(2) 0.2054(3) 0.6256(2) 0.0349(5) Uani 1 1 d . .
C3 C 0.4904(3) 0.1961(3) 0.5539(2) 0.0362(5) Uani 1 1 d . .
H13 H 0.4811 0.1542 0.4566 0.043 Uiso 1 1 calc R U
C4 C 0.6322(2) 0.2468(3) 0.6216(2) 0.0339(5) Uani 1 1 d . .
H14 H 0.7201 0.2392 0.5712 0.041 Uiso 1 1 calc R U
C5 C 0.6460(2) 0.3089(2) 0.7633(2) 0.0297(5) Uani 1 1 d . .
C6 C 0.9072(2) 0.5236(3) 0.7939(2) 0.0313(5) Uani 1 1 d . .
H4 H 1.0155 0.5500 0.8278 0.038 Uiso 1 1 calc R U
H12 H 0.9031 0.4793 0.6925 0.038 Uiso 1 1 calc R U
C7 C 0.8304(2) 0.6729(3) 0.8392(2) 0.0323(5) Uani 1 1 d . .
C8 C 0.7794(2) 0.9169(3) 0.9799(2) 0.0325(5) Uani 1 1 d . .
C9 C 0.7855(2) 1.0584(3) 1.1052(2) 0.0311(5) Uani 1 1 d . .
C10 C 0.8917(2) 1.0862(3) 1.2152(2) 0.0349(5) Uani 1 1 d . .
H5 H 0.9625 1.0102 1.2098 0.042 Uiso 1 1 calc R U
C11 C 0.8951(2) 1.2228(3) 1.3319(2) 0.0361(5) Uani 1 1 d . .
H8 H 0.9674 1.2412 1.4065 0.043 Uiso 1 1 calc R U
C12 C 0.7921(3) 1.3316(3) 1.3381(3) 0.0358(5) Uani 1 1 d . .
C13 C 0.3773(3) 0.2682(3) 0.7668(2) 0.0362(5) Uani 1 1 d . .
H3 H 0.2896 0.2754 0.8172 0.043 Uiso 1 1 calc R U
C14 C 0.5187(2) 0.3210(3) 0.8368(2) 0.0333(5) Uani 1 1 d . .
H15 H 0.5279 0.3649 0.9341 0.040 Uiso 1 1 calc R U
C15 C 0.6848(3) 1.3088(3) 1.2329(3) 0.0404(6) Uani 1 1 d . .
H7 H 0.6142 1.3853 1.2397 0.049 Uiso 1 1 calc R U
C16 C 0.6825(3) 1.1726(3) 1.1180(3) 0.0388(5) Uani 1 1 d . .
H6 H 0.6086 1.1551 1.0448 0.047 Uiso 1 1 calc R U
C17 C 0.6953(3) 0.8791(3) 0.8570(2) 0.0380(5) Uani 1 1 d . .
H10 H 0.6277 0.9450 0.8354 0.046 Uiso 1 1 calc R U
C18 C 0.7269(3) 0.7267(3) 0.7698(3) 0.0383(5) Uani 1 1 d . .
H9 H 0.6843 0.6706 0.6788 0.046 Uiso 1 1 calc R U
loop_
_atom_site_aniso_label
_atom_site_aniso_U_11
_atom_site_aniso_U_22
_atom_site_aniso_U_33
_atom_site_aniso_U_23
_atom_site_aniso_U_13
_atom_site_aniso_U_12
S1 0.0302(3) 0.0400(3) 0.0313(3) 0.0224(2) 0.0002(2) 0.0001(2)
F1 0.0337(6) 0.0276(6) 0.0178(6) 0.0021(5) 0.0009(5) -0.0024(5)
O1 0.0357(8) 0.0443(9) 0.0470(10) 0.0273(8) -0.0006(7) 0.0062(7)
O2 0.0421(9) 0.0501(10) 0.0302(9) 0.0233(7) -0.0006(7) -0.0049(7)
N1 0.0247(8) 0.0404(10) 0.0331(10) 0.0233(8) -0.0007(7) 0.0005(7)
C1 0.0332(12) 0.0632(16) 0.0559(16) 0.0356(14) -0.0028(11) -0.0018(11)
C2 0.0321(11) 0.0380(12) 0.0421(13) 0.0243(10) 0.0003(9) 0.0004(9)
C3 0.0366(12) 0.0446(13) 0.0307(12) 0.0189(10) 0.0016(9) -0.0017(10)
C4 0.0316(11) 0.0418(12) 0.0326(12) 0.0188(10) 0.0071(9) 0.0006(9)
C5 0.0291(10) 0.0338(11) 0.0324(11) 0.0198(9) 0.0023(8) 0.0012(8)
C6 0.0273(10) 0.0419(12) 0.0310(11) 0.0218(10) 0.0011(8) -0.0015(9)
C7 0.0271(10) 0.0423(12) 0.0349(12) 0.0244(10) 0.0006(8) -0.0025(9)
C8 0.0241(10) 0.0433(12) 0.0408(13) 0.0282(10) 0.0024(9) 0.0018(9)
C9 0.0236(9) 0.0397(12) 0.0408(12) 0.0275(10) 0.0052(9) 0.0011(8)
C10 0.0266(10) 0.0450(13) 0.0422(13) 0.0258(11) 0.0055(9) 0.0078(9)
C11 0.0296(11) 0.0472(13) 0.0397(13) 0.0250(11) 0.0043(9) 0.0055(9)
C12 0.0315(11) 0.0395(12) 0.0447(13) 0.0253(10) 0.0083(10) 0.0013(9)
C13 0.0308(11) 0.0430(12) 0.0436(13) 0.0254(11) 0.0099(10) 0.0050(9)
C14 0.0362(11) 0.0370(11) 0.0322(11) 0.0185(9) 0.0081(9) 0.0045(9)
C15 0.0347(12) 0.0400(13) 0.0567(16) 0.0284(12) 0.0054(11) 0.0093(10)
C16 0.0296(11) 0.0461(13) 0.0525(15) 0.0326(12) -0.0028(10) 0.0032(9)
C17 0.0296(11) 0.0481(13) 0.0451(14) 0.0281(11) -0.0029(10) 0.0037(9)
C18 0.0306(11) 0.0516(14) 0.0388(13) 0.0258(11) -0.0046(9) -0.0009(10)
loop_
_atom_type_symbol
_atom_type_description
_atom_type_scat_dispersion_real
_atom_type_scat_dispersion_imag
_atom_type_scat_source
C C 0.0033 0.0016 'International Tables Vol C Tables 4.2.6.8 and 6.1.1.4'
H H 0.0000 0.0000 'International Tables Vol C Tables 4.2.6.8 and 6.1.1.4'
N N 0.0061 0.0033 'International Tables Vol C Tables 4.2.6.8 and 6.1.1.4'
O O 0.0106 0.0060 'International Tables Vol C Tables 4.2.6.8 and 6.1.1.4'
F F 0.0171 0.0103 'International Tables Vol C Tables 4.2.6.8 and 6.1.1.4'
S S 0.1246 0.1234 'International Tables Vol C Tables 4.2.6.8 and 6.1.1.4'
loop_
_geom_angle_atom_site_label_1
_geom_angle_atom_site_label_2
_geom_angle_atom_site_label_3
_geom_angle
O2 S1 O1 117.88(10)
O2 S1 C5 108.28(10)
O1 S1 C5 108.73(10)
O2 S1 C6 108.41(10)
O1 S1 C6 107.30(10)
C5 S1 C6 105.57(10)
C7 N1 C8 110.01(18)
C7 N1 H11 125.0
C8 N1 H11 125.0
C2 C1 H16 109.5
C2 C1 H2 109.5
H16 C1 H2 109.5
C2 C1 H1 109.5
H16 C1 H1 109.5
H2 C1 H1 109.5
C13 C2 C3 118.4(2)
C13 C2 C1 120.9(2)
C3 C2 C1 120.7(2)
C4 C3 C2 121.0(2)
C4 C3 H13 119.5
C2 C3 H13 119.5
C3 C4 C5 119.6(2)
C3 C4 H14 120.2
C5 C4 H14 120.2
C14 C5 C4 120.4(2)
C14 C5 S1 119.46(17)
C4 C5 S1 120.14(16)
C7 C6 S1 114.20(14)
C7 C6 H4 108.7
S1 C6 H4 108.7
C7 C6 H12 108.7
S1 C6 H12 108.7
H4 C6 H12 107.6
N1 C7 C18 107.6(2)
N1 C7 C6 121.92(19)
C18 C7 C6 130.4(2)
N1 C8 C17 106.6(2)
N1 C8 C9 123.25(19)
C17 C8 C9 130.2(2)
C10 C9 C16 117.7(2)
C10 C9 C8 122.49(19)
C16 C9 C8 119.8(2)
C11 C10 C9 120.8(2)
C11 C10 H5 119.6
C9 C10 H5 119.6
C12 C11 C10 118.9(2)
C12 C11 H8 120.6
C10 C11 H8 120.6
C11 C12 C15 122.4(2)
C11 C12 F1 120.4(2)
C15 C12 F1 117.2(2)
C2 C13 C14 121.5(2)
C2 C13 H3 119.2
C14 C13 H3 119.2
C5 C14 C13 119.1(2)
C5 C14 H15 120.5
C13 C14 H15 120.5
C16 C15 C12 118.1(2)
C16 C15 H7 120.9
C12 C15 H7 120.9
C15 C16 C9 122.1(2)
C15 C16 H6 119.0
C9 C16 H6 119.0
C8 C17 C18 108.0(2)
C8 C17 H10 126.0
C18 C17 H10 126.0
C7 C18 C17 107.8(2)
C7 C18 H9 126.1
C17 C18 H9 126.1
loop_
_geom_bond_atom_site_label_1
_geom_bond_atom_site_label_2
_geom_bond_distance
S1 O2 1.4316(17)
S1 O1 1.4457(17)
S1 C5 1.763(2)
S1 C6 1.793(2)
F1 C12 1.433(3)
N1 C7 1.365(3)
N1 C8 1.378(3)
N1 H11 0.8800
C1 C2 1.506(3)
C1 H16 0.9800
C1 H2 0.9800
C1 H1 0.9800
C2 C13 1.379(3)
C2 C3 1.386(3)
C3 C4 1.378(3)
C3 H13 0.9500
C4 C5 1.384(3)
C4 H14 0.9500
C5 C14 1.379(3)
C6 C7 1.481(3)
C6 H4 0.9900
C6 H12 0.9900
C7 C18 1.371(3)
C8 C17 1.381(3)
C8 C9 1.457(3)
C9 C10 1.398(3)
C9 C16 1.398(3)
C10 C11 1.382(3)
C10 H5 0.9500
C11 C12 1.373(3)
C11 H8 0.9500
C12 C15 1.375(4)
C13 C14 1.385(3)
C13 H3 0.9500
C14 H15 0.9500
C15 C16 1.370(4)
C15 H7 0.9500
C16 H6 0.9500
C17 C18 1.402(4)
C17 H10 0.9500
C18 H9 0.9500
