#------------------------------------------------------------------------------
#$Date: 2016-02-18 17:37:37 +0200 (Thu, 18 Feb 2016) $
#$Revision: 176729 $
#$URL: svn://www.crystallography.net/cod/cif/1/51/87/1518757.cif $
#------------------------------------------------------------------------------
#
# This file is available in the Crystallography Open Database (COD),
# http://www.crystallography.net/
#
# All data on this site have been placed in the public domain by the
# contributors.
#
data_1518757
loop_
_publ_author_name
'Kong, Lingbing'
'Ganguly, Rakesh'
'Li, Yongxin'
'Kinjo, Rei'
_publ_section_title
;
 Diverse reactivity of a tricoordinate organoboron L2PhB: (L =
 oxazol-2-ylidene) towards alkali metal, group 9 metal, and coinage metal
 precursors
;
_journal_issue                   5
_journal_name_full               'Chem. Sci.'
_journal_page_first              2893
_journal_paper_doi               10.1039/C5SC00404G
_journal_volume                  6
_journal_year                    2015
_chemical_formula_sum            'C19 H27 B F3 Li N2 O5 S'
_chemical_formula_weight         470.23
_space_group_crystal_system      triclinic
_space_group_IT_number           2
_space_group_name_Hall           '-P 1'
_space_group_name_H-M_alt        'P -1'
_symmetry_space_group_name_Hall  '-P 1'
_symmetry_space_group_name_H-M   'P -1'
_atom_sites_solution_hydrogens   geom
_audit_update_record
;
2014-12-10 deposited with the CCDC.
2015-02-22 downloaded from the CCDC.
;
_cell_angle_alpha                96.176(5)
_cell_angle_beta                 93.242(5)
_cell_angle_gamma                97.646(6)
_cell_formula_units_Z            2
_cell_length_a                   5.9513(6)
_cell_length_b                   10.9562(11)
_cell_length_c                   17.3953(15)
_cell_measurement_reflns_used    1130
_cell_measurement_temperature    103.(2)
_cell_measurement_theta_max      20.8774
_cell_measurement_theta_min      2.8460
_cell_volume                     1114.73(19)
_computing_cell_refinement       'SAINT V8.34A (Bruker AXS Inc., 2013)'
_computing_data_collection       'APEX2 (Bruker AXS Inc., 2013)'
_computing_data_reduction        'SAINT V8.34A (Bruker AXS Inc., 2013)'
_computing_molecular_graphics    'XP (Bruker AXS Inc., 2013)'
_computing_publication_material  'APEX2 (Bruker AXS Inc., 2013)'
_computing_structure_refinement  'SHELXL-2013 (Sheldrick, 2013)'
_diffrn_ambient_temperature      103.(2)
_diffrn_detector_area_resol_mean 8.3333
_diffrn_measured_fraction_theta_full 0.992
_diffrn_measured_fraction_theta_max 0.992
_diffrn_measurement_device_type  'CCD area detector'
_diffrn_measurement_method       'phi and omega scans'
_diffrn_radiation_monochromator  graphite
_diffrn_radiation_type           MoK\a
_diffrn_radiation_wavelength     0.71073
_diffrn_reflns_av_R_equivalents  0.1403
_diffrn_reflns_av_unetI/netI     0.1778
_diffrn_reflns_limit_h_max       7
_diffrn_reflns_limit_h_min       -7
_diffrn_reflns_limit_k_max       13
_diffrn_reflns_limit_k_min       -13
_diffrn_reflns_limit_l_max       21
_diffrn_reflns_limit_l_min       -21
_diffrn_reflns_number            15655
_diffrn_reflns_theta_full        26.46
_diffrn_reflns_theta_max         26.46
_diffrn_reflns_theta_min         2.36
_diffrn_source                   'fine-focus sealed tube'
_exptl_absorpt_coefficient_mu    0.203
_exptl_absorpt_correction_T_max  0.99
_exptl_absorpt_correction_T_min  0.98
_exptl_absorpt_process_details
;
;
_exptl_crystal_density_diffrn    1.401
_exptl_crystal_density_method    'not measured'
_exptl_crystal_description       block
_exptl_crystal_F_000             492
_exptl_crystal_size_max          0.120
_exptl_crystal_size_mid          0.080
_exptl_crystal_size_min          0.040
_refine_diff_density_max         0.347
_refine_diff_density_min         -0.459
_refine_ls_extinction_method     none
_refine_ls_goodness_of_fit_ref   0.996
_refine_ls_hydrogen_treatment    constr
_refine_ls_matrix_type           full
_refine_ls_number_parameters     295
_refine_ls_number_reflns         4579
_refine_ls_number_restraints     0
_refine_ls_restrained_S_all      0.996
_refine_ls_R_factor_all          0.1713
_refine_ls_R_factor_gt           0.0685
_refine_ls_shift/su_max          0.009
_refine_ls_shift/su_mean         0.000
_refine_ls_structure_factor_coef Fsqd
_refine_ls_weighting_details
'w=1/[\s^2^(Fo^2^)+(0.0423P)^2^] where P=(Fo^2^+2Fc^2^)/3'
_refine_ls_weighting_scheme      calc
_refine_ls_wR_factor_gt          0.1112
_refine_ls_wR_factor_ref         0.1408
_reflns_number_gt                2263
_reflns_number_total             4579
_reflns_threshold_expression     'I > 2\s(I)'
_cod_data_source_file            c5sc00404g2.cif
_cod_data_source_block           I
_cod_depositor_comments
'Adding full bibliography for 1518755--1518759.cif.'
_cod_database_code               1518757
#BEGIN Tags that were not found in dictionaries:
_shelx_res_file
;
TITL rei96 in P-1
CELL 0.71073   5.95130  10.95620  17.39530  96.1761  93.2422  97.6455
ZERR    2.00   0.00060   0.00110   0.00150   0.0048   0.0052   0.0061
LATT 1
SFAC C  H  B  N  O  S  F  Li
UNIT 38  54  2  4  10  2  6  2
omit     0   1   0
omit     0  -1   1
omit     0   1   1
L.S. 4
ACTA
BOND $H
FMAP 2
PLAN 20
SIZE 0.04 0.08 0.12
TEMP -170
WGHT    0.042300
FVAR       0.25240
B1    3    0.348640    0.339985    0.178765    11.00000    0.00990    0.01526 =
         0.01737    0.00413    0.00523    0.00205
C1    1    0.260941    0.454804    0.212861    11.00000    0.01255    0.01676 =
         0.00876    0.00284    0.00078   -0.00402
C2    1    0.077251    0.632841    0.234960    11.00000    0.01673    0.00963 =
         0.01675    0.00260    0.00380    0.00207
C3    1    0.143708    0.585843    0.310982    11.00000    0.02187    0.01822 =
         0.01648   -0.00404    0.00649    0.00779
AFIX  23
H3A   2    0.216855    0.655091    0.349311    11.00000   -1.20000
H3B   2    0.008777    0.543395    0.332912    11.00000   -1.20000
AFIX   0
C4    1    0.084650    0.529671    0.097392    11.00000    0.04094    0.02200 =
         0.01685    0.00230   -0.00363    0.01258
AFIX 137
H4A   2    0.218630    0.510608    0.070695    11.00000   -1.50000
H4B   2    0.051132    0.611778    0.086997    11.00000   -1.50000
H4C   2   -0.045823    0.467192    0.078555    11.00000   -1.50000
AFIX   0
C5    1   -0.171960    0.647701    0.227520    11.00000    0.01433    0.02202 =
         0.02558    0.00263    0.00387    0.00194
AFIX 137
H5A   2   -0.208121    0.676270    0.177382    11.00000   -1.50000
H5B   2   -0.204553    0.708659    0.269411    11.00000   -1.50000
H5C   2   -0.264596    0.567799    0.230950    11.00000   -1.50000
AFIX   0
C6    1    0.228995    0.752760    0.224613    11.00000    0.01782    0.01795 =
         0.02817    0.00362   -0.00043   -0.00048
AFIX 137
H6A   2    0.388763    0.741777    0.233532    11.00000   -1.50000
H6B   2    0.193913    0.820025    0.261880    11.00000   -1.50000
H6C   2    0.201780    0.773507    0.171782    11.00000   -1.50000
AFIX   0
C7    1    0.511284    0.284057    0.228423    11.00000    0.00976    0.01513 =
         0.01266   -0.00258    0.00451   -0.00224
C8    1    0.718924    0.147285    0.290200    11.00000    0.01626    0.01653 =
         0.01756    0.00264   -0.00339    0.00565
C9    1    0.795750    0.280022    0.323453    11.00000    0.01698    0.02394 =
         0.01962    0.00468   -0.00243    0.00871
AFIX  23
H9A   2    0.816313    0.287583    0.380724    11.00000   -1.20000
H9B   2    0.940629    0.312653    0.302856    11.00000   -1.20000
AFIX   0
C10   1    0.489738    0.069832    0.162428    11.00000    0.02019    0.01777 =
         0.02441    0.00027    0.00298    0.00547
AFIX 137
H10A  2    0.325034    0.058309    0.166863    11.00000   -1.50000
H10B  2    0.550742   -0.005781    0.173361    11.00000   -1.50000
H10C  2    0.521935    0.087298    0.109764    11.00000   -1.50000
AFIX   0
C11   1    0.917595    0.077934    0.272924    11.00000    0.02685    0.02606 =
         0.02201    0.00445    0.00139    0.00960
AFIX 137
H11A  2    0.860602   -0.005880    0.248063    11.00000   -1.50000
H11B  2    1.006225    0.072785    0.321402    11.00000   -1.50000
H11C  2    1.014456    0.122042    0.238131    11.00000   -1.50000
AFIX   0
C12   1    0.554401    0.081166    0.341093    11.00000    0.02597    0.02212 =
         0.02100    0.00846    0.00042    0.00375
AFIX 137
H12A  2    0.432455    0.130989    0.352172    11.00000   -1.50000
H12B  2    0.635759    0.069905    0.389830    11.00000   -1.50000
H12C  2    0.489008    0.000014    0.314059    11.00000   -1.50000
AFIX   0
C13   1    0.267608    0.277313    0.093642    11.00000    0.02030    0.01231 =
         0.01085    0.00324    0.00456    0.00347
C14   1    0.417983    0.270929    0.034851    11.00000    0.01053    0.02434 =
         0.02108    0.00267    0.00106    0.00168
AFIX  43
H14   2    0.570461    0.310097    0.045603    11.00000   -1.20000
AFIX   0
C15   1    0.352476    0.209297   -0.038843    11.00000    0.02279    0.02833 =
         0.01709    0.00446    0.00644    0.00858
AFIX  43
H15   2    0.459065    0.207359   -0.077447    11.00000   -1.20000
AFIX   0
C16   1    0.132165    0.151008   -0.055655    11.00000    0.02922    0.01932 =
         0.01381   -0.00328   -0.00470    0.00672
AFIX  43
H16   2    0.087600    0.106923   -0.105401    11.00000   -1.20000
AFIX   0
C17   1   -0.022897    0.157122    0.000164    11.00000    0.01751    0.01697 =
         0.02464    0.00180   -0.00328    0.00102
AFIX  43
H17   2   -0.175539    0.118631   -0.011352    11.00000   -1.20000
AFIX   0
C18   1    0.044901    0.219896    0.073488    11.00000    0.01774    0.01712 =
         0.01558    0.00181    0.00245    0.00146
AFIX  43
H18   2   -0.064242    0.223807    0.111152    11.00000   -1.20000
AFIX   0
C19   1    0.752025    0.816144    0.468157    11.00000    0.08770    0.02364 =
         0.01730    0.00263    0.01712   -0.01056
F1    7    0.845408    0.843280    0.402386    11.00000    0.13314    0.03438 =
         0.03111    0.00710    0.02822   -0.01426
F2    7    0.531193    0.824519    0.459930    11.00000    0.08751    0.04736 =
         0.05704    0.00969    0.00164    0.02538
F3    7    0.846515    0.900484    0.524986    11.00000    0.12074    0.03497 =
         0.03704   -0.01139    0.02719   -0.03530
LI1   8    0.474934    0.446189    0.374782    11.00000    0.02676    0.02198 =
         0.01906    0.00110    0.00369    0.00019
N1    4    0.129298    0.528828    0.180606    11.00000    0.02465    0.01958 =
         0.01089    0.00136   -0.00080    0.01031
N2    4    0.595814    0.173190    0.217758    11.00000    0.01604    0.01461 =
         0.01139    0.00031   -0.00113    0.00308
O1    5    0.301106    0.500347    0.290947    11.00000    0.01825    0.01697 =
         0.01083   -0.00001    0.00135    0.00628
O2    5    0.613670    0.345235    0.298656    11.00000    0.01472    0.01768 =
         0.01229    0.00023   -0.00445    0.00341
O3    5    0.673933    0.583899    0.422864    11.00000    0.02732    0.02468 =
         0.02043   -0.00339   -0.00602   -0.00727
O4    5    0.703625    0.650802    0.561198    11.00000    0.02785    0.03312 =
         0.01688    0.00408    0.00706   -0.00173
O5    5    1.042514    0.665035    0.489327    11.00000    0.01700    0.08868 =
         0.02719   -0.00469    0.00380   -0.01024
S1    6    0.800626    0.660722    0.487585    11.00000    0.02883    0.02992 =
         0.01580    0.00048    0.00291   -0.00847
HKLF 4

REM  rei96 in P-1
REM R1 =  0.0685 for    2263 Fo > 4sig(Fo)  and  0.1713 for all    4579 data
REM    295 parameters refined using      0 restraints

END

WGHT      0.0413      0.0000

REM Highest difference peak  0.347,  deepest hole -0.459,  1-sigma level  0.074
Q1    1   0.1122  0.5931  0.2104  11.00000  0.05    0.35
Q2    1   0.3523  0.3001  0.2178  11.00000  0.05    0.33
Q3    1   0.7365  0.3977  0.4471  11.00000  0.05    0.31
Q4    1   0.6040  0.6328  0.4529  11.00000  0.05    0.26
Q5    1   0.4765  0.3177  0.1939  11.00000  0.05    0.26
Q6    1  -0.0429  0.4793  0.3697  11.00000  0.05    0.25
Q7    1   0.4355  0.0029  0.2010  11.00000  0.05    0.25
Q8    1   1.0301  0.0839  0.2301  11.00000  0.05    0.25
Q9    1   0.6301  0.5660  0.5593  11.00000  0.05    0.25
Q10   1   0.5641  0.4162  0.3108  11.00000  0.05    0.25
Q11   1   0.8259  0.1182  0.3280  11.00000  0.05    0.25
Q12   1   0.1822  0.5966  0.0997  11.00000  0.05    0.25
Q13   1   0.8306 -0.1039  0.2309  11.00000  0.05    0.25
Q14   1   0.4163  0.1252  0.1104  11.00000  0.05    0.24
Q15   1   0.5202  0.5111  0.4724  11.00000  0.05    0.24
Q16   1   0.2876  0.4820  0.2501  11.00000  0.05    0.24
Q17   1   0.3735 -0.0955  0.2802  11.00000  0.05    0.24
Q18   1   0.4658  0.3543  0.3478  11.00000  0.05    0.24
Q19   1  -0.1706  0.0234 -0.0112  11.00000  0.05    0.24
Q20   1   0.4779  0.2282  0.4003  11.00000  0.05    0.24
;
_shelx_res_checksum              6225
_shelx_hkl_file
;
  -1   0   0   10.10    1.52
  -1   0   0    9.69    1.41
   1   0   0   12.43    1.45
   1   0   0   11.14    1.29
  -2   0   0   22.50    3.18
  -2   0   0   27.29    3.49
   2   0   0   31.49    3.19
   2   0   0   28.03    3.48
  -3   0   0   19.76    3.66
  -3   0   0   23.72    3.54
   3   0   0   20.38    3.69
   3   0   0   22.66    3.30
  -4   0   0    2.94    2.75
  -4   0   0    1.47    2.48
   4   0   0    6.62    3.84
  -5   0   0   -1.89    2.93
   5   0   0    4.67    4.47
  -6   0   0    1.49    3.44
   6   0   0    5.82    3.83
  -7   0   0   -6.50    5.07
   7   0   0    9.53    4.72
   7  -1   0    6.21    5.52
  -7   1   0   -5.42    5.10
   6  -1   0    0.93    4.76
  -6   1   0   -2.08    3.18
   5  -1   0   -0.40    3.18
  -5   1   0   -0.88    3.95
   4  -1   0    5.50    3.78
  -4   1   0   -1.97    2.47
  -4   1   0    2.95    2.55
   3  -1   0  107.48    7.71
   3  -1   0  105.77    7.50
  -3   1   0   87.48    8.02
  -3   1   0   95.72    7.52
   2  -1   0  118.85    8.70
   2  -1   0  134.00    8.38
  -2   1   0  105.09    8.70
  -2   1   0  113.29    8.57
   1  -1   0   66.09    4.15
   1  -1   0   44.57    4.19
  -1   1   0   58.94    4.23
  -1   1   0   52.92    3.97
   0  -1   0   -0.62    0.37
   0  -1   0   -0.19    0.40
   0  -1   0   -0.29    0.19
   0  -1   0   -0.07    0.27
   0   1   0   -0.72    0.24
   0   1   0   -0.56    0.29
   0   1   0   -0.25    0.35
  -1  -1   0  329.12   20.68
  -1  -1   0  301.37   20.67
   1   1   0  304.35   20.67
   1   1   0  328.66   20.74
  -2  -1   0  121.42    9.53
  -2  -1   0  139.65    9.21
   2   1   0  129.94    9.29
   2   1   0  129.06    9.40
  -3  -1   0    1.86    2.66
  -3  -1   0    1.81    2.94
   3   1   0    2.66    3.00
   3   1   0    3.96    2.56
  -4  -1   0   13.21    3.06
  -4  -1   0    5.05    3.92
   4   1   0    6.39    4.03
  -5  -1   0   10.80    4.63
   5   1   0    9.30    4.90
  -6  -1   0    4.20    4.82
   6   1   0   -5.43    4.56
  -7  -1   0    3.93    5.54
   7   1   0   -7.99    5.13
   7  -2   0   -2.24    5.14
  -7   2   0    8.04    4.34
   6  -2   0    3.34    4.79
  -6   2   0   -4.14    4.53
   5  -2   0   54.20    6.05
  -5   2   0   42.65    6.20
   4  -2   0    3.45    3.68
  -4   2   0    1.95    2.62
  -4   2   0    5.49    2.61
   3  -2   0  105.46    8.37
   3  -2   0  108.70    8.30
  -3   2   0  111.99    8.34
  -3   2   0  114.21    8.53
   2  -2   0  125.10   10.37
  -2   2   0  153.24   10.10
  -2   2   0  157.04   10.46
   1  -2   0    2.43    1.28
   1  -2   0    1.09    1.39
   1  -2   0    1.48    1.60
  -1   2   0    0.78    1.02
  -1   2   0   -0.26    1.34
  -1   2   0    1.40    1.58
   0  -2   0  233.51   15.13
   0  -2   0  204.87   15.16
   0  -2   0  232.25   14.47
   0  -2   0  230.82   14.17
   0   2   0  236.97   14.47
   0   2   0  240.28   15.14
   0   2   0  229.45   15.11
  -1  -2   0   61.37    4.82
  -1  -2   0   50.30    4.76
   1   2   0   52.44    4.29
   1   2   0   53.65    4.42
  -2  -2   0   67.28    6.12
  -2  -2   0   74.92    5.88
   2   2   0   86.76    6.21
   2   2   0   65.98    6.32
  -3  -2   0   68.17    6.48
  -3  -2   0   60.01    6.15
   3   2   0   72.21    6.33
   3   2   0   72.42    6.67
  -4  -2   0    8.31    3.00
   4   2   0    7.78    3.36
  -5  -2   0   24.34    5.22
   5   2   0   17.72    5.38
  -6  -2   0    5.94    5.08
   6   2   0   -1.99    4.96
  -7  -2   0    7.55    6.15
   7   2   0   13.04    6.18
   7  -3   0   -1.41    5.36
  -7   3   0   11.86    4.74
   6  -3   0    4.24    4.83
  -6   3   0    6.66    3.92
   5  -3   0   10.93    3.75
  -5   3   0   10.87    4.40
   4  -3   0    8.43    3.77
  -4   3   0    2.58    3.55
  -4   3   0    6.53    3.50
   3  -3   0   93.06    7.45
   3  -3   0   76.65    6.50
  -3   3   0   87.60    6.75
  -3   3   0   84.79    7.30
   2  -3   0    9.07    2.73
   2  -3   0   14.31    2.62
   2  -3   0   14.71    2.26
  -2   3   0   14.73    2.45
  -2   3   0   14.70    2.27
   1  -3   0    1.79    1.75
   1  -3   0    1.53    1.65
   1  -3   0    2.01    2.03
  -1   3   0   -2.75    2.11
  -1   3   0    0.23    1.46
  -1   3   0   -0.94    1.24
   0  -3   0   25.53    2.80
   0  -3   0   23.17    2.95
   0  -3   0   21.62    2.10
   0  -3   0   23.02    3.09
   0   3   0   22.63    2.57
   0   3   0   19.64    2.52
   0   3   0   21.81    2.85
  -1  -3   0   29.79    3.26
  -1  -3   0   25.45    3.11
   1   3   0   29.38    3.28
   1   3   0   27.69    3.07
   1   3   0   35.67    3.27
  -2  -3   0    5.94    2.30
  -2  -3   0    3.70    2.14
   2   3   0    9.50    3.11
   2   3   0    6.26    2.56
  -3  -3   0   35.24    4.18
  -3  -3   0   24.81    3.79
   3   3   0   30.12    4.69
   3   3   0   32.09    3.89
  -4  -3   0    6.39    4.05
   4   3   0    3.50    4.35
  -5  -3   0   37.69    5.95
   5   3   0   15.07    5.54
  -6  -3   0    0.02    3.69
   6   3   0   -0.49    3.90
   7  -4   0   -3.74    5.04
  -7   4   0    2.63    5.49
   6  -4   0    2.89    4.77
  -6   4   0   10.98    4.98
   5  -4   0   19.48    4.15
  -5   4   0   12.76    4.72
   4  -4   0    0.92    3.79
   4  -4   0   -0.47    2.66
  -4   4   0    0.64    2.66
  -4   4   0   -0.49    3.48
   3  -4   0    1.85    3.14
   3  -4   0    5.60    2.47
   3  -4   0    8.07    2.83
  -3   4   0    7.15    2.40
  -3   4   0    7.52    2.63
   2  -4   0   20.89    2.74
   2  -4   0   22.51    3.38
   2  -4   0   18.49    2.56
  -2   4   0   13.71    2.48
  -2   4   0   16.26    2.59
  -2   4   0   22.56    3.51
   1  -4   0   10.91    1.88
   1  -4   0   10.95    2.14
   1  -4   0   10.19    2.15
   1  -4   0   11.05    1.89
  -1   4   0   15.47    2.29
  -1   4   0   11.05    2.36
  -1   4   0   11.18    2.20
   0  -4   0  123.13    7.63
   0  -4   0  101.32    8.61
   0  -4   0  118.90    8.26
   0  -4   0  102.58    8.67
   0   4   0  119.32    8.40
   0   4   0  120.19    8.25
   0   4   0  120.36    8.36
  -1  -4   0   37.03    3.27
  -1  -4   0   39.10    3.87
  -1  -4   0   33.81    3.75
   1   4   0   38.19    3.73
   1   4   0   32.42    3.78
   1   4   0   34.18    3.97
  -2  -4   0    9.97    3.28
  -2  -4   0   17.00    3.06
   2   4   0   15.51    3.63
   2   4   0   16.27    2.72
  -3  -4   0   20.02    4.27
  -3  -4   0   18.14    4.52
   3   4   0   25.99    4.82
  -4  -4   0   41.52    5.29
   4   4   0   33.09    6.07
  -5  -4   0    4.71    4.77
   5   4   0   -1.53    4.87
  -6  -4   0   -0.96    5.10
   6   4   0   -5.52    5.32
   7  -5   0   -5.15    5.02
  -7   5   0    2.25    5.53
   6  -5   0    1.25    4.65
  -6   5   0    6.25    3.81
   5  -5   0   20.12    5.11
  -5   5   0   23.05    4.36
   4  -5   0   12.95    3.31
   4  -5   0    4.28    4.09
  -4   5   0    9.39    3.07
   3  -5   0   41.15    4.19
   3  -5   0   40.82    4.92
  -3   5   0   38.76    5.21
  -3   5   0   31.87    4.12
   2  -5   0   93.05    6.92
   2  -5   0   79.01    6.12
   2  -5   0   71.62    6.63
  -2   5   0   85.24    6.57
  -2   5   0   69.92    6.20
  -2   5   0   74.06    6.09
   1  -5   0   74.15    6.03
   1  -5   0   76.32    6.48
   1  -5   0   75.83    5.49
   1  -5   0   86.01    6.68
  -1   5   0   75.11    6.08
  -1   5   0   66.36    6.40
  -1   5   0   78.22    6.63
   0  -5   0   38.53    4.76
   0  -5   0   47.70    4.91
   0  -5   0   43.17    3.76
   0  -5   0   46.23    4.54
   0   5   0   46.57    4.31
   0   5   0   47.20    4.55
   0   5   0   48.64    4.61
  -1  -5   0   31.24    4.30
  -1  -5   0   34.49    3.86
  -1  -5   0   33.32    3.35
   1   5   0   29.51    4.22
   1   5   0   25.08    3.52
   1   5   0   33.69    3.75
  -2  -5   0  116.62    8.79
  -2  -5   0  128.60   10.18
  -2  -5   0  144.00   10.10
   2   5   0  124.63    9.32
   2   5   0  136.62    9.54
   2   5   0  111.02    9.61
  -3  -5   0   -0.68    2.93
   3   5   0    7.51    4.38
  -4  -5   0   48.68    6.12
   4   5   0   49.88    6.95
  -5  -5   0    8.04    5.35
   5   5   0   10.60    4.32
  -6  -5   0   -5.01    5.10
   6   5   0   -5.91    3.89
   7  -6   0    8.34    5.75
  -7   6   0    7.56    4.58
   6  -6   0    5.10    4.93
  -6   6   0    2.61    3.70
   5  -6   0    6.61    4.34
  -5   6   0    6.30    4.39
   4  -6   0    4.36    3.24
  -4   6   0    2.36    3.76
   3  -6   0   -0.17    2.56
   3  -6   0    5.28    2.69
  -3   6   0    0.06    2.70
   2  -6   0    3.51    3.18
   2  -6   0    4.71    2.39
   2  -6   0    5.37    2.51
  -2   6   0    4.22    3.23
  -2   6   0   -1.55    2.34
  -2   6   0    6.26    2.52
   1  -6   0    2.23    3.16
   1  -6   0    9.84    2.83
   1  -6   0    8.14    2.45
   1  -6   0    9.26    2.17
  -1   6   0   10.87    2.81
  -1   6   0   11.81    3.42
  -1   6   0   13.47    2.63
   0  -6   0  101.61    8.99
   0  -6   0  111.79    8.54
   0  -6   0  107.01    7.63
   0  -6   0  109.99    9.05
   0   6   0  103.33    8.59
   0   6   0  122.41    8.25
   0   6   0  132.25    8.69
  -1  -6   0   -0.76    1.96
  -1  -6   0    0.62    3.19
  -1  -6   0    0.52    2.45
   1   6   0   -2.15    2.35
   1   6   0    8.31    3.12
   1   6   0    0.22    2.31
  -2  -6   0   11.80    2.94
  -2  -6   0   16.52    4.54
   2   6   0    9.78    4.33
   2   6   0   17.20    4.30
  -3  -6   0    4.22    3.44
  -3  -6   0    4.10    3.44
   3   6   0    5.16    3.31
   3   6   0    1.74    4.58
  -4  -6   0    0.40    3.46
   4   6   0   -2.46    4.87
   4   6   0    5.95    4.94
  -5  -6   0   14.64    4.66
   5   6   0    5.25    5.38
   5   6   0   12.72    6.02
  -6  -6   0   -3.26    5.83
   6   6   0   -3.07    6.09
   6   6   0   -0.08    6.21
   6  -7   0    0.48    4.75
  -6   7   0   -9.44    4.49
   5  -7   0    4.65    4.57
  -5   7   0   -4.59    4.08
   4  -7   0    4.00    3.27
  -4   7   0   -1.31    3.89
   3  -7   0   55.84    5.43
   3  -7   0   56.33    5.86
  -3   7   0   50.15    5.49
   2  -7   0    2.28    2.72
   2  -7   0    4.16    2.73
  -2   7   0    6.61    3.16
  -2   7   0    1.80    2.63
  -2   7   0    2.90    3.53
   1  -7   0    0.12    2.58
   1  -7   0    5.99    2.28
   1  -7   0    2.57    2.95
  -1   7   0    2.11    3.17
  -1   7   0   -1.29    3.36
  -1   7   0   -0.85    3.07
   0  -7   0   16.50    2.66
   0  -7   0   18.73    3.96
   0  -7   0   18.58    4.26
   0   7   0   22.32    3.53
   0   7   0   22.00    3.81
   0   7   0   24.12    3.59
  -1  -7   0   16.57    3.05
  -1  -7   0   13.93    3.58
   1   7   0   22.00    3.75
   1   7   0   18.87    3.70
  -2  -7   0    5.87    3.40
  -2  -7   0    0.51    2.92
   2   7   0    0.16    3.15
   2   7   0   -3.02    2.89
  -3  -7   0   17.86    3.86
  -3  -7   0   16.47    5.50
   3   7   0   13.76    4.24
   3   7   0    2.26    4.71
  -4  -7   0    2.99    5.19
  -4  -7   0    6.80    4.25
   4   7   0   17.29    4.76
   4   7   0   12.55    4.31
  -5  -7   0    4.90    5.78
  -5  -7   0    4.38    4.87
   5   7   0    5.06    4.52
   5   7   0    3.53    5.74
   6  -8   0    8.71    5.20
  -6   8   0    4.50    5.34
   5  -8   0    6.99    4.85
  -5   8   0    0.48    3.36
   4  -8   0   -0.25    4.20
  -4   8   0   -4.05    2.92
   3  -8   0   37.37    6.01
  -3   8   0   46.42    5.94
  -3   8   0   42.48    5.17
   2  -8   0   17.07    3.86
  -2   8   0   17.74    4.01
  -2   8   0   14.74    3.57
   1  -8   0   -1.09    2.20
   1  -8   0    4.12    3.10
  -1   8   0   -1.51    3.72
  -1   8   0    3.41    3.54
   0  -8   0    5.52    4.28
   0  -8   0    2.84    2.26
   0   8   0    5.83    3.13
   0   8   0    7.25    3.04
  -1  -8   0   45.48    4.50
  -1  -8   0   41.77    5.58
   1   8   0   36.82    5.93
   1   8   0   38.60    5.79
  -2  -8   0    1.89    2.87
  -2  -8   0    0.03    4.69
   2   8   0   -0.11    4.55
   2   8   0    2.96    3.49
  -3  -8   0    9.82    3.57
  -3  -8   0    9.91    4.36
   3   8   0    5.24    4.96
   3   8   0   29.41    6.00
  -4  -8   0   15.02    4.86
  -4  -8   0   10.54    4.15
   4   8   0    9.21    4.45
   4   8   0    7.12    5.64
  -5  -8   0    3.49    6.12
  -5  -8   0   -4.26    4.71
   5   8   0    8.44    6.29
   5   8   0   -1.97    5.86
   6  -9   0    4.48    5.24
  -6   9   0   -7.27    5.04
   5  -9   0    8.53    5.01
  -5   9   0    4.62    4.88
   4  -9   0   15.92    4.99
  -4   9   0   20.46    4.41
   3  -9   0   -2.36    4.21
  -3   9   0   -1.30    3.11
  -3   9   0    0.74    3.99
   2  -9   0   -5.37    4.36
  -2   9   0   -0.45    3.64
  -2   9   0    1.10    4.19
   1  -9   0    6.95    2.68
   1  -9   0    0.35    4.56
  -1   9   0   -0.01    2.84
  -1   9   0    6.56    4.51
   0  -9   0    0.27    4.43
   0  -9   0    5.24    2.47
   0   9   0   -5.06    2.74
   0   9   0    0.21    3.19
  -1  -9   0    0.76    4.86
  -1  -9   0    7.80    2.98
   1   9   0    7.52    3.70
   1   9   0    7.80    4.43
  -2  -9   0    6.98    2.92
  -2  -9   0    1.65    5.07
   2   9   0    4.29    4.74
   2   9   0    6.47    5.02
  -3  -9   0   -2.18    5.13
  -3  -9   0   -1.01    3.54
   3   9   0   -5.75    5.01
   3   9   0    0.37    5.10
  -4  -9   0    3.17    5.67
  -4  -9   0   -1.88    4.17
   4   9   0    0.97    4.39
   4   9   0    7.29    6.03
   5 -10   0   12.06    5.43
  -5  10   0   -3.64    5.01
   4 -10   0    4.06    4.85
  -4  10   0    0.31    3.66
   3 -10   0    8.00    3.78
  -3  10   0    6.61    4.44
  -3  10   0   14.68    4.26
   2 -10   0    2.92    4.78
  -2  10   0    6.95    4.67
  -2  10   0   11.55    4.22
   1 -10   0    2.41    2.59
   1 -10   0    2.64    3.59
  -1  10   0   -1.82    3.15
  -1  10   0   -3.83    3.73
   0 -10   0   21.57    5.64
   0 -10   0   26.05    3.47
   0  10   0   18.01    4.10
   0  10   0   21.32    4.52
  -1 -10   0   13.09    3.03
  -1 -10   0   13.35    4.48
   1  10   0   13.08    5.08
   1  10   0   10.03    4.79
  -2 -10   0    1.47    5.37
  -2 -10   0   -1.85    2.93
   2  10   0   -2.44    5.01
   2  10   0    2.60    3.75
  -3 -10   0    5.47    3.86
  -3 -10   0    7.40    5.92
   3  10   0    1.93    5.75
   3  10   0   -2.58    5.23
  -4 -10   0   -0.78    6.09
  -4 -10   0   -3.40    4.11
   4  10   0   -3.99    6.08
   4  10   0   -4.16    6.07
   5 -11   0   -4.42    5.37
  -5  11   0    4.96    4.42
   4 -11   0    1.50    5.34
   3 -11   0    0.07    5.06
  -3  11   0   -2.92    3.86
  -3  11   0    8.52    4.95
   2 -11   0   -1.43    4.89
  -2  11   0    5.34    4.25
  -2  11   0   -0.26    4.62
   1 -11   0   15.03    3.18
   1 -11   0   21.36    5.94
  -1  11   0   19.64    5.54
  -1  11   0   10.05    3.76
   0 -11   0   19.91    6.08
   0 -11   0   12.95    3.03
   0  11   0    8.55    4.52
   0  11   0   13.76    4.32
  -1 -11   0    5.27    2.85
  -1 -11   0    2.20    5.40
   1  11   0   -1.77    4.48
   1  11   0   -2.85    3.49
  -2 -11   0   18.79    3.94
  -2 -11   0    8.63    4.82
   2  11   0   12.71    4.48
   2  11   0   11.36    5.72
  -3 -11   0    1.84    3.69
  -3 -11   0   11.13    6.65
   3  11   0   15.45    6.69
   3  11   0   10.50    4.89
   4 -12   0   -2.66    3.99
   3 -12   0   -9.94    5.24
  -3  12   0    1.49    4.98
  -3  12   0    5.35    4.49
   2 -12   0    4.89    5.61
  -2  12   0   -2.44    3.94
  -2  12   0  -12.22    4.45
   1 -12   0    1.53    4.15
  -1  12   0   -2.13    4.28
  -1  12   0    4.03    3.82
   0 -12   0   25.98    6.80
   0  12   0   20.62    5.49
   0  12   0   22.51    5.18
  -1 -12   0   16.80    5.14
   1  12   0    9.14    5.52
   1  12   0   14.83    6.36
  -2 -12   0    4.03    6.39
   2  12   0    7.33    6.16
   2  12   0    6.88    5.83
   3 -13   0    2.55    5.79
  -3  13   0    0.29    4.75
  -3  13   0    4.80    5.54
   2 -13   0    9.53    4.84
  -2  13   0   14.39    4.73
  -2  13   0   18.27    5.29
   1 -13   0   17.68    6.52
  -1  13   0    8.71    4.55
  -1  13   0    4.16    4.91
   0 -13   0   10.96    6.34
   0  13   0    4.13    5.23
   0  13   0    1.45    4.11
  -1 -13   0   14.35    6.74
   1  13   0   12.71    4.76
   1  13   0   -9.49    5.60
   1  13  -1   15.14    6.22
   1  13  -1   23.36    5.84
  -1 -13   1   25.31    7.47
   0  13  -1   -3.96    5.44
   0  13  -1   -0.46    3.87
   0 -13   1    7.35    4.90
  -1  13  -1   -2.17    3.24
  -1  13  -1    0.15    5.34
   1 -13   1   -1.77    4.25
  -2  13  -1   -6.34    4.67
  -2  13  -1    1.91    5.42
   2 -13   1    2.90    4.48
  -3  13  -1   -1.50    5.41
  -3  13  -1   18.51    5.55
   3 -13   1    2.83    5.97
   2  12  -1    8.18    4.97
   2  12  -1    9.70    6.04
  -2 -12   1    2.40    4.63
   1  12  -1    2.33    4.01
   1  12  -1    6.84    5.24
  -1 -12   1    0.72    4.16
   0  12  -1    5.67    5.40
   0  12  -1    6.87    3.90
   0 -12   1    8.40    4.56
  -1  12  -1   -2.30    4.90
  -1  12  -1   -0.31    4.30
   1 -12   1    4.70    4.26
  -2  12  -1   -0.46    3.63
  -2  12  -1    6.44    4.55
   2 -12   1   -0.19    5.52
  -3  12  -1   11.97    5.49
  -3  12  -1    2.57    4.64
   3 -12   1   -0.72    5.36
   4 -12   1    9.65    5.78
   3  11  -1  -10.24    5.52
   3  11  -1    3.05    5.89
  -3 -11   1    6.00    6.42
   2  11  -1    7.82    4.24
   2  11  -1    8.14    5.57
  -2 -11   1   18.11    6.25
   1  11  -1   -2.76    5.04
   1  11  -1   10.86    4.02
  -1 -11   1    5.49    5.46
   0  11  -1    0.40    3.25
   0  11  -1    5.94    5.00
   0 -11   1    6.26    4.11
  -1  11  -1    8.56    3.97
  -1  11  -1   19.45    5.04
   1 -11   1   12.31    5.68
  -2  11  -1   14.44    4.30
  -2  11  -1   20.69    4.81
   2 -11   1   20.78    5.90
  -3  11  -1   10.99    4.23
  -3  11  -1    5.25    3.72
   3 -11   1    2.18    5.10
   4 -11   1    8.17    5.44
  -5  11  -1   -4.38    3.94
   5 -11   1   -9.35    5.16
   4  10  -1   11.47    6.61
   4  10  -1    4.38    5.01
  -4 -10   1    8.26    4.35
  -4 -10   1    4.26    6.36
   3  10  -1    1.93    4.11
   3  10  -1   -5.84    3.70
  -3 -10   1    2.90    5.77
  -3 -10   1    4.65    3.14
   2  10  -1   -0.32    4.90
   2  10  -1    2.03    4.85
  -2 -10   1   -1.08    5.44
  -2 -10   1    1.48    2.76
   1  10  -1   15.72    5.36
   1  10  -1    9.48    4.83
  -1 -10   1    9.32    2.74
  -1 -10   1   12.77    5.47
   0  10  -1    2.01    4.62
   0  10  -1    0.28    3.09
   0 -10   1    7.19    4.01
   0 -10   1    6.36    2.35
  -1  10  -1   -4.05    4.34
  -1  10  -1   -0.44    3.82
   1 -10   1    2.38    3.52
  -2  10  -1   -4.32    3.00
  -2  10  -1    5.21    3.95
   2 -10   1    5.39    4.79
  -3  10  -1   22.36    5.12
  -3  10  -1   13.64    4.50
   3 -10   1    7.88    3.93
  -4  10  -1   -1.08    4.89
   4 -10   1    5.18    5.04
  -5  10  -1    2.32    4.04
   5 -10   1    3.15    5.26
   4   9  -1    3.28    5.96
   4   9  -1    1.80    4.47
  -4  -9   1   -2.72    3.85
  -4  -9   1   14.47    6.37
   3   9  -1   28.84    5.58
   3   9  -1   27.30    6.35
  -3  -9   1   45.84    7.17
  -3  -9   1   22.01    4.43
   2   9  -1   -0.20    4.62
   2   9  -1    6.06    3.64
  -2  -9   1    5.37    2.99
  -2  -9   1   10.57    5.31
   1   9  -1    6.66    3.51
   1   9  -1    1.57    4.16
  -1  -9   1   -1.95    3.51
  -1  -9   1    1.59    2.46
   0   9  -1   31.99    4.62
   0   9  -1   33.60    5.77
   0  -9   1   33.80    3.55
   0  -9   1   31.35    4.97
  -1   9  -1   18.91    5.10
  -1   9  -1   13.76    4.49
   1  -9   1   23.91    5.37
   1  -9   1   23.21    3.06
  -2   9  -1    6.72    4.22
  -2   9  -1   16.76    4.06
   2  -9   1   25.55    4.47
  -3   9  -1   17.62    4.17
  -3   9  -1    6.93    3.44
   3  -9   1   13.05    4.82
  -4   9  -1    2.36    4.58
   4  -9   1   -1.30    4.37
  -5   9  -1    6.88    3.88
   5  -9   1   13.30    5.32
  -6   9  -1    5.57    5.71
   6  -9   1    5.98    5.74
   5   8  -1   10.68    6.51
   5   8  -1    3.28    4.61
  -5  -8   1    6.28    4.82
  -5  -8   1    2.46    4.58
   4   8  -1   44.60    6.53
   4   8  -1   31.20    6.97
  -4  -8   1   30.16    5.51
  -4  -8   1   54.79    7.78
   3   8  -1    2.38    3.70
   3   8  -1    0.63    4.93
  -3  -8   1    7.75    5.34
  -3  -8   1    1.72    3.05
   2   8  -1   23.68    4.58
   2   8  -1   13.72    4.06
  -2  -8   1   30.13    5.93
  -2  -8   1   21.56    3.49
   1   8  -1    1.82    3.93
   1   8  -1    1.92    4.06
  -1  -8   1   -1.39    4.27
  -1  -8   1    3.86    2.47
   0   8  -1    6.36    3.21
   0   8  -1    6.39    3.11
   0  -8   1    6.10    2.13
   0  -8   1    1.66    3.08
  -1   8  -1    2.30    3.04
  -1   8  -1    6.72    3.73
   1  -8   1    3.15    2.22
   1  -8   1    5.69    4.24
  -2   8  -1   19.81    4.81
  -2   8  -1   28.73    3.93
   2  -8   1   16.49    4.87
  -3   8  -1   51.25    6.21
  -3   8  -1   73.22    6.50
   3  -8   1   57.10    6.97
  -4   8  -1    3.72    4.53
   4  -8   1    0.28    4.42
  -5   8  -1   -4.01    4.46
   5  -8   1    7.76    5.05
  -6   8  -1    2.06    3.97
   6  -8   1    0.84    3.83
   5   7  -1   13.45    6.35
   5   7  -1    5.63    4.52
  -5  -7   1   11.39    5.85
   4   7  -1   12.81    5.75
   4   7  -1   10.14    4.20
  -4  -7   1   14.04    4.53
   3   7  -1    4.01    4.95
   3   7  -1    6.08    4.72
  -3  -7   1    0.55    2.99
  -3  -7   1    0.87    3.47
   2   7  -1    3.02    3.27
   2   7  -1    6.70    3.36
  -2  -7   1    5.92    2.84
  -2  -7   1    1.81    4.33
   1   7  -1    2.03    3.76
   1   7  -1    5.91    3.93
  -1  -7   1    9.23    4.26
  -1  -7   1    5.58    2.28
   0   7  -1   16.86    3.25
   0   7  -1   20.70    3.60
   0   7  -1   18.21    3.97
   0  -7   1   11.45    3.71
   0  -7   1   18.20    2.39
   0  -7   1   14.37    3.40
   0  -7   1   17.95    4.17
  -1   7  -1    2.09    3.23
  -1   7  -1   11.12    2.96
  -1   7  -1   10.54    3.47
   1  -7   1    4.59    2.42
   1  -7   1    6.30    2.66
   1  -7   1    4.81    3.66
   1  -7   1    8.90    2.03
  -2   7  -1   23.46    3.38
  -2   7  -1   13.02    4.03
  -2   7  -1   19.50    3.68
   2  -7   1   27.98    3.92
   2  -7   1   19.33    4.43
  -3   7  -1   -1.39    2.31
   3  -7   1   -0.51    2.78
  -4   7  -1   46.86    5.60
   4  -7   1   38.97    5.48
  -5   7  -1    7.81    3.63
   5  -7   1    2.61    4.63
  -6   7  -1    7.70    5.37
   6  -7   1    5.55    5.28
   6   6  -1    1.50    5.70
   6   6  -1   10.54    6.31
  -6  -6   1    4.42    6.06
   5   6  -1   -7.42    3.53
   5   6  -1   -0.66    3.91
  -5  -6   1    9.68    4.32
   4   6  -1   10.73    4.19
   4   6  -1    3.86    4.81
  -4  -6   1   12.28    4.97
   3   6  -1    1.69    3.25
   3   6  -1   -4.99    2.98
  -3  -6   1    1.09    4.41
   2   6  -1    3.39    3.03
   2   6  -1    4.65    4.00
  -2  -6   1    5.02    2.74
  -2  -6   1    5.15    3.03
  -2  -6   1    0.20    3.65
   1   6  -1    2.10    2.87
   1   6  -1    1.13    2.40
   1   6  -1    4.03    3.27
  -1  -6   1    2.19    1.97
  -1  -6   1    1.70    3.22
  -1  -6   1   -0.97    3.21
   0   6  -1   85.01    7.37
   0   6  -1   92.21    7.33
   0   6  -1   89.20    7.13
   0  -6   1   81.95    7.30
   0  -6   1   92.75    7.31
   0  -6   1   85.58    6.16
   0  -6   1  107.51    7.91
  -1   6  -1   17.49    3.54
  -1   6  -1   18.31    3.30
  -1   6  -1   16.67    3.84
   1  -6   1   27.38    3.35
   1  -6   1   15.16    3.06
   1  -6   1   21.11    3.44
   1  -6   1   20.83    2.44
  -2   6  -1   37.06    4.57
  -2   6  -1   35.95    4.29
  -2   6  -1   42.70    4.51
   2  -6   1   52.33    5.14
   2  -6   1   39.31    4.00
   2  -6   1   36.51    4.92
  -3   6  -1   57.51    5.81
  -3   6  -1   67.17    6.99
   3  -6   1   62.17    5.27
   3  -6   1   52.47    5.83
  -4   6  -1   99.54    8.78
   4  -6   1  113.26    9.11
  -5   6  -1   -1.29    3.10
   5  -6   1    6.81    3.55
  -6   6  -1   15.22    5.57
   6  -6   1   13.60    5.52
  -7   6  -1    0.67    4.28
   7  -6   1   13.69    6.04
   6   5  -1   -1.45    5.71
  -6  -5   1    3.46    5.52
   5   5  -1   -2.29    5.17
  -5  -5   1    2.40    5.12
   4   5  -1   26.57    5.85
  -4  -5   1   18.35    5.35
   3   5  -1    0.57    4.06
   3   5  -1    4.46    3.00
  -3  -5   1   -2.82    3.82
   2   5  -1   39.72    5.10
   2   5  -1   42.01    4.78
   2   5  -1   36.82    4.73
  -2  -5   1   39.16    4.68
  -2  -5   1   47.56    5.15
   1   5  -1    5.89    2.30
   1   5  -1    0.84    1.90
   1   5  -1    1.00    2.10
  -1  -5   1    1.15    2.91
  -1  -5   1    2.62    1.77
  -1  -5   1    1.37    2.84
   0   5  -1    3.60    2.80
   0   5  -1    4.65    2.05
   0   5  -1    6.61    2.65
   0  -5   1   -0.55    2.61
   0  -5   1    2.28    1.89
   0  -5   1    2.45    1.34
   0  -5   1    2.67    2.06
  -1   5  -1  314.16   19.67
  -1   5  -1  255.17   20.56
  -1   5  -1  370.60   20.81
   1  -5   1  304.27   19.61
   1  -5   1  283.93   20.48
   1  -5   1  310.52   20.52
  -2   5  -1    6.99    2.32
  -2   5  -1    9.34    3.32
  -2   5  -1   12.01    2.18
   2  -5   1    7.03    3.02
   2  -5   1    6.97    2.30
   2  -5   1    8.59    2.55
  -3   5  -1   83.87    6.67
  -3   5  -1   65.10    6.58
   3  -5   1   72.04    6.19
   3  -5   1   61.25    6.69
  -4   5  -1   -0.41    3.74
   4  -5   1    3.88    4.10
  -5   5  -1    2.30    4.21
   5  -5   1   -0.51    4.37
  -6   5  -1  -10.80    4.31
   6  -5   1    1.76    4.99
  -7   5  -1   -2.06    5.36
   7  -5   1   -0.83    4.08
   6   4  -1    8.08    4.45
  -6  -4   1    0.47    5.18
   5   4  -1    3.41    3.81
  -5  -4   1   -2.35    4.40
   4   4  -1   20.91    5.23
  -4  -4   1   16.51    4.80
   3   4  -1   63.15    6.39
  -3  -4   1   60.74    6.21
  -3  -4   1   66.31    6.28
   2   4  -1   -0.94    2.96
   2   4  -1    0.90    2.30
   2   4  -1    4.49    2.55
  -2  -4   1   -0.32    2.77
  -2  -4   1   -3.96    2.64
   1   4  -1   46.35    4.62
   1   4  -1   53.09    4.37
   1   4  -1   57.30    5.08
  -1  -4   1   37.34    4.61
  -1  -4   1   44.01    4.72
  -1  -4   1   51.59    3.87
   0   4  -1  946.81   57.63
   0   4  -1  908.39   60.31
   0   4  -1  950.66   60.30
   0  -4   1  969.65   60.40
   0  -4   1  944.53   56.72
   0  -4   1  878.65   60.32
   0  -4   1  907.19   57.62
  -1   4  -1   91.60    6.73
  -1   4  -1   91.54    6.88
  -1   4  -1   94.51    7.20
   1  -4   1   95.52    7.24
   1  -4   1   94.85    6.75
   1  -4   1   81.29    7.12
  -2   4  -1    5.35    2.40
  -2   4  -1    5.12    2.19
   2  -4   1    0.16    2.31
   2  -4   1   -0.23    2.64
   2  -4   1    1.37    2.19
  -3   4  -1    6.45    3.10
  -3   4  -1    6.61    3.26
   3  -4   1    4.69    2.79
   3  -4   1    5.22    2.55
   3  -4   1    2.70    3.13
  -4   4  -1    1.44    3.51
  -4   4  -1   -0.57    2.69
   4  -4   1    1.54    2.97
   4  -4   1    6.98    4.06
  -5   4  -1    1.54    3.19
   5  -4   1   -0.10    3.27
  -6   4  -1   -3.26    4.74
   6  -4   1    2.54    5.06
  -7   4  -1   -7.68    5.18
   7  -4   1   -0.94    4.14
   6   3  -1    1.80    5.32
  -6  -3   1    1.51    4.94
   5   3  -1   14.07    4.13
  -5  -3   1   12.01    4.90
   4   3  -1   19.35    4.11
  -4  -3   1   15.97    3.60
   3   3  -1    1.88    3.38
   3   3  -1   -1.28    2.62
  -3  -3   1    2.83    2.37
  -3  -3   1   -1.56    3.10
   2   3  -1    2.74    2.79
   2   3  -1    1.17    2.24
  -2  -3   1    0.69    2.54
  -2  -3   1    0.70    1.93
   1   3  -1  110.01    7.67
   1   3  -1  109.08    7.96
   1   3  -1  116.18    7.91
  -1  -3   1  106.75    7.95
  -1  -3   1  107.04    8.22
   0   3  -1   73.59    6.87
   0   3  -1   87.68    6.34
   0   3  -1  101.51    6.88
   0  -3   1   94.90    6.67
   0  -3   1   94.15    6.65
   0  -3   1   91.48    5.85
   0  -3   1   94.12    6.64
  -1   3  -1  523.16   35.65
  -1   3  -1  540.56   33.95
  -1   3  -1  529.82   35.59
   1  -3   1  542.64   33.92
   1  -3   1  549.36   35.58
   1  -3   1  589.92   35.65
  -2   3  -1   29.75    3.25
  -2   3  -1   32.81    3.82
   2  -3   1   32.65    3.54
   2  -3   1   24.79    3.13
   2  -3   1   29.67    3.39
  -3   3  -1    1.51    2.67
  -3   3  -1    5.40    2.34
   3  -3   1    6.85    3.25
   3  -3   1    7.10    2.52
  -4   3  -1   -1.69    2.59
  -4   3  -1    5.27    3.61
   4  -3   1    0.93    3.75
  -5   3  -1    7.84    4.46
   5  -3   1    9.58    4.70
  -6   3  -1    5.99    3.88
   6  -3   1    7.13    4.09
  -7   3  -1   -6.41    3.68
   7  -3   1   -3.08    3.92
   7   2  -1    2.50    5.72
  -7  -2   1   -9.25    5.29
   6   2  -1    0.57    3.64
  -6  -2   1    4.44    4.97
   5   2  -1    7.16    3.60
  -5  -2   1   -1.53    4.23
   4   2  -1   -2.15    3.85
  -4  -2   1    2.59    2.84
  -4  -2   1    1.41    3.40
   3   2  -1    5.23    2.78
   3   2  -1    5.91    2.46
  -3  -2   1    3.44    2.08
  -3  -2   1    3.94    2.33
   2   2  -1   32.76    3.86
   2   2  -1   33.59    3.61
  -2  -2   1   28.82    3.31
  -2  -2   1   32.85    3.63
   1   2  -1  255.86   15.41
   1   2  -1  245.28   15.92
   1   2  -1  237.59   15.96
  -1  -2   1  213.11   16.02
  -1  -2   1  248.95   16.07
   0   2  -1   71.55    5.11
   0   2  -1   71.21    4.91
   0   2  -1   76.13    5.31
   0  -2   1   68.55    4.89
   0  -2   1   73.44    4.53
   0  -2   1   72.70    5.13
   0  -2   1   70.76    5.12
  -1   2  -1   31.45    2.96
  -1   2  -1   29.25    2.92
  -1   2  -1   32.21    2.87
   1  -2   1   25.35    2.97
   1  -2   1   30.00    2.77
   1  -2   1   29.29    2.63
  -2   2  -1    5.48    1.99
  -2   2  -1    5.56    1.82
   2  -2   1    7.18    2.34
   2  -2   1    3.27    2.61
  -3   2  -1  126.47    9.66
  -3   2  -1  129.16    9.55
   3  -2   1  127.83    9.67
   3  -2   1  141.53    9.57
  -4   2  -1    1.83    2.73
  -4   2  -1    7.56    3.49
   4  -2   1    5.30    3.76
  -5   2  -1    6.40    4.31
   5  -2   1    6.48    4.70
  -6   2  -1    2.32    4.76
   6  -2   1   -5.28    4.81
  -7   2  -1   -1.79    5.16
   7  -2   1    0.43    5.49
   7   1  -1    7.04    5.53
  -7  -1   1   -5.69    5.14
   6   1  -1   24.33    5.81
  -6  -1   1   13.50    5.19
   5   1  -1    1.45    3.31
  -5  -1   1   -3.44    4.00
   4   1  -1   14.04    3.46
  -4  -1   1   15.16    3.78
  -4  -1   1   17.78    3.57
   3   1  -1    4.17    2.94
   3   1  -1   -1.54    2.27
  -3  -1   1    1.32    1.88
  -3  -1   1   -0.95    1.92
   2   1  -1   13.89    2.86
   2   1  -1   15.03    2.52
  -2  -1   1   12.38    2.78
  -2  -1   1    9.08    2.42
   1   1  -1  450.07   28.41
   1   1  -1  436.71   28.47
  -1  -1   1  401.77   28.41
  -1  -1   1  462.28   28.45
   0   1  -1   -0.26    0.36
   0   1  -1   -0.38    0.42
   0   1  -1   -0.12    0.41
   0  -1   1    0.07    0.29
   0  -1   1    0.26    0.28
   0  -1   1   -0.31    0.31
  -1   1  -1   39.25    3.15
  -1   1  -1   43.36    3.26
   1  -1   1   42.39    3.28
   1  -1   1   39.88    3.14
  -2   1  -1    7.99    1.85
  -2   1  -1    8.86    2.75
   2  -1   1    7.26    1.82
   2  -1   1    6.75    2.64
  -3   1  -1  255.62   16.52
  -3   1  -1  238.11   16.59
  -3   1  -1  280.71   16.95
   3  -1   1  230.82   16.53
   3  -1   1  210.56   16.49
  -4   1  -1   93.00    7.80
  -4   1  -1   94.38    7.59
  -4   1  -1   90.70    6.44
   4  -1   1   79.96    7.64
  -5   1  -1    1.74    2.99
   5  -1   1   12.43    5.00
  -6   1  -1    1.00    3.48
   6  -1   1    6.22    3.91
  -7   1  -1    9.50    5.78
   7  -1   1    9.87    5.86
   7   0  -1   -5.41    5.13
  -7   0   1    0.92    4.01
   6   0  -1   11.43    5.26
  -6   0   1   18.70    4.46
   5   0  -1    3.42    4.29
  -5   0   1   -3.37    2.83
   4   0  -1    7.36    2.91
  -4   0   1    6.16    3.24
  -4   0   1    6.20    2.87
   3   0  -1    1.67    2.24
   3   0  -1    0.44    2.05
  -3   0   1   -1.82    1.86
  -3   0   1   -1.89    2.44
   2   0  -1  197.70   14.26
   2   0  -1  224.98   14.05
  -2   0   1  218.32   14.14
  -2   0   1  193.65   14.12
   1   0  -1    5.17    1.09
   1   0  -1    4.44    1.23
  -1   0   1    6.60    1.13
  -1   0   1    5.42    1.23
  -1   0  -1    1.19    0.93
  -1   0  -1    1.52    1.04
   1   0   1    0.31    1.22
   1   0   1    1.65    1.02
  -2   0  -1   24.99    2.34
  -2   0  -1   30.45    3.34
  -2   0  -1   29.95    3.16
   2   0   1   28.10    3.33
   2   0   1   34.53    3.38
  -3   0  -1   90.66    7.12
  -3   0  -1   69.27    6.71
   3   0   1   76.37    6.56
   3   0   1   85.20    6.76
  -4   0  -1   66.34    7.18
  -4   0  -1   74.17    6.42
   4   0   1   68.37    6.61
  -5   0  -1    9.45    3.41
   5   0   1    3.14    3.55
  -6   0  -1   -1.83    3.29
   6   0   1   -0.01    3.60
  -7   0  -1   -0.76    5.34
   7   0   1    3.47    5.75
   7  -1  -1   -5.05    3.48
  -7   1   1   -3.48    5.24
   6  -1  -1   21.83    5.65
  -6   1   1   36.07    6.05
   5  -1  -1   -1.90    4.14
  -5   1   1    3.52    4.18
   4  -1  -1    0.18    3.37
  -4   1   1    2.23    2.55
  -4   1   1    0.62    2.36
   3  -1  -1    6.24    2.78
   3  -1  -1    4.15    2.36
  -3   1   1    3.41    2.74
  -3   1   1    4.80    2.44
   2  -1  -1  215.80   13.56
   2  -1  -1  224.33   13.72
  -2   1   1  193.86   13.45
  -2   1   1  168.24   13.63
   1  -1  -1   51.80    4.07
  -1   1   1   58.21    4.06
  -1   1   1   52.68    3.97
   0  -1  -1   -0.40    0.39
   0  -1  -1   -0.81    0.44
   0   1   1   -0.14    0.39
  -1  -1  -1  848.04   50.51
  -1  -1  -1  815.20   50.53
   1   1   1  681.94   50.47
  -2  -1  -1    2.53    2.56
  -2  -1  -1   -0.40    1.68
   2   1   1   -2.58    2.21
   2   1   1    0.07    2.56
  -3  -1  -1   10.36    3.11
  -3  -1  -1   15.17    2.79
   3   1   1    5.52    2.83
   3   1   1   11.14    2.85
  -4  -1  -1   -1.34    2.50
  -4  -1  -1   -2.42    2.65
   4   1   1   -5.36    2.65
  -5  -1  -1    4.93    4.26
   5   1   1   -1.96    3.31
  -6  -1  -1    2.66    4.95
   6   1   1    7.83    5.53
  -7  -1  -1    4.97    5.55
   7   1   1   -3.78    3.80
   7  -2  -1   -4.46    4.72
  -7   2   1    3.49    5.23
   6  -2  -1   11.17    3.79
  -6   2   1   -0.23    4.63
   5  -2  -1   -3.64    3.86
  -5   2   1    4.68    4.26
   4  -2  -1    8.62    3.56
  -4   2   1    6.17    2.77
  -4   2   1    2.44    2.55
   3  -2  -1   37.97    3.96
   3  -2  -1   44.95    4.66
  -3   2   1   41.86    4.36
  -3   2   1   42.10    4.27
   2  -2  -1   40.85    4.33
  -2   2   1   53.25    4.65
  -2   2   1   46.68    4.36
   1  -2  -1   89.27    5.50
   1  -2  -1   83.28    5.28
   1  -2  -1   80.48    5.63
   1  -2  -1   74.68    5.56
  -1   2   1   76.44    5.26
  -1   2   1   72.66    5.73
  -1   2   1   73.58    5.87
   0  -2  -1   94.06    6.14
   0  -2  -1   95.96    6.53
   0  -2  -1   92.83    6.36
   0  -2  -1   93.08    6.01
   0   2   1   84.64    6.45
   0   2   1   91.87    6.12
   0   2   1   91.52    6.37
  -1  -2  -1  159.47    9.93
  -1  -2  -1  130.32    9.85
   1   2   1  137.31    9.65
   1   2   1  136.53    9.72
  -2  -2  -1    2.41    2.52
  -2  -2  -1    7.32    2.10
   2   2   1    8.49    2.04
   2   2   1    4.11    2.83
  -3  -2  -1   -3.14    2.15
  -3  -2  -1    1.24    2.80
   3   2   1   -2.43    3.10
   3   2   1   -2.89    2.64
  -4  -2  -1   10.01    3.19
   4   2   1    9.08    4.47
  -5  -2  -1   11.68    4.70
   5   2   1    8.67    3.85
  -6  -2  -1    2.65    5.03
   6   2   1    4.76    3.98
  -7  -2  -1    5.00    6.10
   7   2   1   11.18    6.45
   7  -3  -1   -0.88    5.13
  -7   3   1   -2.18    3.79
   6  -3  -1   -6.79    4.17
  -6   3   1   -1.82    4.43
   5  -3  -1   10.38    3.46
  -5   3   1    3.90    4.08
   4  -3  -1    2.98    2.67
  -4   3   1    1.63    3.50
  -4   3   1    6.97    2.68
   3  -3  -1   13.93    3.24
   3  -3  -1   10.85    2.73
   3  -3  -1   15.03    2.47
  -3   3   1   12.40    3.26
  -3   3   1   11.36    2.93
   2  -3  -1    5.42    2.36
   2  -3  -1    1.86    1.55
   2  -3  -1    4.87    1.68
  -2   3   1    3.66    2.37
  -2   3   1    5.04    2.09
   1  -3  -1  282.48   18.12
   1  -3  -1  302.04   19.09
   1  -3  -1  279.33   17.96
   1  -3  -1  288.88   19.16
  -1   3   1  302.84   19.21
  -1   3   1  289.23   18.16
  -1   3   1  276.21   19.04
   0  -3  -1   95.24    6.83
   0  -3  -1   78.67    7.01
   0  -3  -1   98.69    6.44
   0  -3  -1   95.17    6.64
   0   3   1   94.43    7.00
   0   3   1   99.43    6.82
   0   3   1   94.48    6.67
  -1  -3  -1   40.16    3.67
  -1  -3  -1   47.45    4.43
  -1  -3  -1   45.76    4.33
   1   3   1   39.32    4.37
   1   3   1   37.17    3.77
  -2  -3  -1    7.92    2.34
  -2  -3  -1    5.28    2.94
   2   3   1   12.51    2.41
   2   3   1   10.13    3.35
  -3  -3  -1   10.06    2.96
  -3  -3  -1    8.64    3.52
   3   3   1    8.33    3.03
   3   3   1   12.95    2.86
  -4  -3  -1   13.29    4.42
   4   3   1    7.73    3.51
  -5  -3  -1   10.27    4.95
   5   3   1   18.22    4.55
  -6  -3  -1    2.84    3.89
   6   3   1    2.68    5.40
   7  -4  -1    9.89    5.64
  -7   4   1   -0.92    5.48
   6  -4  -1   20.36    4.45
  -6   4   1    6.18    5.03
   5  -4  -1   37.06    5.82
  -5   4   1   39.28    5.71
   4  -4  -1   12.84    3.01
   4  -4  -1    9.74    4.01
  -4   4   1   14.56    3.91
  -4   4   1    6.18    3.83
   3  -4  -1   26.82    3.17
   3  -4  -1   21.26    3.88
   3  -4  -1   31.05    3.79
  -3   4   1   26.42    4.15
  -3   4   1   21.66    3.69
   2  -4  -1  124.31    8.35
   2  -4  -1  114.62    8.72
   2  -4  -1  119.66    8.92
  -2   4   1  123.58    8.69
  -2   4   1  121.24    8.28
  -2   4   1  121.80    9.20
   1  -4  -1  151.77   10.31
   1  -4  -1  157.53   10.16
   1  -4  -1  157.31   10.86
   1  -4  -1  162.00   11.08
  -1   4   1  145.43   11.03
  -1   4   1  162.03   10.38
  -1   4   1  159.43   11.04
   0  -4  -1   17.42    2.24
   0  -4  -1   13.96    2.51
   0  -4  -1   16.59    2.71
   0  -4  -1   14.96    2.94
   0   4   1   17.87    2.74
   0   4   1   14.02    2.87
   0   4   1   17.05    2.49
  -1  -4  -1   66.99    5.70
  -1  -4  -1   53.76    5.40
  -1  -4  -1   58.60    4.69
   1   4   1   56.55    4.89
   1   4   1   65.97    5.08
   1   4   1   56.22    5.56
  -2  -4  -1   -2.10    2.15
  -2  -4  -1    0.21    2.85
   2   4   1    0.86    2.57
   2   4   1   -1.41    3.12
  -3  -4  -1    1.70    3.75
   3   4   1    7.32    4.19
  -4  -4  -1   -1.97    3.01
   4   4   1   -2.28    4.44
  -5  -4  -1   -0.41    4.58
   5   4   1    2.89    3.83
  -6  -4  -1    2.81    5.57
   6   4   1    5.99    5.68
   7  -5  -1    0.53    5.19
  -7   5   1    4.21    5.63
   6  -5  -1   11.63    4.86
  -6   5   1    4.81    3.69
   5  -5  -1   48.95    6.66
  -5   5   1   54.46    6.74
   4  -5  -1   85.08    7.08
   4  -5  -1   85.88    8.27
  -4   5   1   88.80    8.46
  -4   5   1   89.04    8.15
   3  -5  -1   33.12    4.44
   3  -5  -1   27.48    3.42
  -3   5   1   20.90    3.93
  -3   5   1   28.17    3.95
   2  -5  -1    4.17    2.07
   2  -5  -1    1.27    2.50
   2  -5  -1    2.43    1.94
  -2   5   1    4.90    2.24
  -2   5   1    0.18    2.00
  -2   5   1    2.18    2.54
   1  -5  -1   25.15    3.85
   1  -5  -1   35.62    3.57
   1  -5  -1   33.10    3.56
   1  -5  -1   32.51    3.24
  -1   5   1   26.37    3.80
  -1   5   1   40.28    4.13
  -1   5   1   36.16    3.70
   0  -5  -1    1.01    1.73
   0  -5  -1   -3.40    1.89
   0  -5  -1   -0.59    2.01
   0  -5  -1   -1.55    1.85
   0   5   1   -2.88    1.69
   0   5   1    2.65    1.94
   0   5   1   -1.76    1.72
  -1  -5  -1    6.92    2.18
  -1  -5  -1    0.46    2.16
  -1  -5  -1    4.21    2.87
   1   5   1    1.78    3.04
   1   5   1    5.59    2.30
   1   5   1    4.16    2.76
  -2  -5  -1   40.43    5.36
  -2  -5  -1   42.51    4.51
  -2  -5  -1   43.81    5.24
   2   5   1   52.12    5.18
   2   5   1   43.72    5.36
   2   5   1   38.93    4.97
  -3  -5  -1   37.40    5.07
   3   5   1   44.46    5.46
  -4  -5  -1    9.12    3.73
   4   5   1    2.65    4.78
  -5  -5  -1    1.71    3.75
   5   5   1    7.53    5.48
  -6  -5  -1    7.28    4.63
   6   5   1    4.04    5.98
   7  -6  -1   11.17    5.70
  -7   6   1    2.79    5.67
   6  -6  -1   -1.49    4.51
  -6   6   1   -3.73    3.30
   5  -6  -1    7.31    4.42
  -5   6   1   10.74    4.50
   4  -6  -1   36.19    4.78
   4  -6  -1   28.29    4.08
  -4   6   1   32.43    5.09
   3  -6  -1   10.24    2.89
   3  -6  -1   10.87    3.82
  -3   6   1   22.13    4.39
   2  -6  -1   -3.01    1.93
   2  -6  -1    1.29    2.28
   2  -6  -1    4.08    2.44
  -2   6   1    1.27    2.81
  -2   6   1    1.51    2.34
  -2   6   1   -3.42    2.92
   1  -6  -1    7.59    2.66
   1  -6  -1    5.08    2.41
   1  -6  -1    7.88    2.15
   1  -6  -1    8.05    2.95
  -1   6   1   10.41    2.46
  -1   6   1    5.13    2.68
  -1   6   1    7.16    3.28
   0  -6  -1   10.45    2.17
   0  -6  -1    9.56    2.60
   0  -6  -1   13.99    3.07
   0  -6  -1    4.44    3.14
   0   6   1    8.91    2.57
   0   6   1    9.05    3.09
   0   6   1    4.63    2.87
  -1  -6  -1   13.70    3.79
  -1  -6  -1   12.36    2.81
  -1  -6  -1   17.96    3.91
   1   6   1   17.93    3.10
   1   6   1   20.06    3.92
   1   6   1   16.73    3.33
  -2  -6  -1    3.73    2.66
  -2  -6  -1   -7.67    3.64
   2   6   1   -1.87    3.60
   2   6   1   -2.02    2.88
  -3  -6  -1    7.31    3.66
  -3  -6  -1    5.68    3.55
   3   6   1    8.13    3.67
   3   6   1    5.71    3.47
  -4  -6  -1   26.50    5.92
   4   6   1   30.78    5.39
  -5  -6  -1   14.07    5.74
   5   6   1   -1.70    4.10
  -6  -6  -1   -5.60    5.77
   6   6   1   -6.08    4.21
   6  -7  -1   -2.77    3.32
  -6   7   1    5.11    3.81
   5  -7  -1    0.98    4.29
  -5   7   1    5.17    4.47
   4  -7  -1   -0.24    2.99
  -4   7   1   -0.62    3.90
   3  -7  -1    1.66    2.73
   3  -7  -1   -3.41    2.60
  -3   7   1    5.16    3.08
  -3   7   1   -0.16    2.80
   2  -7  -1   -1.97    3.43
   2  -7  -1    4.65    2.91
  -2   7   1    5.68    2.64
  -2   7   1    3.59    3.49
  -2   7   1    2.19    2.89
   1  -7  -1    2.81    2.95
   1  -7  -1    1.59    2.21
   1  -7  -1    8.26    2.92
  -1   7   1    5.26    2.54
  -1   7   1    7.45    3.64
  -1   7   1    4.46    3.19
   0  -7  -1    0.30    3.11
   0  -7  -1   -0.57    3.43
   0  -7  -1   -3.03    1.98
   0   7   1    3.29    3.50
   0   7   1    4.26    3.27
   0   7   1    5.03    3.32
  -1  -7  -1   89.89    6.74
  -1  -7  -1   92.23    8.44
   1   7   1   90.61    7.52
   1   7   1   72.88    7.51
   1   7   1   93.74    8.11
  -2  -7  -1    5.43    2.90
  -2  -7  -1   -1.74    3.08
   2   7   1    3.08    4.33
   2   7   1    8.41    4.46
  -3  -7  -1   15.36    4.16
  -3  -7  -1   29.80    5.95
   3   7   1   22.46    5.54
   3   7   1   30.65    5.93
  -4  -7  -1    4.87    5.30
  -4  -7  -1   -1.03    4.02
   4   7   1   -7.21    4.96
   4   7   1    3.58    4.01
  -5  -7  -1   20.53    6.22
  -5  -7  -1    0.32    5.01
   5   7   1    6.84    6.15
   5   7   1   14.20    6.35
   6  -8  -1    3.81    4.93
  -6   8   1   -5.09    5.01
   5  -8  -1    2.19    4.51
  -5   8   1    5.39    3.62
   4  -8  -1    7.40    4.40
  -4   8   1    0.68    4.05
   3  -8  -1   -1.11    4.00
  -3   8   1   -1.81    3.40
  -3   8   1   -0.43    2.72
   2  -8  -1   29.30    4.50
  -2   8   1   31.51    4.43
  -2   8   1   23.38    4.89
   1  -8  -1   36.67    3.99
   1  -8  -1   30.54    4.61
  -1   8   1   32.26    5.16
  -1   8   1   33.32    4.42
  -1   8   1   26.36    4.57
   0  -8  -1   15.88    3.08
   0  -8  -1   19.83    4.73
   0   8   1   14.76    4.50
   0   8   1   15.99    4.03
  -1  -8  -1   53.30    6.76
  -1  -8  -1   48.30    5.08
   1   8   1   40.83    6.03
   1   8   1   56.07    6.02
  -2  -8  -1    6.57    3.16
  -2  -8  -1    1.79    3.51
   2   8   1    1.16    4.70
   2   8   1   10.78    3.75
  -3  -8  -1    5.03    3.48
  -3  -8  -1   -0.22    3.65
   3   8   1    8.48    4.10
   3   8   1    8.94    5.45
  -4  -8  -1   -1.96    3.95
  -4  -8  -1   10.35    4.61
   4   8   1    2.62    4.17
   4   8   1    7.59    4.43
  -5  -8  -1   -1.65    6.08
  -5  -8  -1    2.25    5.14
   5   8   1   10.91    6.32
   5   8   1  -14.13    5.95
   6  -9  -1    3.20    3.91
  -6   9   1   -1.33    5.14
   5  -9  -1    4.25    4.66
  -5   9   1    1.80    4.85
   4  -9  -1    2.03    4.29
  -4   9   1    1.25    4.35
   3  -9  -1    4.45    4.45
  -3   9   1    1.35    2.96
  -3   9   1    1.21    3.47
   2  -9  -1   -0.34    4.42
  -2   9   1   -2.18    2.99
  -2   9   1    2.30    3.57
   1  -9  -1    1.02    2.80
   1  -9  -1    4.01    4.41
  -1   9   1    2.53    3.08
  -1   9   1    3.93    3.62
   0  -9  -1   -3.15    2.60
   0  -9  -1    5.18    4.54
   0   9   1    2.20    2.98
   0   9   1    1.34    4.32
  -1  -9  -1    3.90    4.75
  -1  -9  -1    3.29    2.73
   1   9   1    2.65    4.53
   1   9   1    3.43    4.33
  -2  -9  -1   15.04    3.86
  -2  -9  -1   21.22    4.73
   2   9   1   12.78    5.34
   2   9   1   15.01    4.20
  -3  -9  -1    2.63    3.42
  -3  -9  -1    3.41    4.12
   3   9   1   -2.43    5.11
   3   9   1   -2.30    3.75
  -4  -9  -1    0.19    3.85
  -4  -9  -1    9.56    4.71
   4   9   1   -8.48    3.78
   4   9   1   -0.36    4.39
   5 -10  -1   -0.34    4.89
  -5  10   1   -0.19    5.24
   4 -10  -1   11.14    5.08
   3 -10  -1    4.98    3.66
  -3  10   1    6.46    4.15
  -3  10   1   -1.23    4.22
   2 -10  -1   -0.21    4.44
  -2  10   1   -7.04    3.31
  -2  10   1   -0.53    3.02
   1 -10  -1   15.80    3.40
   1 -10  -1   13.14    5.10
  -1  10   1   11.64    4.91
  -1  10   1   14.44    4.35
   0 -10  -1    3.45    2.88
   0 -10  -1   10.35    4.98
   0  10   1    8.78    4.86
   0  10   1    2.59    4.09
  -1 -10  -1    9.68    3.31
  -1 -10  -1    4.70    3.95
   1  10   1    9.94    3.88
   1  10   1    6.82    3.60
  -2 -10  -1    7.87    4.37
  -2 -10  -1    6.88    3.50
   2  10   1    4.78    4.96
   2  10   1    3.09    5.14
  -3 -10  -1   16.06    4.13
  -3 -10  -1    8.90    6.07
   3  10   1   25.42    6.63
   3  10   1   13.60    4.94
  -4 -10  -1    4.18    6.10
  -4 -10  -1   -3.60    3.93
   4  10   1    8.79    6.51
   4  10   1   -0.79    4.61
   5 -11  -1    1.72    5.47
  -5  11   1   12.30    6.22
   4 -11  -1    1.68    5.13
   3 -11  -1   -1.21    4.77
  -3  11   1    2.49    3.94
  -3  11   1   -2.93    3.17
   2 -11  -1    0.48    4.77
  -2  11   1    2.37    3.97
  -2  11   1   -2.48    3.17
   1 -11  -1    8.56    5.10
   1 -11  -1    3.51    2.88
  -1  11   1   -3.40    3.17
  -1  11   1    3.31    4.14
   0 -11  -1    1.26    2.83
   0 -11  -1   -0.42    5.13
   0  11   1   -3.36    4.21
   0  11   1   -0.07    4.69
  -1 -11  -1   13.06    3.55
  -1 -11  -1   27.50    6.39
   1  11   1   20.83    5.85
   1  11   1   13.00    5.33
  -2 -11  -1    1.21    3.43
  -2 -11  -1   -0.59    4.13
   2  11   1    5.25    5.44
   2  11   1    1.72    5.54
  -3 -11  -1   28.60    4.84
  -3 -11  -1   32.65    6.44
   3  11   1   22.38    5.96
   3  11   1   34.09    7.42
   4 -12  -1   10.73    4.72
   3 -12  -1   15.02    5.83
  -3  12   1   -4.19    3.39
  -3  12   1    5.25    4.18
   2 -12  -1   10.36    5.78
  -2  12   1    7.89    5.18
  -2  12   1    1.46    4.30
   1 -12  -1    1.39    2.86
   1 -12  -1    3.40    4.19
  -1  12   1   10.76    5.21
  -1  12   1    4.19    4.36
   0 -12  -1   26.23    7.02
   0  12   1   37.79    6.21
   0  12   1   37.03    7.08
  -1 -12  -1   14.14    6.17
   1  12   1    1.28    3.87
   1  12   1    0.26    4.05
  -2 -12  -1   24.17    7.14
   2  12   1   23.47    5.40
   2  12   1    8.07    4.94
   3 -13  -1   13.80    6.24
  -3  13   1    9.57    4.75
  -3  13   1   -2.24    3.85
   2 -13  -1    3.41    4.63
  -2  13   1    0.87    5.27
  -2  13   1    8.14    5.04
   1 -13  -1    7.84    6.07
  -1  13   1    1.12    4.39
  -1  13   1    3.73    5.33
   0 -13  -1   28.49    7.32
   0  13   1   24.16    6.58
   0  13   1   26.56    5.87
  -1 -13  -1   26.33    6.00
   1  13   1   14.89    6.86
   1  13   1   19.05    6.37
   1  13  -2   11.10    6.44
   1  13  -2    2.44    5.42
  -1 -13   2    4.52    6.54
   0  13  -2   -7.33    4.90
   0  13  -2    6.62    4.43
   0 -13   2    8.69    4.98
  -1  13  -2   -0.90    4.78
  -1  13  -2    0.20    5.19
   1 -13   2   -0.94    4.32
  -2  13  -2   -5.39    3.69
  -2  13  -2    0.07    4.46
   2 -13   2    3.66    6.03
  -3  13  -2    3.96    4.24
  -3  13  -2    1.92    3.65
   3 -13   2    6.82    6.14
   2  12  -2   -1.92    5.84
   2  12  -2    3.51    4.41
  -2 -12   2   17.27    5.47
   1  12  -2    0.90    3.83
   1  12  -2   -3.61    5.51
  -1 -12   2    9.35    6.00
   0  12  -2    0.49    3.76
   0  12  -2    1.17    4.73
   0 -12   2    3.12    4.26
  -1  12  -2   15.01    4.23
  -1  12  -2    3.60    3.89
   1 -12   2   24.38    6.51
  -2  12  -2    4.38    4.56
  -2  12  -2    6.44    5.26
   2 -12   2    0.53    3.96
  -3  12  -2    1.33    3.40
  -3  12  -2   -0.84    3.66
   3 -12   2   10.35    5.89
   4 -12   2    3.30    5.85
   3  11  -2   -4.52    5.53
   3  11  -2  -11.31    5.39
  -3 -11   2   -3.52    5.75
   2  11  -2   -0.77    3.83
   2  11  -2    3.72    5.37
  -2 -11   2   -4.89    5.72
   1  11  -2    6.34    4.06
   1  11  -2    6.62    4.89
  -1 -11   2   -4.43    3.76
   0  11  -2    4.91    3.85
   0  11  -2    8.03    4.75
   0 -11   2    3.15    4.05
  -1  11  -2   47.71    6.38
  -1  11  -2   26.29    6.29
   1 -11   2   45.34    6.27
  -2  11  -2    9.91    4.57
  -2  11  -2   -2.04    4.71
   2 -11   2   -0.66    3.81
  -3  11  -2   13.02    5.08
  -3  11  -2    9.75    4.56
   3 -11   2    1.02    3.83
  -4  11  -2   17.58    4.99
   4 -11   2   14.20    5.77
  -5  11  -2    0.61    5.86
   5 -11   2    8.12    5.95
   4  10  -2   -6.36    5.92
   4  10  -2   -2.47    6.22
  -4 -10   2    0.18    6.19
  -4 -10   2   -0.61    3.55
   3  10  -2    9.22    5.88
   3  10  -2   12.50    4.85
  -3 -10   2   13.07    3.79
  -3 -10   2   22.54    5.41
   2  10  -2    2.24    4.85
   2  10  -2   -0.90    4.85
  -2 -10   2    2.73    4.18
  -2 -10   2    3.28    2.83
   1  10  -2   -5.72    3.18
   1  10  -2    0.23    4.44
  -1 -10   2    2.24    2.18
  -1 -10   2    1.72    5.17
   0  10  -2    1.87    4.07
   0  10  -2    3.42    4.64
   0 -10   2   -0.43    1.89
   0 -10   2   -5.05    4.51
  -1  10  -2   13.65    3.62
  -1  10  -2    1.39    4.54
   1 -10   2    2.13    4.86
  -2  10  -2   -5.60    3.81
  -2  10  -2   -2.63    4.40
   2 -10   2   -0.21    3.48
  -3  10  -2   -2.98    4.15
  -3  10  -2    0.91    4.02
   3 -10   2    6.37    4.95
  -4  10  -2    6.29    5.22
   4 -10   2   -2.57    4.77
  -5  10  -2   -3.27    5.11
   5 -10   2    0.85    5.24
   4   9  -2   -1.39    5.76
   4   9  -2    2.49    5.82
  -4  -9   2    5.93    5.94
  -4  -9   2   -4.24    3.23
   3   9  -2   -0.14    3.89
   3   9  -2   -1.90    5.08
  -3  -9   2   -3.43    2.91
  -3  -9   2    7.41    4.21
   2   9  -2    9.51    4.92
   2   9  -2    5.84    4.84
  -2  -9   2    5.52    2.85
  -2  -9   2    5.25    3.92
   1   9  -2    2.81    4.34
   1   9  -2    5.38    4.64
  -1  -9   2    7.17    4.87
  -1  -9   2   -0.07    2.14
   0   9  -2    4.16    4.52
   0   9  -2   -3.95    2.86
   0  -9   2   -2.51    4.49
   0  -9   2   -0.17    1.87
  -1   9  -2    3.06    4.12
  -1   9  -2    7.26    3.49
   1  -9   2    7.56    3.58
  -2   9  -2    0.61    3.15
  -2   9  -2    0.55    2.94
   2  -9   2    4.22    3.49
  -3   9  -2    6.02    4.34
  -3   9  -2    2.96    3.89
   3  -9   2    8.26    3.60
  -4   9  -2   -4.30    4.58
   4  -9   2   -0.57    4.60
  -5   9  -2   13.75    5.53
   5  -9   2    4.78    5.21
  -6   9  -2   -1.74    5.55
   6  -9   2    1.69    5.45
   5   8  -2   -4.91    5.64
   5   8  -2    5.07    4.74
  -5  -8   2    3.85    4.57
  -5  -8   2   -2.97    4.32
   4   8  -2   16.74    6.19
   4   8  -2   24.31    6.27
  -4  -8   2   18.26    4.61
  -4  -8   2   18.50    6.19
   3   8  -2   -2.16    4.81
   3   8  -2    0.44    4.90
  -3  -8   2   -2.88    4.69
  -3  -8   2    1.87    2.90
   2   8  -2   27.41    5.64
   2   8  -2   18.17    4.24
  -2  -8   2   18.44    3.39
  -2  -8   2   31.64    5.06
   1   8  -2    2.30    3.12
   1   8  -2    3.81    3.13
  -1  -8   2    4.25    2.25
  -1  -8   2    7.00    4.48
   0   8  -2    7.96    4.01
   0   8  -2   10.84    4.38
   0  -8   2   10.12    2.09
   0  -8   2    7.24    4.27
  -1   8  -2   -2.75    3.55
  -1   8  -2    0.70    2.87
   1  -8   2   -0.19    2.95
  -2   8  -2    9.41    3.85
  -2   8  -2    2.71    4.01
   2  -8   2    3.26    4.24
  -3   8  -2    5.22    3.85
   3  -8   2    1.76    3.16
  -4   8  -2   13.11    3.74
   4  -8   2    0.02    4.46
  -5   8  -2   -3.38    4.51
   5  -8   2   -3.02    4.69
  -6   8  -2   26.62    5.47
   6  -8   2   35.17    5.95
   5   7  -2    0.13    3.97
   5   7  -2   -1.64    4.00
  -5  -7   2    0.26    4.10
   4   7  -2    6.65    4.02
   4   7  -2    1.59    3.77
  -4  -7   2    3.71    3.96
   3   7  -2    1.94    4.62
   3   7  -2    1.92    4.74
  -3  -7   2    4.30    3.30
  -3  -7   2    3.87    4.74
   2   7  -2    4.41    4.29
   2   7  -2    0.83    4.21
  -2  -7   2    7.71    2.67
  -2  -7   2    5.94    3.49
   1   7  -2    7.37    3.88
   1   7  -2    2.23    3.69
  -1  -7   2    0.88    3.78
  -1  -7   2    1.34    2.04
  -1  -7   2    5.85    3.04
   0   7  -2    1.20    3.42
   0   7  -2    4.23    2.81
   0   7  -2   -2.51    2.95
   0  -7   2    0.48    1.52
   0  -7   2    3.79    3.56
   0  -7   2   -0.39    3.48
  -1   7  -2   17.30    3.26
  -1   7  -2   13.87    3.35
  -1   7  -2   10.43    2.94
   1  -7   2   12.31    3.61
   1  -7   2   23.04    3.48
   1  -7   2   17.00    3.46
  -2   7  -2    6.19    3.43
  -2   7  -2   12.55    3.89
   2  -7   2    5.79    3.93
   3  -7   2   35.86    5.54
  -4   7  -2   19.25    4.95
   4  -7   2   25.28    5.37
  -5   7  -2    1.36    4.55
   5  -7   2   -3.86    4.45
  -6   7  -2   -4.15    4.85
   6  -7   2   -2.97    5.09
   6   6  -2    4.46    6.13
   6   6  -2  -13.90    3.71
  -6  -6   2   10.09    4.89
   5   6  -2    2.57    3.96
   5   6  -2    0.11    5.36
  -5  -6   2    1.60    5.12
   4   6  -2    4.80    4.96
   4   6  -2   -0.42    3.40
  -4  -6   2    8.78    4.88
   3   6  -2   22.81    5.26
   3   6  -2   33.55    4.99
  -3  -6   2   26.98    4.74
   2   6  -2   54.72    6.56
   2   6  -2   54.90    6.42
  -2  -6   2   64.85    6.14
  -2  -6   2   59.08    5.08
  -2  -6   2   52.13    6.66
   1   6  -2   32.59    3.79
   1   6  -2   27.97    4.41
   1   6  -2   26.20    3.83
  -1  -6   2   32.89    4.49
  -1  -6   2   28.23    2.90
  -1  -6   2   22.03    3.51
  -1  -6   2   24.33    4.36
   0   6  -2   47.13    5.15
   0   6  -2   38.04    4.65
   0   6  -2   43.75    4.40
   0  -6   2   44.46    4.62
   0  -6   2   42.77    4.73
   0  -6   2   38.24    4.39
   0  -6   2   40.53    3.23
  -1   6  -2  102.10    8.72
  -1   6  -2  109.96    8.30
  -1   6  -2  105.23    8.31
   1  -6   2  105.89    8.19
   1  -6   2  135.82    8.80
   1  -6   2   89.59    8.66
  -2   6  -2   -1.19    2.20
  -2   6  -2    1.46    3.29
  -2   6  -2    6.09    3.01
   2  -6   2    2.07    2.35
   2  -6   2    1.06    2.62
   2  -6   2    4.61    2.44
  -3   6  -2   71.06    7.18
   3  -6   2   69.60    6.66
   3  -6   2   90.78    7.78
  -4   6  -2   48.50    6.21
   4  -6   2   50.62    6.56
  -5   6  -2    5.87    4.64
   5  -6   2   17.18    4.24
  -6   6  -2   -0.34    4.96
   6  -6   2   12.34    5.58
  -7   6  -2   19.42    6.40
   7  -6   2   23.68    6.65
   6   5  -2    0.35    4.13
   6   5  -2   -7.64    4.89
  -6  -5   2    6.39    5.71
   5   5  -2   10.68    4.32
   5   5  -2   21.67    4.91
  -5  -5   2   30.42    6.17
   4   5  -2    4.87    4.57
   4   5  -2   12.93    3.99
  -4  -5   2   12.40    4.75
   3   5  -2    9.67    4.24
   3   5  -2    5.06    3.26
  -3  -5   2    9.38    3.97
  -3  -5   2    2.45    2.96
   2   5  -2    3.59    2.56
   2   5  -2    4.55    2.18
   2   5  -2    4.80    3.48
  -2  -5   2    2.74    2.42
  -2  -5   2    1.59    2.51
   1   5  -2    7.80    3.08
   1   5  -2    2.97    2.66
   1   5  -2   11.74    2.65
  -1  -5   2    5.24    1.65
  -1  -5   2   10.69    2.53
  -1  -5   2    7.49    3.11
  -1  -5   2   10.12    2.99
   0   5  -2   11.40    2.65
   0   5  -2   13.97    3.09
   0   5  -2   13.08    2.98
   0  -5   2   16.90    3.30
   0  -5   2   12.92    2.49
   0  -5   2   19.77    3.36
   0  -5   2   16.55    1.67
  -1   5  -2  104.68    7.98
  -1   5  -2  103.83    7.99
  -1   5  -2  114.23    8.00
   1  -5   2  102.69    8.37
   1  -5   2  108.65    8.01
   1  -5   2  105.51    7.86
  -2   5  -2    8.50    2.74
  -2   5  -2    9.95    2.67
  -2   5  -2    9.54    2.33
   2  -5   2   10.16    2.74
   2  -5   2    7.94    2.43
   2  -5   2   12.06    2.63
  -3   5  -2  111.48    8.56
  -3   5  -2  131.73    9.57
   3  -5   2  104.17    8.01
   3  -5   2  105.72    9.16
   3  -5   2  101.01    8.47
  -4   5  -2    7.56    3.11
   4  -5   2   10.83    4.55
  -5   5  -2   12.61    4.80
   5  -5   2   23.94    5.49
  -6   5  -2   -0.88    4.81
   6  -5   2    5.27    5.42
  -7   5  -2    6.70    4.52
   7  -5   2    3.23    4.47
   6   4  -2    5.75    5.53
  -6  -4   2    4.05    4.05
   5   4  -2    3.46    4.99
  -5  -4   2    5.28    3.59
   4   4  -2    3.61    3.38
  -4  -4   2    4.78    4.22
   3   4  -2   23.31    3.82
   3   4  -2   20.12    3.65
  -3  -4   2   17.99    4.20
  -3  -4   2   18.80    4.12
   2   4  -2   87.10    7.18
   2   4  -2   98.39    7.02
   2   4  -2   88.42    6.96
  -2  -4   2   82.15    7.54
  -2  -4   2   90.86    7.54
   1   4  -2    9.21    2.24
   1   4  -2    9.97    2.57
   1   4  -2   11.03    2.35
  -1  -4   2   13.40    2.82
  -1  -4   2   11.51    2.72
  -1  -4   2    7.42    2.71
   0   4  -2  206.34   14.45
   0   4  -2  219.12   13.84
   0   4  -2  201.91   14.18
   0  -4   2  202.99   14.22
   0  -4   2  208.83   12.92
   0  -4   2  215.69   14.28
   0  -4   2  210.84   13.63
  -1   4  -2   51.22    3.86
  -1   4  -2   39.94    3.90
  -1   4  -2   32.17    4.12
   1  -4   2   34.09    4.14
   1  -4   2   45.20    4.00
   1  -4   2   46.95    4.01
  -2   4  -2   16.28    3.43
  -2   4  -2   12.87    2.39
   2  -4   2   12.01    2.58
   2  -4   2   18.29    3.12
   2  -4   2   15.11    2.85
  -3   4  -2    2.22    3.17
  -3   4  -2   -3.15    2.81
   3  -4   2    0.93    2.54
   3  -4   2    4.91    2.52
   3  -4   2   -0.16    1.94
  -4   4  -2   19.15    3.65
   4  -4   2   12.30    4.64
  -5   4  -2    0.85    3.21
   5  -4   2    0.70    3.33
  -6   4  -2   -3.57    4.68
   6  -4   2    1.25    5.14
  -7   4  -2   -0.45    4.14
   7  -4   2    3.61    4.57
   6   3  -2   10.23    4.41
  -6  -3   2    6.00    5.12
   5   3  -2    9.53    4.81
  -5  -3   2    4.54    3.58
   4   3  -2   -0.51    2.94
  -4  -3   2    1.17    3.80
  -4  -3   2   -0.94    3.70
   3   3  -2   -5.02    2.44
   3   3  -2   -4.46    3.21
  -3  -3   2    3.04    3.19
  -3  -3   2    2.76    2.36
   2   3  -2  540.41   35.39
   2   3  -2  557.44   37.05
   2   3  -2  568.97   36.96
  -2  -3   2  587.70   37.14
  -2  -3   2  565.52   37.09
   1   3  -2   13.38    2.27
   1   3  -2   11.20    2.28
   1   3  -2   11.05    2.44
  -1  -3   2   12.52    2.22
  -1  -3   2   10.29    2.15
  -1  -3   2   14.06    2.80
   0   3  -2   23.88    3.39
   0   3  -2   40.86    3.58
   0   3  -2   38.30    3.72
   0  -3   2   37.91    3.63
   0  -3   2   37.26    2.42
   0  -3   2   39.16    3.66
   0  -3   2   38.16    3.44
  -1   3  -2    2.23    2.08
  -1   3  -2    1.84    2.33
  -1   3  -2    0.83    2.09
   1  -3   2   -2.26    2.01
   1  -3   2    2.56    1.74
   1  -3   2    1.42    1.57
  -2   3  -2   13.13    2.88
  -2   3  -2    8.15    2.52
   2  -3   2   11.30    2.82
   2  -3   2   11.96    2.12
   2  -3   2    7.11    2.46
  -3   3  -2   20.95    3.09
  -3   3  -2   19.94    3.26
   3  -3   2   17.51    3.94
   3  -3   2   25.50    3.06
  -4   3  -2   34.86    4.46
   4  -3   2   35.30    5.41
  -5   3  -2    4.23    3.25
  -5   3  -2    2.21    2.01
   5  -3   2    1.65    4.57
  -6   3  -2    6.54    3.78
   6  -3   2    0.56    3.82
  -7   3  -2   -1.02    3.99
   7  -3   2    5.60    4.63
   7   2  -2    4.41    5.60
  -7  -2   2   -3.07    3.92
   6   2  -2    1.10    4.85
  -6  -2   2   -3.69    4.56
   5   2  -2    3.20    4.37
  -5  -2   2   -5.22    2.77
   4   2  -2   -0.52    3.77
  -4  -2   2    0.06    3.37
  -4  -2   2   -1.73    3.51
   3   2  -2   17.26    3.08
   3   2  -2   20.38    3.25
  -3  -2   2   17.18    3.26
  -3  -2   2   14.17    3.50
   2   2  -2    2.17    1.78
   2   2  -2   -2.08    1.90
  -2  -2   2    1.81    1.72
  -2  -2   2    1.09    1.60
   1   2  -2   70.31    5.59
   1   2  -2   62.42    5.70
   1   2  -2   77.60    5.65
  -1  -2   2   78.11    5.47
  -1  -2   2   78.44    5.48
   0   2  -2  144.63   10.58
   0   2  -2  132.03   10.60
   0   2  -2  170.73   10.24
   0  -2   2  172.29   10.63
   0  -2   2  165.75   10.12
   0  -2   2  162.86   10.54
  -1   2  -2    4.81    2.16
  -1   2  -2    8.86    2.05
   1  -2   2    7.58    1.65
   1  -2   2    5.12    1.97
   1  -2   2    8.51    1.73
  -2   2  -2   11.67    2.12
  -2   2  -2    9.83    2.28
   2  -2   2   12.87    2.43
   2  -2   2   10.76    2.08
  -3   2  -2   24.38    3.60
  -3   2  -2   21.46    3.30
   3  -2   2   23.00    3.41
   3  -2   2   24.97    3.57
  -4   2  -2    1.66    2.78
  -4   2  -2    0.37    3.44
  -4   2  -2   -0.78    1.66
   4  -2   2    3.78    2.93
  -5   2  -2   12.67    3.62
   5  -2   2    1.26    4.72
  -6   2  -2   -6.99    4.40
   6  -2   2    1.95    5.25
  -7   2  -2    2.79    5.62
   7  -2   2   10.77    4.85
   7   1  -2   11.08    5.69
  -7  -1   2   19.64    6.33
   6   1  -2    2.88    4.79
  -6  -1   2    0.17    3.43
   5   1  -2   -4.22    4.09
  -5  -1   2    0.39    3.95
   4   1  -2    8.33    3.99
  -4  -1   2   11.47    3.02
  -4  -1   2    4.16    3.39
   3   1  -2   16.15    3.43
   3   1  -2   14.75    2.47
  -3  -1   2   21.63    3.43
  -3  -1   2   12.93    2.49
   2   1  -2   -1.11    2.21
   2   1  -2    2.71    1.90
  -2  -1   2    0.31    1.40
  -2  -1   2   -2.76    1.52
   1   1  -2  626.46   39.38
   1   1  -2  604.21   41.19
   1   1  -2  665.84   41.20
  -1  -1   2  670.82   41.22
  -1  -1   2  619.29   41.21
   0   1  -2  116.77    7.61
   0   1  -2  116.97    7.93
   0   1  -2  124.83    7.96
   0   1  -2  128.86    7.43
   0  -1   2  115.84    7.61
   0  -1   2  117.33    7.93
  -1   1  -2  823.19   51.17
  -1   1  -2  856.97   51.23
   1  -1   2  825.66   51.18
   1  -1   2  664.46   51.18
  -2   1  -2    1.25    1.46
  -2   1  -2    1.09    2.13
  -2   1  -2   -0.73    1.80
   2  -1   2   -0.48    2.44
   2  -1   2    0.52    2.13
  -3   1  -2    3.06    1.40
  -3   1  -2    5.30    2.34
  -3   1  -2   -1.02    2.60
   3  -1   2    6.37    3.12
   3  -1   2    3.39    1.99
  -4   1  -2   17.96    2.15
  -4   1  -2   11.18    4.21
  -4   1  -2   14.33    4.02
   4  -1   2   21.66    3.83
  -5   1  -2    7.57    3.45
   5  -1   2    9.07    5.01
  -6   1  -2    8.75    5.00
   6  -1   2    5.51    4.01
  -7   1  -2   -1.91    5.62
   7  -1   2   -3.14    5.81
   7   0  -2   -0.56    4.78
  -7   0   2    1.64    3.99
   6   0  -2    6.34    3.75
  -6   0   2    3.28    3.57
   5   0  -2   29.94    5.43
  -5   0   2   32.49    5.23
   4   0  -2    6.06    3.60
  -4   0   2    7.31    3.51
  -4   0   2    9.35    3.43
   3   0  -2    5.48    2.16
   3   0  -2    6.73    2.36
  -3   0   2    4.60    2.07
  -3   0   2    2.46    2.47
   2   0  -2    7.52    1.99
   2   0  -2    6.17    2.22
  -2   0   2    5.18    2.13
  -2   0   2    6.38    2.22
   1   0  -2  444.35   29.47
   1   0  -2  468.02   30.94
  -1   0   2  457.64   29.50
  -1   0   2  454.42   29.51
   0   0  -2   -0.51    0.39
   0   0  -2    0.14    0.28
   0   0  -2   -0.35    0.35
   0   0   2   -0.81    0.18
   0   0   2   -0.86    0.20
  -1   0  -2   25.92    2.52
  -1   0  -2   32.08    2.91
  -1   0  -2   28.38    2.54
   1   0   2   32.07    2.82
   1   0   2   30.03    2.85
  -2   0  -2    0.87    1.79
  -2   0  -2    0.17    1.70
  -2   0  -2   -0.33    1.29
   2   0   2    2.17    2.59
   2   0   2    3.58    2.23
  -3   0  -2   -0.88    1.18
  -3   0  -2   -0.91    2.57
  -3   0  -2   -2.07    2.03
   3   0   2    2.23    2.56
   3   0   2    2.82    2.25
  -4   0  -2   -1.97    3.32
  -4   0  -2    3.00    1.09
   4   0   2    6.84    4.14
  -5   0  -2    4.66    3.19
   5   0   2    7.50    4.87
  -6   0  -2    5.88    3.77
   6   0   2    5.40    5.42
  -7   0  -2   -2.72    3.87
   7   0   2    0.41    6.10
   7  -1  -2   -3.52    4.81
  -7   1   2   -0.49    5.21
   6  -1  -2   -9.89    3.84
  -6   1   2   -2.96    4.13
   5  -1  -2   -0.36    2.85
  -5   1   2   -3.85    3.56
   4  -1  -2   92.43    7.87
  -4   1   2   81.17    7.09
  -4   1   2   85.56    7.28
   3  -1  -2    9.20    2.39
   3  -1  -2    5.55    2.71
  -3   1   2    6.03    2.73
  -3   1   2   10.82    2.60
   2  -1  -2   89.95    6.60
   2  -1  -2   88.72    6.64
  -2   1   2   85.79    6.74
  -2   1   2  104.07    6.99
   1  -1  -2  820.51   48.42
   1  -1  -2  781.91   45.95
   1  -1  -2  785.49   48.37
  -1   1   2  724.14   48.36
  -1   1   2  641.25   48.36
   0  -1  -2   12.18    1.43
   0  -1  -2   13.47    1.31
   0  -1  -2   11.67    1.28
   0   1   2   11.44    1.16
   0   1   2   11.25    1.21
  -1  -1  -2  299.37   19.96
  -1  -1  -2  309.75   20.88
  -1  -1  -2  331.80   20.05
   1   1   2  330.68   20.13
   1   1   2  253.71   19.99
  -2  -1  -2    3.29    2.53
  -2  -1  -2    4.66    1.86
  -2  -1  -2    5.95    1.55
   2   1   2    3.51    1.80
   2   1   2    4.55    2.75
  -3  -1  -2    0.26    2.93
  -3  -1  -2    1.14    2.67
   3   1   2    1.40    2.67
   3   1   2    6.10    3.18
  -4  -1  -2    9.18    3.81
   4   1   2   -1.96    4.09
  -5  -1  -2   16.26    4.77
   5   1   2   18.81    5.45
  -6  -1  -2    1.96    4.82
   6   1   2   10.59    5.73
  -7  -1  -2    8.17    5.76
   7   1   2   -2.92    4.08
   7  -2  -2    2.23    4.84
  -7   2   2    9.18    5.46
   6  -2  -2    7.94    4.68
  -6   2   2    4.76    4.65
   5  -2  -2   -2.10    3.90
  -5   2   2    1.54    3.95
   4  -2  -2    1.38    3.15
  -4   2   2   -3.94    3.10
  -4   2   2   -0.79    2.29
   3  -2  -2   34.67    4.08
   3  -2  -2   39.60    3.94
  -3   2   2   39.65    4.02
  -3   2   2   30.22    4.07
   2  -2  -2   -0.57    1.70
   2  -2  -2    2.48    2.04
  -2   2   2    2.75    2.04
  -2   2   2    1.69    2.12
   1  -2  -2   10.72    1.78
   1  -2  -2    9.95    1.35
   1  -2  -2    8.52    1.68
   1  -2  -2   11.18    1.90
  -1   2   2   10.90    1.77
  -1   2   2   10.53    1.92
  -1   2   2   10.26    1.35
   0  -2  -2  211.99   14.33
   0  -2  -2  221.49   13.62
   0  -2  -2  211.15   14.34
   0   2   2  210.82   14.34
   0   2   2  222.06   13.63
   0   2   2  220.21   14.28
  -1  -2  -2    2.65    1.62
  -1  -2  -2    1.79    1.60
  -1  -2  -2    4.72    2.07
   1   2   2    2.34    2.32
   1   2   2    3.65    2.12
  -2  -2  -2   25.45    3.67
  -2  -2  -2   32.78    3.72
   2   2   2   28.58    3.58
   2   2   2   25.69    3.29
  -3  -2  -2   24.51    4.14
  -3  -2  -2   27.45    3.95
   3   2   2   34.59    4.77
   3   2   2   41.62    4.23
  -4  -2  -2   16.09    3.62
   4   2   2   24.10    4.18
  -5  -2  -2    1.47    4.37
   5   2   2   -2.55    3.29
  -6  -2  -2   11.21    5.43
   6   2   2   18.07    4.84
  -7  -2  -2   -7.77    5.76
   7   2   2   -5.94    5.65
   7  -3  -2    7.59    3.96
  -7   3   2    5.53    4.20
   6  -3  -2   20.02    4.44
  -6   3   2   20.97    5.22
   5  -3  -2   14.21    4.60
  -5   3   2   12.72    4.52
   4  -3  -2   20.80    4.12
  -4   3   2   17.10    3.95
  -4   3   2   13.86    3.12
   3  -3  -2   48.56    5.09
   3  -3  -2   47.93    4.35
   3  -3  -2   56.93    4.99
  -3   3   2   49.73    4.91
  -3   3   2   56.56    5.22
   2  -3  -2   38.17    3.36
   2  -3  -2   34.50    3.84
   2  -3  -2   32.81    3.61
  -2   3   2   48.83    4.18
   1  -3  -2    0.25    2.03
   1  -3  -2    2.88    1.95
   1  -3  -2    3.36    1.59
   1  -3  -2    2.22    1.95
  -1   3   2    1.31    1.52
  -1   3   2    2.38    1.97
  -1   3   2    2.34    1.94
   0  -3  -2    2.30    2.08
   0  -3  -2    2.82    1.89
   0  -3  -2    4.03    2.08
   0   3   2    4.30    1.82
   0   3   2    2.76    2.17
   0   3   2    1.45    2.04
  -1  -3  -2    6.75    2.18
  -1  -3  -2    5.58    2.43
  -1  -3  -2    7.80    2.02
   1   3   2    7.96    2.35
   1   3   2    0.88    2.47
  -2  -3  -2   14.67    3.27
  -2  -3  -2   13.89    3.35
   2   3   2   14.95    2.86
   2   3   2   17.62    2.78
  -3  -3  -2    2.18    3.41
  -3  -3  -2    3.56    3.51
   3   3   2    3.99    3.65
   3   3   2    2.08    3.17
  -4  -3  -2    5.79    4.21
   4   3   2    7.77    4.53
  -5  -3  -2   15.63    5.24
   5   3   2   17.35    5.40
  -6  -3  -2    7.93    4.26
   6   3   2    5.76    5.56
   7  -4  -2   -0.13    4.73
  -7   4   2   -2.21    5.14
   6  -4  -2   -4.07    4.21
  -6   4   2    0.19    4.54
   5  -4  -2   37.20    5.51
  -5   4   2   31.36    5.45
   4  -4  -2   64.08    6.21
   4  -4  -2   53.78    5.15
  -4   4   2   57.28    5.77
  -4   4   2   43.39    5.68
   3  -4  -2   -4.16    1.73
   3  -4  -2    3.98    2.49
   3  -4  -2    0.65    2.83
  -3   4   2    1.31    2.51
  -3   4   2    1.89    2.79
   2  -4  -2  154.49    9.97
   2  -4  -2  154.53   10.62
   2  -4  -2  147.65   10.57
  -2   4   2  153.57    9.97
  -2   4   2  146.51   10.95
  -2   4   2  148.56   10.71
   1  -4  -2    0.34    2.07
   1  -4  -2    0.27    1.81
   1  -4  -2   -0.72    1.99
   1  -4  -2    0.76    1.62
  -1   4   2    0.65    1.99
  -1   4   2    3.61    2.22
  -1   4   2    0.06    1.62
   0  -4  -2    4.10    2.40
   0  -4  -2    7.79    2.05
   0  -4  -2    7.56    2.55
   0   4   2   12.34    2.28
   0   4   2    2.04    2.26
   0   4   2    7.12    2.42
  -1  -4  -2   25.14    2.98
  -1  -4  -2   16.45    2.75
  -1  -4  -2   18.35    2.88
   1   4   2   22.04    3.63
   1   4   2   22.72    2.90
   1   4   2   20.05    2.81
  -2  -4  -2   13.92    3.60
  -2  -4  -2   16.29    3.47
  -2  -4  -2   14.93    3.08
   2   4   2   17.30    3.09
   2   4   2   12.58    2.70
  -3  -4  -2   53.84    6.32
   3   4   2   55.80    6.04
  -4  -4  -2    0.66    3.16
   4   4   2   -0.10    3.47
  -5  -4  -2    5.48    4.76
   5   4   2   -3.90    4.75
  -6  -4  -2   12.87    5.93
   6   4   2   14.00    4.94
   7  -5  -2   -2.30    4.76
  -7   5   2    4.55    5.42
   6  -5  -2   10.27    4.53
  -6   5   2    6.57    3.80
   5  -5  -2    1.10    2.93
  -5   5   2    4.60    3.99
   4  -5  -2   18.65    3.36
   4  -5  -2   28.52    4.78
  -4   5   2   32.48    4.44
  -4   5   2   22.19    4.56
   3  -5  -2   -4.59    2.88
   3  -5  -2    0.79    2.00
  -3   5   2   -2.54    2.07
  -3   5   2   -2.03    3.10
   2  -5  -2    7.16    2.25
   2  -5  -2   11.35    2.39
   2  -5  -2    7.72    2.29
  -2   5   2   10.80    2.23
  -2   5   2   10.65    3.05
  -2   5   2   13.50    2.96
   1  -5  -2  103.71    7.49
   1  -5  -2   96.25    7.06
   1  -5  -2   96.79    7.18
   1  -5  -2   90.02    7.80
  -1   5   2  111.25    7.84
  -1   5   2  115.54    8.01
  -1   5   2   87.38    7.13
   0  -5  -2   14.94    3.26
   0  -5  -2   21.44    3.34
   0  -5  -2   12.05    2.51
   0   5   2   14.56    2.73
   0   5   2   17.47    2.48
   0   5   2   19.80    2.82
  -1  -5  -2   16.60    2.92
  -1  -5  -2   14.00    2.90
  -1  -5  -2   17.65    3.48
   1   5   2   20.58    3.68
   1   5   2   18.18    3.37
   1   5   2   17.21    3.38
  -2  -5  -2    3.64    2.71
  -2  -5  -2    3.78    3.37
  -2  -5  -2   -1.06    2.73
   2   5   2    3.12    2.30
   2   5   2    0.38    3.64
  -3  -5  -2    0.69    4.07
  -3  -5  -2    5.08    3.68
   3   5   2    0.27    4.18
  -4  -5  -2   13.71    3.98
   4   5   2    7.71    4.07
  -5  -5  -2   -4.86    3.49
   5   5   2   10.33    5.57
  -6  -5  -2    0.04    4.15
   6   5   2   -7.01    5.46
   7  -6  -2    4.24    4.99
  -7   6   2   12.19    5.97
   6  -6  -2    9.95    3.79
  -6   6   2    2.43    3.56
   5  -6  -2    0.48    4.00
  -5   6   2    4.58    4.11
   4  -6  -2   49.82    5.89
   4  -6  -2   40.99    4.63
  -4   6   2   36.65    5.04
  -4   6   2   39.96    5.88
   3  -6  -2    4.18    2.34
   3  -6  -2   -2.03    3.24
  -3   6   2    2.19    3.48
   2  -6  -2    3.76    2.35
   2  -6  -2    0.48    2.82
   2  -6  -2   -0.04    2.22
  -2   6   2    4.10    2.91
  -2   6   2    3.01    2.31
  -2   6   2   -0.05    2.81
   1  -6  -2   10.88    2.53
   1  -6  -2   10.32    2.55
   1  -6  -2    5.50    2.56
   1  -6  -2   10.42    3.23
  -1   6   2    8.06    2.40
  -1   6   2    7.97    2.66
  -1   6   2    7.97    2.68
   0  -6  -2    1.77    2.33
   0  -6  -2    2.28    2.95
   0  -6  -2    0.94    2.15
   0   6   2    7.18    2.77
   0   6   2    4.83    3.05
   0   6   2    3.23    2.78
  -1  -6  -2    0.83    2.45
  -1  -6  -2    3.32    2.54
  -1  -6  -2    3.70    3.30
   1   6   2    6.87    3.25
   1   6   2    7.92    2.50
   1   6   2    5.82    3.48
  -2  -6  -2    5.47    3.18
  -2  -6  -2    8.74    3.22
   2   6   2    6.31    4.24
   2   6   2    6.03    3.10
  -3  -6  -2   10.41    4.80
  -3  -6  -2   10.12    3.99
   3   6   2    8.42    3.63
   3   6   2   19.71    5.29
  -4  -6  -2   10.81    5.23
  -4  -6  -2   12.25    3.72
   4   6   2   18.92    5.75
  -5  -6  -2   -2.98    3.67
  -5  -6  -2   -1.13    5.30
   5   6   2    9.54    4.44
  -6  -6  -2   14.98    6.69
   6   6   2    1.89    6.30
   6  -7  -2   -3.62    4.12
  -6   7   2    2.13    3.69
   5  -7  -2    9.22    4.73
  -5   7   2    9.77    4.75
   4  -7  -2   32.50    5.32
  -4   7   2   28.67    4.48
   3  -7  -2    5.06    2.81
   3  -7  -2    7.18    3.01
  -3   7   2   10.99    4.15
  -3   7   2    5.84    2.87
  -3   7   2    7.13    3.49
   2  -7  -2    0.46    3.53
   2  -7  -2    1.49    2.71
   2  -7  -2    0.68    2.90
  -2   7   2   -1.32    2.55
  -2   7   2   -2.50    2.29
  -2   7   2   -1.21    3.46
   1  -7  -2   16.69    3.17
   1  -7  -2   17.71    3.38
   1  -7  -2   32.40    4.55
  -1   7   2   25.55    3.56
  -1   7   2   23.00    3.58
  -1   7   2   14.79    3.53
   0  -7  -2   -1.90    2.45
   0  -7  -2    1.05    2.32
   0   7   2   -1.10    3.01
   0   7   2   -0.95    3.38
   0   7   2   -2.12    3.01
  -1  -7  -2   12.52    3.18
  -1  -7  -2    0.48    4.00
   1   7   2    7.35    3.76
   1   7   2   11.82    4.14
   1   7   2    9.75    4.10
  -2  -7  -2   26.84    5.47
  -2  -7  -2   26.45    4.20
   2   7   2   28.85    5.35
   2   7   2   26.08    4.55
  -3  -7  -2   69.67    7.99
  -3  -7  -2   66.44    6.25
   3   7   2   50.82    7.23
   3   7   2   59.65    7.13
  -4  -7  -2    9.88    4.60
  -4  -7  -2    3.75    5.12
   4   7   2    9.15    4.32
   4   7   2    1.89    3.94
  -5  -7  -2   -7.05    3.61
  -5  -7  -2   -0.53    5.15
   5   7   2   -4.73    5.60
   5   7   2   -1.66    5.70
   6  -8  -2    8.26    4.90
  -6   8   2    4.92    5.21
   5  -8  -2    2.10    4.29
  -5   8   2   -0.45    4.22
   4  -8  -2    4.09    4.22
  -4   8   2    0.53    4.12
   3  -8  -2    2.37    3.92
  -3   8   2   -2.95    3.18
  -3   8   2    4.74    3.80
   2  -8  -2   -3.55    2.74
   2  -8  -2    2.82    3.99
   2  -8  -2    2.02    3.08
  -2   8   2    2.72    2.85
  -2   8   2    8.53    3.94
  -2   8   2    0.78    2.97
   1  -8  -2   -4.17    3.74
   1  -8  -2   -1.04    2.48
  -1   8   2    2.30    2.86
  -1   8   2    1.13    3.17
  -1   8   2   -2.40    3.21
   0  -8  -2   67.82    6.67
   0  -8  -2   63.56    5.58
   0   8   2   63.25    7.02
   0   8   2   58.69    6.34
  -1  -8  -2    8.79    3.04
  -1  -8  -2    7.68    4.72
   1   8   2    6.31    4.38
   1   8   2    2.77    4.11
  -2  -8  -2    5.19    3.76
  -2  -8  -2   15.78    4.00
   2   8   2    8.93    3.71
   2   8   2   21.82    5.45
  -3  -8  -2    1.71    3.59
  -3  -8  -2   -4.53    4.71
   3   8   2   -4.42    4.63
   3   8   2    2.19    4.99
  -4  -8  -2   -3.48    5.42
  -4  -8  -2   -3.74    4.00
   4   8   2    2.76    5.62
   4   8   2   -0.60    5.43
  -5  -8  -2    2.49    5.39
  -5  -8  -2    4.15    6.19
   5   8   2   -4.56    5.77
   5   8   2    5.78    6.44
   6  -9  -2    0.97    4.54
  -6   9   2    6.06    4.23
   5  -9  -2    4.60    4.74
  -5   9   2   15.43    5.27
   4  -9  -2   10.21    4.61
  -4   9   2    4.13    4.48
   3  -9  -2    0.67    4.17
  -3   9   2    0.15    3.22
  -3   9   2   12.73    4.30
   2  -9  -2    6.77    4.49
  -2   9   2    8.92    3.53
  -2   9   2    5.69    4.16
   1  -9  -2   -1.92    2.65
   1  -9  -2    1.62    3.23
  -1   9   2   -4.88    3.41
  -1   9   2    0.95    4.08
   0  -9  -2   41.55    4.88
   0  -9  -2   43.33    5.67
   0   9   2   43.55    5.67
   0   9   2   43.73    5.59
  -1  -9  -2    0.56    3.43
  -1  -9  -2    6.09    3.11
   1   9   2    6.15    3.47
   1   9   2    6.42    4.36
  -2  -9  -2    0.71    3.12
  -2  -9  -2    5.11    3.86
   2   9   2    2.22    3.50
   2   9   2    8.81    5.04
  -3  -9  -2    3.77    3.83
  -3  -9  -2    4.61    4.12
   3   9   2    0.85    5.05
   3   9   2   12.43    5.76
  -4  -9  -2   -3.89    4.00
  -4  -9  -2    3.73    4.31
   4   9   2   10.86    6.25
   4   9   2   -4.34    5.63
   5 -10  -2    4.95    5.03
  -5  10   2    2.56    5.12
   4 -10  -2    3.17    4.69
   3 -10  -2    0.63    4.27
  -3  10   2   11.23    3.84
  -3  10   2    2.24    3.09
   2 -10  -2    2.83    4.47
  -2  10   2   -0.65    4.12
  -2  10   2    2.68    3.72
   1 -10  -2   36.17    6.18
   1 -10  -2   35.70    4.31
  -1  10   2   33.09    5.14
  -1  10   2   31.07    5.13
   0 -10  -2    3.74    3.04
   0 -10  -2    4.15    4.57
   0  10   2   -3.43    3.84
   0  10   2    3.37    3.44
  -1 -10  -2    1.50    4.98
  -1 -10  -2    7.49    3.51
   1  10   2    7.58    4.85
   1  10   2    6.64    4.48
  -2 -10  -2    3.75    3.23
  -2 -10  -2    1.02    3.96
   2  10   2    4.46    3.77
   2  10   2   -1.98    4.78
  -3 -10  -2   21.09    5.37
  -3 -10  -2    1.57    4.01
   3  10   2    4.48    5.70
   3  10   2   11.70    6.07
  -4 -10  -2    2.12    4.41
  -4 -10  -2    1.26    4.75
   4  10   2    4.37    4.91
   4  10   2   14.94    6.90
   5 -11  -2    4.48    5.39
  -5  11   2   -4.74    5.38
   4 -11  -2    4.77    5.22
   3 -11  -2   -1.72    4.74
  -3  11   2    1.67    4.54
  -3  11   2    3.43    3.87
   2 -11  -2   -3.23    4.79
  -2  11   2    4.12    3.86
  -2  11   2    1.19    4.36
   1 -11  -2    2.59    3.09
   1 -11  -2    5.53    3.83
  -1  11   2   -0.58    4.48
  -1  11   2    0.41    3.87
   0 -11  -2   -0.61    2.98
   0 -11  -2   10.00    5.31
   0  11   2   11.00    4.45
   0  11   2    8.53    4.05
  -1 -11  -2    0.68    2.87
  -1 -11  -2    2.54    3.91
   1  11   2    1.15    4.49
   1  11   2    5.32    5.24
  -2 -11  -2    5.10    5.68
  -2 -11  -2   10.33    4.05
   2  11   2    0.80    3.92
   2  11   2    7.60    5.48
  -3 -11  -2    5.69    4.86
  -3 -11  -2   14.69    4.54
   3  11   2    6.18    6.14
   3  11   2    4.92    6.38
   4 -12  -2   -9.28    4.96
   3 -12  -2    7.89    5.50
  -3  12   2   -2.65    3.82
  -3  12   2   -0.47    4.88
   2 -12  -2   19.20    5.94
  -2  12   2    6.80    4.13
  -2  12   2    4.19    3.93
   1 -12  -2    6.21    3.42
   1 -12  -2    6.87    5.53
  -1  12   2    3.29    4.94
  -1  12   2   13.36    4.73
   0 -12  -2   -2.10    3.09
   0 -12  -2    4.20    5.63
   0  12   2   11.03    4.55
   0  12   2    2.02    5.23
  -1 -12  -2    3.28    3.45
  -1 -12  -2   10.30    6.06
   1  12   2    6.14    5.76
   1  12   2    4.48    5.22
  -2 -12  -2    5.66    3.82
  -2 -12  -2   13.02    6.76
   2  12   2   -0.13    5.69
   2  12   2   -1.23    5.77
   2 -13  -2    7.26    5.72
  -2  13   2   12.42    4.91
  -2  13   2   11.54    5.81
   1 -13  -2   18.93    6.34
  -1  13   2    9.11    5.60
  -1  13   2   13.01    5.07
   0 -13  -2   17.31    6.51
   0  13   2   17.18    5.64
   0  13   2    8.19    5.83
   1  13  -3    2.97    5.81
   1  13  -3    3.61    4.38
  -1 -13   3   -8.99    4.23
   0  13  -3   -2.69    5.54
   0  13  -3    1.85    5.21
   0 -13   3   12.28    6.35
  -1  13  -3    1.96    4.91
  -1  13  -3    0.63    5.23
   1 -13   3   -4.82    5.72
  -2  13  -3   -0.25    5.49
  -2  13  -3   17.59    5.77
   2 -13   3    4.69    6.35
  -3  13  -3   -5.55    4.69
  -3  13  -3   -7.11    5.07
   3 -13   3    9.33    4.98
   2  12  -3    3.29    4.36
   2  12  -3    3.68    4.51
  -2 -12   3   18.73    6.99
   1  12  -3    7.45    4.45
   1  12  -3    7.75    5.35
  -1 -12   3    8.43    6.14
   0  12  -3    0.60    5.21
   0  12  -3    0.92    4.95
   0 -12   3    3.04    5.77
  -1  12  -3   -0.92    4.83
  -1  12  -3    6.60    4.92
   1 -12   3    3.35    5.53
  -2  12  -3   -2.16    4.39
  -2  12  -3    5.35    3.94
   2 -12   3    3.98    5.69
  -3  12  -3   14.13    5.09
  -3  12  -3    1.70    5.14
   3 -12   3    2.27    4.08
  -4  12  -3    4.09    4.60
   4 -12   3   -6.12    5.60
   3  11  -3    4.63    5.95
   3  11  -3   -0.52    4.22
  -3 -11   3    5.55    4.80
   2  11  -3    6.68    5.49
   2  11  -3    3.89    5.38
  -2 -11   3   -5.86    3.92
   1  11  -3    6.01    4.93
   1  11  -3   -3.03    3.64
  -1 -11   3    6.15    5.49
   0  11  -3    4.58    3.75
   0  11  -3   -0.21    4.50
   0 -11   3   14.00    5.63
  -1  11  -3    0.71    3.22
  -1  11  -3    3.66    4.87
   1 -11   3   -0.26    5.03
  -2  11  -3    1.63    4.33
  -2  11  -3   -0.67    3.52
   2 -11   3    5.92    5.33
  -3  11  -3    4.38    4.64
  -3  11  -3    0.18    3.64
   3 -11   3    8.01    4.09
  -4  11  -3   -4.32    5.34
   4 -11   3    0.11    4.06
  -5  11  -3    9.15    4.83
   5 -11   3    8.46    6.05
   4  10  -3    3.55    4.80
   4  10  -3    6.97    4.84
  -4 -10   3    4.08    3.88
  -4 -10   3   10.16    5.20
   3  10  -3    4.73    4.30
   3  10  -3    3.52    5.56
  -3 -10   3    5.06    5.70
  -3 -10   3    4.87    3.26
   2  10  -3    7.94    4.03
   2  10  -3    8.95    4.12
  -2 -10   3    7.91    3.12
  -2 -10   3   12.70    5.77
   1  10  -3   -1.88    4.37
   1  10  -3    0.99    4.78
  -1 -10   3   -1.04    3.65
   0  10  -3    5.85    3.68
   0  10  -3    4.65    4.41
   0 -10   3   21.59    5.49
  -1  10  -3   -4.90    3.86
  -1  10  -3   -6.38    2.93
   1 -10   3    1.67    3.63
  -2  10  -3   37.74    5.20
  -2  10  -3   15.56    5.02
   2 -10   3   24.39    5.80
  -3  10  -3   10.53    4.83
  -3  10  -3   13.42    4.53
   3 -10   3    2.67    4.97
  -4  10  -3   10.43    4.39
   4 -10   3   11.48    5.45
  -5  10  -3   -1.26    5.25
   5 -10   3   -4.55    5.35
   4   9  -3    2.99    5.86
   4   9  -3   -3.16    4.04
  -4  -9   3    4.95    4.46
  -4  -9   3   -2.73    3.27
   3   9  -3    0.12    3.81
   3   9  -3    3.94    5.28
  -3  -9   3   -0.88    2.54
  -3  -9   3    4.51    5.47
   2   9  -3    9.14    5.01
   2   9  -3    7.82    4.94
  -2  -9   3   14.01    2.98
  -2  -9   3   17.01    5.62
   1   9  -3   26.24    5.39
   1   9  -3   29.09    5.80
  -1  -9   3   26.07    2.96
  -1  -9   3   21.18    5.75
   0   9  -3    5.11    3.45
   0   9  -3   12.39    4.82
   0  -9   3    5.22    1.68
   0  -9   3    3.68    3.51
  -1   9  -3   33.43    4.93
  -1   9  -3   25.44    5.15
   1  -9   3   24.95    5.64
  -2   9  -3   30.61    5.69
  -2   9  -3   29.63    5.21
   2  -9   3   34.57    5.96
  -3   9  -3    1.70    2.90
  -3   9  -3    4.29    3.18
   3  -9   3    2.46    4.52
  -4   9  -3    9.24    3.96
   4  -9   3    0.41    4.74
  -5   9  -3    1.81    3.74
   5  -9   3    2.16    5.30
  -6   9  -3    3.03    4.34
   6  -9   3    7.85    6.00
   5   8  -3    0.11    5.93
   5   8  -3   -6.76    5.54
  -5  -8   3   -4.62    5.73
   4   8  -3   23.35    6.23
   4   8  -3   24.13    5.37
  -4  -8   3   22.68    5.31
  -4  -8   3    6.46    4.20
   3   8  -3    7.47    5.07
   3   8  -3    1.24    4.79
  -3  -8   3   -6.16    2.43
  -3  -8   3   -4.17    4.62
   2   8  -3   -5.75    4.13
   2   8  -3    5.10    4.61
  -2  -8   3   -0.78    4.54
  -2  -8   3    2.45    2.47
   1   8  -3   35.81    5.60
   1   8  -3   32.31    4.92
  -1  -8   3   39.62    6.05
  -1  -8   3   34.14    3.39
   0   8  -3    7.02    4.08
   0   8  -3    1.34    4.13
   0  -8   3    3.97    3.05
   0  -8   3    0.91    1.41
  -1   8  -3   -0.72    3.61
  -1   8  -3    3.65    3.01
   1  -8   3    3.55    4.10
  -2   8  -3    1.45    3.71
  -2   8  -3    7.01    3.20
   2  -8   3    8.45    3.41
  -3   8  -3    5.78    3.08
   3  -8   3    1.16    4.29
  -4   8  -3   -0.18    4.21
   4  -8   3    2.10    3.45
  -5   8  -3   -6.76    4.35
   5  -8   3    4.92    5.14
  -6   8  -3   -4.96    5.23
   6  -8   3   -0.65    3.89
   5   7  -3   18.15    6.30
   5   7  -3    4.78    4.46
  -5  -7   3   18.59    6.11
   4   7  -3    4.30    3.90
   4   7  -3   -2.65    3.53
  -4  -7   3    1.31    5.16
   3   7  -3   57.48    7.19
   3   7  -3   68.29    7.09
  -3  -7   3   53.42    6.74
   2   7  -3   34.40    5.58
   2   7  -3   33.71    5.68
  -2  -7   3   43.76    6.04
  -2  -7   3   38.41    3.92
   1   7  -3   21.85    3.70
   1   7  -3   19.77    4.49
  -1  -7   3   19.91    2.54
  -1  -7   3   21.29    3.91
  -1  -7   3   21.51    3.86
   0   7  -3    5.32    2.68
   0   7  -3    6.33    3.05
   0  -7   3    5.80    1.28
   0  -7   3    1.01    3.51
   0  -7   3    0.91    3.64
  -1   7  -3   17.40    3.15
  -1   7  -3   20.71    4.18
  -1   7  -3   12.99    3.17
   1  -7   3   10.07    3.13
   1  -7   3   10.33    3.65
  -2   7  -3   26.02    4.56
  -2   7  -3   20.37    4.24
   2  -7   3   24.22    3.92
   3  -7   3   -4.08    3.77
  -4   7  -3    6.01    3.30
   4  -7   3    1.24    4.48
  -5   7  -3    4.47    3.63
   5  -7   3    7.24    5.12
  -6   7  -3    0.36    3.79
   6  -7   3   10.21    5.71
   6   6  -3   -0.28    4.42
   6   6  -3   -5.38    5.62
  -6  -6   3   -8.11    5.19
   5   6  -3   47.18    7.39
   5   6  -3   31.66    6.53
  -5  -6   3   37.25    7.00
   4   6  -3    3.07    4.91
   4   6  -3    4.40    3.54
  -4  -6   3   -1.76    3.28
   3   6  -3    9.28    3.60
   3   6  -3    8.65    4.58
  -3  -6   3    9.10    4.72
   2   6  -3   14.52    4.32
   2   6  -3   16.06    3.53
  -2  -6   3   13.22    3.32
  -2  -6   3   18.49    4.28
   1   6  -3   14.80    2.86
   1   6  -3   20.35    3.92
   1   6  -3   12.41    2.93
  -1  -6   3   15.25    3.14
  -1  -6   3    8.85    3.53
  -1  -6   3   15.49    2.09
  -1  -6   3   15.93    3.89
   0   6  -3    4.26    3.14
   0   6  -3    5.26    3.14
   0   6  -3    0.68    1.95
   0  -6   3    4.09    1.02
   0  -6   3    5.71    2.56
   0  -6   3    1.87    2.21
   0  -6   3    6.71    2.43
  -1   6  -3   12.83    2.87
  -1   6  -3   23.52    3.63
  -1   6  -3   13.46    3.47
   1  -6   3   15.77    3.27
   1  -6   3   19.51    3.71
   1  -6   3   18.44    3.02
  -2   6  -3   24.99    3.56
  -2   6  -3   26.91    3.87
  -2   6  -3   25.47    3.41
   2  -6   3   19.05    4.01
   2  -6   3   26.44    3.93
   2  -6   3   20.62    3.56
  -3   6  -3    1.00    3.67
   3  -6   3    4.50    3.85
  -4   6  -3   10.73    3.48
   4  -6   3    9.63    4.78
  -5   6  -3    9.55    4.59
   5  -6   3    5.64    4.96
  -6   6  -3   -3.03    4.78
   6  -6   3    5.23    5.41
   6   5  -3   12.61    6.03
   6   5  -3   -4.97    5.10
  -6  -5   3    3.66    4.19
   5   5  -3   15.88    5.43
   5   5  -3   19.39    5.59
  -5  -5   3    7.11    3.96
   4   5  -3   -2.76    3.11
   4   5  -3    0.22    3.37
  -4  -5   3    2.18    4.34
   3   5  -3    9.63    3.29
   3   5  -3   15.42    3.65
  -3  -5   3   14.53    3.36
  -3  -5   3    6.76    4.03
   2   5  -3   -0.69    1.89
   2   5  -3    0.25    2.44
   2   5  -3   -0.64    3.12
  -2  -5   3   -2.43    2.20
  -2  -5   3   -4.23    3.11
   1   5  -3   55.71    5.61
   1   5  -3   66.17    5.34
   1   5  -3   64.71    6.05
  -1  -5   3   70.41    6.10
  -1  -5   3   62.18    4.42
  -1  -5   3   57.89    5.42
  -1  -5   3   58.99    5.29
   0   5  -3   67.97    5.46
   0   5  -3   56.94    5.31
   0   5  -3   52.50    5.46
   0  -5   3   44.21    5.26
   0  -5   3   56.17    4.88
   0  -5   3   55.81    3.67
   0  -5   3   72.01    5.75
  -1   5  -3  203.38   13.67
  -1   5  -3  226.91   14.55
   1  -5   3  199.15   13.62
   1  -5   3  187.02   14.46
   1  -5   3  219.49   14.37
  -2   5  -3    0.71    1.91
  -2   5  -3   -1.20    2.95
  -2   5  -3    0.05    2.55
   2  -5   3    3.57    2.79
   2  -5   3    1.79    2.85
   2  -5   3    1.39    2.63
  -3   5  -3   12.12    2.93
  -3   5  -3   12.38    4.04
   3  -5   3   12.07    3.48
   3  -5   3   14.73    3.20
   3  -5   3    8.99    3.49
  -4   5  -3    3.25    3.91
   4  -5   3    3.91    3.38
  -5   5  -3    2.99    3.29
   5  -5   3   -2.30    4.61
  -6   5  -3    9.57    5.25
   6  -5   3    3.01    5.45
  -7   5  -3    3.65    5.69
   7  -5   3   -4.00    4.19
   6   4  -3    8.76    5.40
  -6  -4   3   -4.38    4.92
   5   4  -3   -7.07    4.23
  -5  -4   3   -0.76    4.41
   4   4  -3   21.18    2.17
   4   4  -3   14.31    4.11
  -4  -4   3   17.73    3.90
   3   4  -3   22.95    4.61
   3   4  -3   27.97    4.17
  -3  -4   3   26.71    3.91
  -3  -4   3   31.02    3.96
   2   4  -3   12.75    2.78
   2   4  -3   10.23    3.14
   2   4  -3    5.93    2.46
  -2  -4   3    9.35    3.06
  -2  -4   3   11.85    3.04
   1   4  -3    0.84    2.53
   1   4  -3   -2.39    2.49
   1   4  -3    2.45    1.64
  -1  -4   3    2.40    1.85
  -1  -4   3    3.17    2.50
  -1  -4   3    2.24    2.30
   0   4  -3  258.38   17.59
   0   4  -3  253.37   16.69
   0   4  -3  252.15   17.48
   0  -4   3  256.74   16.69
   0  -4   3  257.90   17.42
   0  -4   3  278.80   17.59
  -1   4  -3  152.50   10.62
  -1   4  -3  150.83   10.22
  -1   4  -3  155.85   10.51
   1  -4   3  144.63    9.98
   1  -4   3  155.39   10.47
   1  -4   3  133.94   10.61
  -2   4  -3  201.38   14.03
  -2   4  -3  197.82   13.58
   2  -4   3  200.56   13.69
   2  -4   3  190.53   13.61
   2  -4   3  194.06   13.02
  -3   4  -3   14.11    2.89
  -3   4  -3   17.49    3.91
   3  -4   3   16.86    3.54
   3  -4   3    8.85    3.03
   3  -4   3   19.20    2.95
  -4   4  -3   21.92    4.50
   4  -4   3   21.07    4.98
  -5   4  -3    9.30    4.63
   5  -4   3   -0.38    3.33
  -6   4  -3    0.48    3.58
   6  -4   3    0.27    5.27
  -7   4  -3   -7.86    5.23
   7  -4   3   -8.50    5.61
   6   3  -3   15.00    5.65
  -6  -3   3    8.57    5.23
   5   3  -3    4.19    4.75
  -5  -3   3   -0.20    4.23
   4   3  -3   26.62    5.00
  -4  -3   3   26.58    4.87
  -4  -3   3   22.55    4.82
   3   3  -3   50.66    4.91
   3   3  -3   36.35    5.12
  -3  -3   3   51.48    5.15
  -3  -3   3   36.65    4.97
   2   3  -3   29.18    3.70
   2   3  -3   22.83    3.67
   2   3  -3   31.72    3.45
  -2  -3   3   26.54    3.54
  -2  -3   3   24.85    3.57
   1   3  -3   53.97    4.28
   1   3  -3   49.67    4.36
   1   3  -3   60.77    4.89
  -1  -3   3   43.86    4.63
  -1  -3   3   56.59    4.88
  -1  -3   3   51.06    4.83
   0   3  -3  199.76   13.85
   0   3  -3  206.46   13.39
   0   3  -3  206.33   13.93
   0  -3   3  206.57   13.89
   0  -3   3  205.87   13.22
  -1   3  -3  824.88   50.68
  -1   3  -3  750.17   48.31
   1  -3   3  761.39   50.59
   1  -3   3  794.69   50.63
   1  -3   3  768.67   48.34
  -2   3  -3  113.08    8.26
  -2   3  -3   97.74    8.27
   2  -3   3  122.08    8.41
   2  -3   3  114.61    8.10
   2  -3   3  109.05    8.21
  -3   3  -3   56.27    5.49
  -3   3  -3   56.01    5.17
   3  -3   3   60.42    5.46
   3  -3   3   51.98    5.45
  -4   3  -3    8.54    3.87
   4  -3   3   11.85    4.34
  -5   3  -3    1.32    3.12
  -5   3  -3    1.62    2.07
   5  -3   3   -0.53    4.63
  -6   3  -3    4.84    4.88
   6  -3   3   -2.05    3.79
  -7   3  -3  -13.95    4.81
   7  -3   3    3.04    4.74
   7   2  -3    2.48    5.12
  -7  -2   3    3.75    5.53
   6   2  -3   -0.01    3.43
  -6  -2   3   -3.15    3.26
   5   2  -3   18.56    5.20
  -5  -2   3   25.55    5.00
   4   2  -3   27.82    4.88
  -4  -2   3   22.84    4.51
  -4  -2   3   22.60    3.89
   3   2  -3   65.53    5.93
   3   2  -3   71.11    6.44
   3   2  -3   67.35    4.90
  -3  -2   3   64.20    6.12
  -3  -2   3   70.17    5.85
   2   2  -3   75.98    6.12
   2   2  -3   79.37    5.91
  -2  -2   3   74.68    5.71
  -2  -2   3   67.89    6.03
   1   2  -3  238.89   15.34
   1   2  -3  251.02   15.88
   1   2  -3  221.11   15.91
  -1  -2   3  243.32   15.94
  -1  -2   3  251.93   15.34
  -1  -2   3  230.60   15.91
   0   2  -3   86.12    6.45
   0   2  -3   91.06    6.37
   0   2  -3  106.57    6.48
   0  -2   3   92.17    6.16
   0  -2   3   70.78    6.40
   0  -2   3   99.18    6.34
  -1   2  -3   43.58    3.65
  -1   2  -3   32.09    3.44
  -1   2  -3   31.81    3.09
   1  -2   3   33.29    3.33
   1  -2   3   36.21    3.29
   1  -2   3   34.01    3.14
  -2   2  -3   59.94    5.15
  -2   2  -3   67.31    5.34
   2  -2   3   74.60    5.49
   2  -2   3   59.79    5.54
  -3   2  -3    2.51    2.94
  -3   2  -3   11.08    2.98
   3  -2   3    4.97    2.41
   3  -2   3    3.95    2.08
  -4   2  -3    2.55    2.65
  -4   2  -3    5.41    2.06
   4  -2   3    4.09    3.24
  -5   2  -3    2.38    3.25
  -5   2  -3    2.43    2.00
   5  -2   3    6.42    4.99
  -6   2  -3    9.62    4.05
   6  -2   3    6.02    5.57
  -7   2  -3    6.04    5.76
   7  -2   3   -3.21    4.36
   7   1  -3    3.09    5.12
  -7  -1   3    2.50    5.44
   6   1  -3   -5.67    4.37
  -6  -1   3    1.18    4.32
   5   1  -3   -5.39    3.86
  -5  -1   3    3.77    3.04
   4   1  -3    2.92    3.64
  -4  -1   3    5.03    2.73
  -4  -1   3    4.22    2.59
   3   1  -3   25.03    3.12
   3   1  -3   12.99    3.27
  -3  -1   3   21.20    3.13
  -3  -1   3   14.98    3.22
   2   1  -3   19.53    2.39
   2   1  -3   16.35    2.71
   2   1  -3   19.02    1.91
  -2  -1   3   15.22    2.15
  -2  -1   3   16.11    2.65
   1   1  -3 1000.00   63.26
   1   1  -3  974.81   66.47
   1   1  -3  989.23   63.28
   1   1  -3  958.75   60.47
  -1  -1   3  986.75   63.30
   0   1  -3   -0.49    0.77
   0   1  -3    1.12    0.88
   0   1  -3   -0.18    1.38
   0   1  -3   -0.62    0.82
   0  -1   3   -0.09    0.81
   0  -1   3   -0.63    0.80
   0  -1   3    1.02    1.05
  -1   1  -3   -2.79    1.69
  -1   1  -3    0.87    1.59
  -1   1  -3    0.54    1.74
   1  -1   3   -1.82    1.87
   1  -1   3    1.04    1.17
  -2   1  -3   34.92    3.04
  -2   1  -3   24.81    3.32
  -2   1  -3   23.24    3.58
   2  -1   3   29.08    3.34
   2  -1   3   21.61    3.37
  -3   1  -3   71.10    5.76
  -3   1  -3   83.03    6.96
  -3   1  -3   68.72    6.04
   3  -1   3   68.07    6.70
   3  -1   3   82.24    6.15
  -4   1  -3    4.68    2.83
  -4   1  -3    7.90    1.87
   4  -1   3    3.24    3.03
  -5   1  -3    0.28    3.07
   5  -1   3    5.42    4.93
  -6   1  -3   13.20    5.26
   6  -1   3    9.12    4.58
  -7   1  -3   -1.95    5.49
   7  -1   3   -0.10    6.00
   7   0  -3   12.55    5.28
  -7   0   3    8.83    5.42
   6   0  -3   -2.79    4.20
  -6   0   3    7.85    4.60
   5   0  -3    7.85    4.13
  -5   0   3   10.54    4.16
  -5   0   3    3.04    3.89
   4   0  -3    7.94    3.61
  -4   0   3   13.02    3.57
  -4   0   3   10.93    2.96
   3   0  -3  101.05    7.16
   3   0  -3   91.82    7.29
  -3   0   3   96.16    7.23
  -3   0   3   97.91    7.63
   2   0  -3    6.51    1.76
   2   0  -3    2.71    1.99
   2   0  -3    7.30    1.51
  -2   0   3    4.66    1.97
  -2   0   3    6.27    1.95
   1   0  -3   42.86    3.29
   1   0  -3   42.46    3.09
   1   0  -3   42.88    3.21
   1   0  -3   44.19    3.63
  -1   0   3   46.74    3.27
  -1   0   3   43.88    3.31
   0   0  -3  105.39    6.46
   0   0  -3   97.55    6.53
   0   0  -3  100.36    7.20
   0   0   3   99.53    6.53
   0   0   3   99.14    6.54
  -1   0  -3   -1.71    1.06
  -1   0  -3   -1.83    1.50
  -1   0  -3   -0.63    1.72
   1   0   3    1.73    1.66
   1   0   3   -0.04    1.14
  -2   0  -3   29.84    3.60
  -2   0  -3   23.79    3.26
  -2   0  -3   28.17    2.81
   2   0   3   23.21    3.52
   2   0   3   27.59    3.29
  -3   0  -3    8.57    3.25
  -3   0  -3    6.81    2.28
  -3   0  -3    8.60    1.82
   3   0   3   13.79    3.11
   3   0   3    3.68    3.16
  -4   0  -3    2.36    3.59
  -4   0  -3    8.54    1.84
   4   0   3    3.26    4.14
  -5   0  -3   10.46    4.59
   5   0   3    5.50    4.97
  -6   0  -3    3.34    3.65
   6   0   3   -2.41    5.27
  -7   0  -3    5.73    4.41
   7   0   3    7.33    6.71
   7  -1  -3    4.47    3.71
  -7   1   3   10.16    5.48
   6  -1  -3   -1.82    4.13
  -6   1   3   -2.43    4.24
   5  -1  -3    5.37    3.98
  -5   1   3    2.11    2.81
  -5   1   3    7.33    4.16
   4  -1  -3   26.22    3.83
  -4   1   3   27.65    4.28
  -4   1   3   29.64    4.47
   3  -1  -3   21.35    3.14
   3  -1  -3   14.45    2.59
  -3   1   3   14.05    2.91
  -3   1   3   18.27    2.81
   2  -1  -3    2.16    1.56
   2  -1  -3    4.63    1.84
  -2   1   3    1.77    1.76
  -2   1   3    1.02    1.82
   1  -1  -3   65.56    4.80
   1  -1  -3   66.77    4.83
   1  -1  -3   73.13    5.44
  -1   1   3   71.37    4.91
   0  -1  -3  134.22    8.65
   0  -1  -3  129.87    9.28
   0  -1  -3  133.73    8.48
   0   1   3  135.43    8.66
   0   1   3  119.94    8.62
  -1  -1  -3  126.67    8.15
  -1  -1  -3  122.89    8.99
  -1  -1  -3  119.46    8.73
  -1  -1  -3  115.13    8.46
   1   1   3  126.27    8.75
   1   1   3  133.44    8.69
  -2  -1  -3   26.74    2.66
  -2  -1  -3   23.22    3.31
  -2  -1  -3   17.92    3.00
   2   1   3   17.94    3.06
   2   1   3   21.67    3.43
  -3  -1  -3   16.67    2.24
  -3  -1  -3   12.05    3.50
  -3  -1  -3   14.46    2.85
   3   1   3   14.06    2.81
   3   1   3   12.09    3.63
  -4  -1  -3   61.45    6.62
   4   1   3   65.32    7.11
  -5  -1  -3   -1.91    4.15
   5   1   3    1.74    4.75
  -6  -1  -3    7.58    5.01
   6   1   3    3.15    4.24
  -7  -1  -3    5.68    5.81
   7   1   3   -4.46    5.74
   7  -2  -3   -3.55    4.59
  -7   2   3    8.91    5.42
   6  -2  -3   11.63    3.67
  -6   2   3    8.95    4.63
   5  -2  -3   59.59    6.63
  -5   2   3   44.79    6.32
  -5   2   3   73.24    7.10
   4  -2  -3   13.01    3.50
  -4   2   3   12.78    2.84
  -4   2   3   13.38    3.68
   3  -2  -3   19.15    3.31
  -3   2   3   25.98    3.11
  -3   2   3   32.41    3.46
   2  -2  -3    5.69    2.01
   2  -2  -3    3.86    1.66
  -2   2   3    7.56    2.12
  -2   2   3    4.86    1.89
   1  -2  -3   27.47    2.68
   1  -2  -3   34.88    2.95
   1  -2  -3   27.94    2.31
   1  -2  -3   24.57    2.65
  -1   2   3   31.67    2.93
  -1   2   3   30.82    2.27
  -1   2   3   30.24    2.75
   0  -2  -3  147.53   10.46
   0  -2  -3  145.71   10.48
   0  -2  -3  159.10   10.03
   0   2   3  164.98   10.52
   0   2   3  162.01   10.50
  -1  -2  -3   10.73    2.35
  -1  -2  -3    4.47    1.69
  -1  -2  -3    9.76    2.39
  -1  -2  -3    3.73    1.74
   1   2   3    4.02    2.13
   1   2   3    5.14    2.45
  -2  -2  -3   32.38    4.11
  -2  -2  -3   36.76    4.07
   2   2   3   34.10    4.10
   2   2   3   32.96    3.91
  -3  -2  -3   -3.53    2.85
  -3  -2  -3    0.79    3.17
   3   2   3   -1.16    2.08
   3   2   3   -1.74    2.30
  -4  -2  -3   45.37    5.33
   4   2   3   48.64    5.70
  -5  -2  -3    2.33    4.44
   5   2   3   11.94    5.09
  -6  -2  -3   10.90    5.53
   6   2   3   23.61    6.26
   7  -3  -3    5.66    4.76
  -7   3   3    5.15    5.11
   6  -3  -3   49.66    6.77
  -6   3   3   50.96    6.39
   5  -3  -3    1.64    2.78
  -5   3   3    1.54    3.82
  -5   3   3    0.99    3.79
   4  -3  -3    3.44    3.10
  -4   3   3    4.84    2.65
  -4   3   3    4.42    3.32
   3  -3  -3   11.21    2.11
   3  -3  -3   10.38    2.07
   3  -3  -3    9.82    2.83
  -3   3   3    7.51    2.74
  -3   3   3   10.84    2.35
   2  -3  -3    2.63    1.78
   2  -3  -3   -0.80    1.28
   2  -3  -3    1.42    1.96
  -2   3   3   -0.12    1.94
   1  -3  -3   -2.37    1.69
   1  -3  -3   -0.77    1.33
   1  -3  -3   -0.71    2.15
   1  -3  -3    1.35    1.78
  -1   3   3   -1.39    1.75
  -1   3   3   -1.06    1.30
  -1   3   3    1.54    1.87
   0  -3  -3    2.87    1.67
   0  -3  -3   -1.45    1.95
   0  -3  -3    3.29    2.02
   0   3   3    6.66    2.11
   0   3   3    7.01    1.85
   0   3   3    2.47    2.03
  -1  -3  -3   20.08    3.10
  -1  -3  -3   26.20    3.08
  -1  -3  -3   20.71    3.10
   1   3   3   24.31    3.04
   1   3   3   17.93    3.13
  -2  -3  -3    8.35    2.76
  -2  -3  -3   -1.51    2.64
  -2  -3  -3    1.94    2.68
   2   3   3    1.95    2.91
   2   3   3   -1.76    2.50
  -3  -3  -3   40.93    5.05
   3   3   3   33.12    4.46
   3   3   3   42.77    4.85
  -4  -3  -3   14.75    4.61
   4   3   3   12.39    4.90
  -5  -3  -3    1.77    4.59
   5   3   3   -0.93    4.78
  -6  -3  -3    7.84    4.36
   6   3   3   10.11    5.79
   7  -4  -3   12.29    5.19
  -7   4   3   14.22    5.76
   6  -4  -3   -3.27    3.93
  -6   4   3    1.90    4.51
   5  -4  -3   34.92    4.82
  -5   4   3   31.51    5.37
   4  -4  -3   22.52    4.34
   4  -4  -3   29.53    3.52
  -4   4   3   26.48    4.46
  -4   4   3   21.25    4.19
   3  -4  -3    2.52    2.10
   3  -4  -3    1.58    1.82
   3  -4  -3    0.36    1.74
  -3   4   3    4.08    2.23
  -3   4   3    1.99    2.47
   2  -4  -3   43.63    4.17
   2  -4  -3   54.17    4.35
   2  -4  -3   53.54    4.04
   2  -4  -3   52.84    4.66
  -2   4   3   47.52    3.99
  -2   4   3   46.90    4.59
  -2   4   3   43.57    4.71
   1  -4  -3   48.02    4.61
   1  -4  -3   50.26    4.46
   1  -4  -3   51.77    4.19
   1  -4  -3   47.53    4.64
  -1   4   3   52.55    4.64
  -1   4   3   58.05    4.80
  -1   4   3   47.91    4.15
   0  -4  -3   32.34    3.61
   0  -4  -3   38.80    3.92
   0  -4  -3   39.35    3.91
   0   4   3   32.79    3.73
   0   4   3   36.68    3.51
   0   4   3   38.59    3.92
  -1  -4  -3  171.96   10.99
  -1  -4  -3  127.36   11.75
  -1  -4  -3  188.30   11.94
   1   4   3  166.54   11.62
   1   4   3  178.22   12.00
  -2  -4  -3    2.73    2.19
  -2  -4  -3   -0.44    3.02
  -2  -4  -3    0.03    2.12
   2   4   3   -2.27    3.15
   2   4   3    3.15    2.15
  -3  -4  -3   13.55    4.20
   3   4   3   10.34    4.33
  -4  -4  -3    8.73    3.53
   4   4   3    2.94    4.73
  -5  -4  -3   -1.10    4.64
   5   4   3   -3.76    4.81
  -6  -4  -3    7.65    5.68
   6   4   3   10.78    6.08
   7  -5  -3   -4.67    4.54
  -7   5   3    6.77    5.49
   6  -5  -3   29.60    5.45
  -6   5   3   24.58    4.83
   5  -5  -3   21.87    4.66
  -5   5   3   11.32    4.30
   4  -5  -3    6.93    3.66
   4  -5  -3   14.83    2.87
  -4   5   3    8.81    3.95
  -4   5   3   10.96    3.77
   3  -5  -3   -0.61    2.95
   3  -5  -3    3.65    2.14
  -3   5   3    6.51    3.04
  -3   5   3    3.26    3.21
   2  -5  -3    5.28    2.65
   2  -5  -3    9.45    2.22
   2  -5  -3    7.57    2.64
   2  -5  -3    5.84    2.62
  -2   5   3    4.84    1.97
  -2   5   3    5.77    2.08
  -2   5   3    9.93    2.32
   1  -5  -3   91.16    7.24
   1  -5  -3   96.43    7.20
   1  -5  -3   92.01    6.53
   1  -5  -3   89.69    6.42
  -1   5   3   81.02    7.24
  -1   5   3   88.60    6.68
  -1   5   3   86.11    6.81
   0  -5  -3   29.96    3.77
   0  -5  -3   24.85    3.30
   0  -5  -3   28.64    3.80
   0   5   3   27.41    3.29
   0   5   3   23.16    3.56
   0   5   3   21.99    3.27
  -1  -5  -3   19.55    3.30
  -1  -5  -3   17.90    3.02
  -1  -5  -3   12.50    3.47
   1   5   3   17.38    2.83
   1   5   3   19.15    3.09
   1   5   3   21.26    3.45
  -2  -5  -3    1.24    2.62
  -2  -5  -3   -0.30    2.19
   2   5   3    3.72    2.42
   2   5   3    3.50    2.86
  -3  -5  -3    2.05    4.14
  -3  -5  -3    2.80    2.83
   3   5   3   -1.08    3.01
  -4  -5  -3    8.55    3.58
  -4  -5  -3    8.77    3.73
   4   5   3    4.90    4.92
  -5  -5  -3   -0.09    3.56
   5   5   3   -6.59    3.56
  -6  -5  -3   -4.16    4.04
   6   5   3   -2.60    5.74
  -7   6   3   -1.83    5.15
   6  -6  -3    7.46    4.46
  -6   6   3    3.80    3.53
   5  -6  -3    3.65    3.84
  -5   6   3    2.45    3.98
   4  -6  -3    3.34    3.88
   4  -6  -3    7.19    2.79
  -4   6   3    8.30    3.91
  -4   6   3    4.80    3.55
   3  -6  -3    7.08    2.32
   3  -6  -3    0.25    2.40
  -3   6   3    3.64    3.45
   2  -6  -3   32.76    3.45
   2  -6  -3   24.98    3.80
   2  -6  -3   17.76    3.85
  -2   6   3   28.03    4.09
  -2   6   3   29.15    4.17
  -2   6   3   24.92    3.40
   1  -6  -3   21.86    3.08
   1  -6  -3   19.48    3.21
   1  -6  -3   22.07    3.86
   1  -6  -3   25.04    3.81
  -1   6   3   23.34    3.22
  -1   6   3   26.01    3.75
  -1   6   3   20.05    3.76
   0  -6  -3   54.70    5.08
   0  -6  -3   69.49    6.06
   0  -6  -3   49.14    5.68
   0   6   3   56.53    5.27
   0   6   3   47.53    5.49
   0   6   3   64.18    5.32
  -1  -6  -3   14.16    3.20
  -1  -6  -3   16.01    3.28
   1   6   3   16.17    3.90
   1   6   3   17.32    3.23
   1   6   3   18.96    3.21
  -2  -6  -3   20.17    4.05
  -2  -6  -3   21.55    4.08
   2   6   3   19.73    3.85
   2   6   3   22.44    4.26
  -3  -6  -3   33.24    5.28
  -3  -6  -3   35.93    6.02
   3   6   3   33.66    5.24
  -4  -6  -3    6.06    4.67
  -4  -6  -3   -0.32    4.73
   4   6   3   17.43    5.40
  -5  -6  -3    4.14    5.44
  -5  -6  -3    0.16    5.24
   5   6   3    0.95    5.45
   6  -7  -3    1.83    4.42
  -6   7   3   12.23    4.06
   5  -7  -3   12.52    4.41
  -5   7   3    9.26    4.53
   4  -7  -3    3.06    3.88
   4  -7  -3    0.81    2.64
  -4   7   3   -2.43    3.46
   3  -7  -3   16.34    3.49
   3  -7  -3   23.80    3.41
  -3   7   3   13.86    3.95
  -3   7   3   17.99    4.42
   2  -7  -3    4.02    3.54
   2  -7  -3    2.86    3.06
   2  -7  -3    3.98    2.73
  -2   7   3    4.27    2.58
  -2   7   3    5.69    2.67
  -2   7   3    9.87    2.78
   1  -7  -3   -1.25    3.43
   1  -7  -3   -0.09    2.65
   1  -7  -3    0.22    2.73
  -1   7   3    0.49    3.32
  -1   7   3    1.41    2.31
  -1   7   3    0.15    2.79
   0  -7  -3  165.46   11.52
   0  -7  -3  180.71   12.86
   0   7   3  177.40   12.05
   0   7   3  148.49   12.54
   0   7   3  172.71   12.41
  -1  -7  -3   51.38    5.28
  -1  -7  -3   46.24    6.19
   1   7   3   46.98    5.80
   1   7   3   55.73    6.09
   1   7   3   50.71    5.78
  -2  -7  -3    2.09    3.34
  -2  -7  -3    3.66    4.49
   2   7   3    5.03    4.64
   2   7   3    0.81    4.16
  -3  -7  -3   38.48    5.47
  -3  -7  -3   48.44    6.74
   3   7   3   42.35    6.40
   3   7   3   37.25    6.52
  -4  -7  -3    7.00    5.21
  -4  -7  -3   -0.70    4.45
   4   7   3   -1.35    5.02
   4   7   3   -4.17    3.49
  -5  -7  -3   12.83    4.82
  -5  -7  -3   -1.00    5.37
   5   7   3   -1.93    4.27
   5   7   3    1.96    4.45
   6  -8  -3    9.44    4.90
  -6   8   3    7.59    5.34
   5  -8  -3    9.90    4.29
  -5   8   3    3.54    4.47
   4  -8  -3    4.76    4.13
  -4   8   3    6.42    4.09
   3  -8  -3   11.50    3.49
   3  -8  -3    3.85    3.99
  -3   8   3   10.28    3.89
  -3   8   3    6.88    3.28
   2  -8  -3   15.14    4.32
   2  -8  -3    7.99    3.19
   2  -8  -3    9.79    3.30
  -2   8   3    4.13    3.74
  -2   8   3    7.34    3.81
  -2   8   3    6.59    3.16
   1  -8  -3    6.36    4.04
   1  -8  -3   -4.40    2.93
   1  -8  -3    0.30    2.76
  -1   8   3    0.30    2.85
  -1   8   3    3.06    3.38
  -1   8   3    0.39    3.64
   0  -8  -3   43.92    4.95
   0  -8  -3   38.17    5.21
   0   8   3   49.86    5.83
   0   8   3   45.76    6.10
   0   8   3   47.52    5.39
  -1  -8  -3   33.73    4.62
  -1  -8  -3   43.07    6.07
   1   8   3   37.68    5.28
   1   8   3   31.08    5.48
  -2  -8  -3    5.47    3.69
  -2  -8  -3    1.58    3.44
   2   8   3    2.79    3.31
   2   8   3    2.69    3.66
  -3  -8  -3   -0.83    3.72
  -3  -8  -3   10.13    5.34
   3   8   3    2.73    3.66
   3   8   3    6.44    4.06
  -4  -8  -3   31.70    5.96
  -4  -8  -3   36.60    7.22
   4   8   3   39.40    7.39
   4   8   3   22.97    6.72
  -5  -8  -3   -4.46    5.93
  -5  -8  -3   -3.40    5.36
   5   8   3    0.88    6.21
   5   8   3   -9.75    5.90
   6  -9  -3    3.92    4.73
  -6   9   3    7.02    4.40
   5  -9  -3    5.88    4.66
  -5   9   3   -1.42    4.73
   4  -9  -3    4.26    4.20
  -4   9   3    1.58    3.32
   3  -9  -3    7.95    4.32
  -3   9   3    9.95    3.27
  -3   9   3    1.43    3.98
   2  -9  -3   73.90    7.06
   2  -9  -3   88.61    8.58
  -2   9   3   95.40    8.49
  -2   9   3   74.53    7.21
   1  -9  -3    4.14    3.41
   1  -9  -3    2.55    3.33
  -1   9   3   -1.74    3.38
  -1   9   3    1.34    3.04
   0  -9  -3   39.20    4.73
   0  -9  -3   43.42    5.52
   0   9   3   40.05    5.59
   0   9   3   35.08    5.95
  -1  -9  -3   13.67    3.69
  -1  -9  -3   24.06    4.63
   1   9   3   21.01    4.95
   1   9   3   20.23    5.05
  -2  -9  -3    6.25    3.89
  -2  -9  -3   -5.08    3.05
   2   9   3   -0.89    4.63
   2   9   3   -3.32    3.21
  -3  -9  -3    8.26    4.46
  -3  -9  -3   13.64    4.30
   3   9   3   10.54    5.71
   3   9   3    7.32    4.33
  -4  -9  -3    6.00    4.49
  -4  -9  -3   -1.25    4.39
   4   9   3    2.39    5.94
   4   9   3    0.95    5.87
   5 -10  -3   12.09    5.01
  -5  10   3   14.03    5.64
   4 -10  -3   -0.90    4.29
   3 -10  -3   -3.56    2.93
  -3  10   3   -1.90    4.10
  -3  10   3    4.61    3.81
   2 -10  -3    6.20    3.31
   2 -10  -3    6.39    4.53
  -2  10   3    4.19    3.63
  -2  10   3    7.82    4.33
   1 -10  -3    5.54    3.10
   1 -10  -3    7.11    4.81
  -1  10   3    8.01    3.91
  -1  10   3    8.03    4.58
   0 -10  -3    1.80    2.91
   0 -10  -3   -1.90    4.33
   0  10   3    0.52    4.34
   0  10   3    3.24    3.97
  -1 -10  -3   -2.44    4.68
  -1 -10  -3    7.53    3.66
   1  10   3    3.15    4.56
   1  10   3   -0.95    4.54
  -2 -10  -3   41.21    6.45
  -2 -10  -3   55.31    5.83
   2  10   3   44.57    6.61
   2  10   3   42.01    6.94
  -3 -10  -3    3.11    4.31
  -3 -10  -3    2.53    3.80
   3  10   3   -4.13    5.50
   3  10   3   -2.61    3.98
   4 -11  -3    9.14    5.15
   3 -11  -3   -2.51    4.59
  -3  11   3   -2.27    4.48
  -3  11   3   -0.35    3.52
   2 -11  -3    0.08    3.17
   2 -11  -3    9.40    5.01
  -2  11   3   -6.89    3.54
  -2  11   3    1.90    4.47
   1 -11  -3   12.31    4.23
   1 -11  -3   10.44    3.43
  -1  11   3   14.83    4.51
  -1  11   3   14.43    5.15
   0 -11  -3   18.66    4.12
   0 -11  -3   26.61    6.02
   0  11   3   20.81    4.96
   0  11   3   20.17    4.78
  -1 -11  -3   56.38    6.87
  -1 -11  -3   44.18    5.50
   1  11   3   41.67    6.36
   1  11   3   34.57    6.30
  -2 -11  -3    4.96    3.96
  -2 -11  -3    8.38    5.80
   2  11   3   -1.21    5.18
   2  11   3    3.14    5.40
  -3 -11  -3    0.83    3.82
  -3 -11  -3    4.37    4.75
   3  11   3   -3.89    4.09
   3  11   3   16.73    6.75
   4 -12  -3    2.91    5.49
   3 -12  -3   12.89    5.49
  -3  12   3    5.48    5.25
  -3  12   3   14.59    4.34
   2 -12  -3    0.21    5.20
  -2  12   3   -3.81    4.12
  -2  12   3   -4.17    4.65
   1 -12  -3   18.57    4.36
   1 -12  -3   16.78    5.83
  -1  12   3   19.66    5.62
  -1  12   3   12.21    4.74
   0 -12  -3   10.66    5.85
   0 -12  -3    5.75    3.76
   0  12   3    5.26    4.63
   0  12   3    5.70    4.10
  -1 -12  -3   11.15    3.62
  -1 -12  -3   14.01    6.28
   1  12   3   12.05    5.24
   1  12   3   17.09    6.39
  -2 -12  -3   47.97    7.94
  -2 -12  -3   20.92    4.70
   2  12   3   24.91    7.20
   2  12   3   19.40    5.54
   2 -13  -3   -3.41    3.85
  -2  13   3   -1.38    5.09
  -2  13   3    3.61    4.48
   1 -13  -3   -6.04    3.35
   1 -13  -3    6.29    6.04
  -1  13   3   10.18    4.82
  -1  13   3   -3.88    3.68
   0 -13  -3   11.41    6.28
   0  13   3    4.00    3.74
   0  13   3   13.45    6.04
   1  13  -4    1.25    5.98
   1  13  -4   11.64    6.02
  -1 -13   4   16.41    7.06
   0  13  -4    4.90    4.12
   0  13  -4    0.80    4.27
   0 -13   4   13.93    6.45
  -1  13  -4    9.49    4.51
  -1  13  -4   -5.24    4.82
   1 -13   4   14.89    6.62
  -2  13  -4    4.98    4.32
  -2  13  -4    7.73    4.21
   2 -13   4   11.48    5.21
  -3  13  -4    5.96    4.53
  -3  13  -4    5.87    5.44
   3 -13   4    1.99    4.60
   2  12  -4   -0.69    5.63
   2  12  -4   -1.59    5.75
  -2 -12   4    2.28    4.60
   1  12  -4    3.40    5.24
   1  12  -4   -0.95    5.32
  -1 -12   4    2.25    4.38
   0  12  -4   12.75    5.58
   0  12  -4   10.18    4.13
   0 -12   4    7.04    4.66
  -1  12  -4    1.78    5.14
  -1  12  -4    6.40    4.86
   1 -12   4   -0.79    4.08
  -2  12  -4    0.56    5.00
  -2  12  -4    3.82    4.73
   2 -12   4    4.17    5.63
  -3  12  -4    9.62    5.09
  -3  12  -4    7.80    4.08
   3 -12   4    8.27    5.78
  -4  12  -4   -3.37    5.88
   4 -12   4   -3.01    5.80
   3  11  -4    0.59    5.80
   3  11  -4    2.99    4.43
  -3 -11   4    5.24    6.24
   2  11  -4    6.05    5.47
   2  11  -4   -5.15    5.00
  -2 -11   4    7.09    5.91
   1  11  -4   -7.10    4.79
   1  11  -4    0.03    4.97
  -1 -11   4    0.08    3.91
   0  11  -4    3.08    4.92
   0  11  -4   -0.78    4.69
   0 -11   4   -4.20    3.64
  -1  11  -4    6.80    3.83
  -1  11  -4   12.19    4.01
   1 -11   4   12.62    5.62
  -2  11  -4    2.55    4.41
  -2  11  -4   -4.47    4.61
   2 -11   4    1.16    5.26
  -3  11  -4   -4.39    4.55
  -3  11  -4   -0.38    3.40
   3 -11   4    6.97    5.45
  -4  11  -4   -0.40    4.00
   4 -11   4    9.43    5.78
  -5  11  -4    4.52    5.79
   5 -11   4   -0.29    6.04
   4  10  -4    8.03    4.96
   4  10  -4   14.48    6.80
  -4 -10   4   13.30    6.61
   3  10  -4    1.78    5.07
   3  10  -4    3.05    5.65
  -3 -10   4    9.30    5.87
   2  10  -4   -0.79    4.78
   2  10  -4    7.19    4.01
  -2 -10   4    5.87    5.38
   1  10  -4    1.31    4.61
   1  10  -4   -1.91    4.70
  -1 -10   4    5.06    5.08
   0  10  -4    9.97    3.83
   0  10  -4    9.04    4.66
   0 -10   4    9.85    5.25
  -1  10  -4   11.75    4.95
  -1  10  -4   17.07    4.86
   1 -10   4   19.27    5.63
  -2  10  -4   30.00    5.00
  -2  10  -4   28.72    4.71
   2 -10   4   31.68    6.20
  -3  10  -4    7.28    4.57
  -3  10  -4    8.41    3.74
   3 -10   4   11.59    4.13
  -4  10  -4    6.69    5.42
   4 -10   4   13.32    4.48
  -5  10  -4   -9.13    4.98
   5 -10   4    2.70    5.66
   4   9  -4   -7.24    5.50
   4   9  -4    1.87    5.29
  -4  -9   4    7.61    5.71
  -4  -9   4    5.66    3.40
   3   9  -4   31.95    6.27
   3   9  -4   21.48    5.06
  -3  -9   4   26.04    6.32
  -3  -9   4   24.16    3.74
   2   9  -4   -8.07    4.07
   2   9  -4   -3.82    3.15
  -2  -9   4    0.49    3.66
  -2  -9   4    2.48    2.33
   1   9  -4   -6.31    4.31
   1   9  -4    2.72    4.40
  -1  -9   4    6.19    4.72
  -1  -9   4    0.76    1.40
   0   9  -4    6.25    4.53
   0   9  -4    8.10    3.54
   0  -9   4    6.90    4.77
  -1   9  -4   38.35    6.07
  -1   9  -4   46.74    6.02
   1  -9   4   41.68    5.70
  -2   9  -4   73.42    7.73
  -2   9  -4   83.37    8.20
   2  -9   4   66.06    7.50
  -3   9  -4    9.92    4.40
   3  -9   4    6.69    4.69
  -4   9  -4   -1.42    4.53
   4  -9   4    3.92    3.56
  -5   9  -4    5.49    5.29
   5  -9   4    4.45    5.49
  -6   9  -4    2.34    5.79
   6  -9   4   -3.13    4.18
   5   8  -4   11.78    6.33
   5   8  -4    7.06    6.05
  -5  -8   4   16.57    5.22
   4   8  -4   -1.97    3.80
   4   8  -4    6.32    5.30
  -4  -8   4    0.19    5.25
   3   8  -4    0.21    4.85
   3   8  -4   -0.09    3.59
  -3  -8   4   -1.62    2.68
  -3  -8   4   -4.31    4.63
   2   8  -4    5.35    4.66
   2   8  -4    7.58    4.63
  -2  -8   4    6.88    4.73
  -2  -8   4    2.92    2.34
   1   8  -4    6.66    4.53
   1   8  -4    8.37    3.48
  -1  -8   4    1.63    3.28
  -1  -8   4    6.11    1.65
   0   8  -4    6.62    4.13
   0   8  -4    9.45    4.28
   0  -8   4    6.37    3.26
  -1   8  -4   71.94    7.08
  -1   8  -4   66.01    6.96
   1  -8   4   73.81    7.59
  -2   8  -4   24.18    4.11
  -2   8  -4   27.87    4.34
   2  -8   4   23.16    5.20
  -3   8  -4   31.38    5.18
   3  -8   4   28.16    5.51
  -4   8  -4   13.53    3.92
   4  -8   4    6.68    3.69
  -5   8  -4    4.69    4.83
   5  -8   4   11.44    4.42
  -6   8  -4   -3.66    5.14
   6  -8   4    7.41    5.81
   5   7  -4   11.19    5.80
   5   7  -4    8.08    4.42
  -5  -7   4   11.25    5.95
   4   7  -4    6.92    4.17
   4   7  -4    6.34    5.09
  -4  -7   4   -1.82    3.44
   3   7  -4   19.00    4.39
   3   7  -4   22.34    4.60
  -3  -7   4   19.37    5.51
   2   7  -4    0.49    3.98
   2   7  -4   -0.12    3.05
  -2  -7   4   -1.93    2.06
  -2  -7   4    4.69    4.02
   1   7  -4   -5.69    3.63
   1   7  -4    4.58    2.93
  -1  -7   4    7.28    3.05
  -1  -7   4    5.01    3.92
  -1  -7   4    1.77    1.55
   0   7  -4   12.22    3.97
   0   7  -4   15.04    4.25
   0  -7   4   15.41    4.05
   0  -7   4   26.29    4.36
  -1   7  -4    2.99    3.47
  -1   7  -4    3.10    2.62
   1  -7   4   -0.53    3.70
   1  -7   4    1.47    3.33
  -2   7  -4  172.67   11.90
  -2   7  -4  152.18   11.73
   2  -7   4  148.57   12.32
  -3   7  -4   91.39    8.82
   3  -7   4   97.01    8.33
  -4   7  -4    1.25    4.07
   4  -7   4    1.03    4.37
  -5   7  -4   -2.26    4.45
   5  -7   4   -3.45    4.91
  -6   7  -4    9.88    5.52
   6  -7   4    5.28    5.65
   6   6  -4    0.02    5.34
   6   6  -4    7.14    6.16
  -6  -6   4   -3.49    5.65
   5   6  -4   26.71    5.23
   5   6  -4    5.45    5.41
  -5  -6   4   20.69    5.66
   4   6  -4   -5.32    4.46
   4   6  -4    1.33    4.63
  -4  -6   4    3.77    4.60
   3   6  -4   -1.07    4.33
   3   6  -4   -3.57    4.24
  -3  -6   4    1.77    3.29
   2   6  -4   40.67    5.53
   2   6  -4   46.19    5.69
  -2  -6   4   45.28    5.63
  -2  -6   4   40.07    5.10
   1   6  -4   -0.93    3.31
   1   6  -4    2.32    3.20
   1   6  -4   -3.59    2.62
  -1  -6   4   -1.25    2.25
  -1  -6   4   -2.26    2.29
  -1  -6   4   -1.53    2.31
  -1  -6   4    1.45    1.33
   0   6  -4   70.30    6.17
   0   6  -4   65.63    5.90
   0   6  -4   62.26    6.03
   0  -6   4   69.16    6.49
   0  -6   4   67.93    6.38
   0  -6   4   56.21    5.95
  -1   6  -4    1.23    2.18
  -1   6  -4    2.84    2.12
  -1   6  -4    0.50    2.86
   1  -6   4   -1.15    2.02
   1  -6   4    2.16    2.14
   1  -6   4   -1.19    2.91
  -2   6  -4    2.73    2.26
  -2   6  -4   -0.01    2.54
  -2   6  -4    1.54    2.29
   2  -6   4   -3.75    3.02
   2  -6   4   -2.56    2.89
   2  -6   4   -0.33    3.14
  -3   6  -4    3.08    3.57
   3  -6   4    1.53    2.77
  -4   6  -4   30.45    5.39
   4  -6   4   34.46    5.91
  -5   6  -4    5.46    4.57
   5  -6   4    7.45    5.29
  -6   6  -4   -0.10    3.68
   6  -6   4    7.46    5.77
   6   5  -4    2.18    5.26
   6   5  -4    6.18    5.51
  -6  -5   4   -6.79    4.79
   5   5  -4    1.23    4.73
   5   5  -4    5.53    5.16
  -5  -5   4    3.44    4.83
   4   5  -4   49.52    6.40
   4   5  -4   41.32    6.34
  -4  -5   4   39.90    6.17
   3   5  -4    3.07    4.05
   3   5  -4    0.15    3.87
  -3  -5   4    2.71    3.65
  -3  -5   4    2.41    2.71
   2   5  -4   16.22    3.24
   2   5  -4   15.75    3.27
   2   5  -4   16.34    3.89
  -2  -5   4    7.65    3.64
  -2  -5   4   16.83    3.74
   1   5  -4    9.61    2.76
   1   5  -4    9.34    3.07
   1   5  -4   12.36    2.72
  -1  -5   4    9.78    3.19
  -1  -5   4   14.60    3.29
  -1  -5   4   13.01    3.27
   0   5  -4    8.21    2.94
   0   5  -4    9.32    2.95
   0   5  -4    3.20    2.41
   0  -5   4    0.61    2.74
   0  -5   4    6.43    2.82
   0  -5   4    0.40    2.61
  -1   5  -4   35.87    4.11
  -1   5  -4   38.24    3.86
  -1   5  -4   36.27    3.83
   1  -5   4   22.48    3.88
   1  -5   4   34.11    3.82
   1  -5   4   34.34    3.66
  -2   5  -4   25.14    3.33
  -2   5  -4   24.13    4.03
   2  -5   4   21.21    3.72
   2  -5   4   23.05    3.18
   2  -5   4   21.86    3.83
  -3   5  -4   22.67    3.58
   3  -5   4   16.08    3.32
   3  -5   4   11.87    4.26
  -4   5  -4   12.10    3.41
   4  -5   4   10.75    3.81
  -5   5  -4    4.62    4.44
   5  -5   4    5.22    4.96
  -6   5  -4    0.80    3.76
   6  -5   4    6.97    5.76
  -7   5  -4   -3.53    5.59
   7  -5   4   -1.11    4.58
   6   4  -4   16.47    5.91
   6   4  -4   20.99    5.79
  -6  -4   4   25.41    6.21
   5   4  -4   17.77    4.44
   5   4  -4   29.71    5.50
  -5  -4   4   18.60    5.07
   4   4  -4   60.13    6.73
   4   4  -4   57.67    4.55
   4   4  -4   62.73    6.51
  -4  -4   4   47.56    6.52
  -4  -4   4   51.81    6.11
   3   4  -4   19.06    4.21
   3   4  -4   12.43    4.08
  -3  -4   4   19.00    3.39
  -3  -4   4   18.69    3.96
   2   4  -4   43.03    4.40
   2   4  -4   41.29    4.68
   2   4  -4   39.60    4.77
  -2  -4   4   46.58    4.76
  -2  -4   4   38.87    4.23
   1   4  -4   83.51    5.87
   1   4  -4   66.23    5.50
   1   4  -4   59.92    5.90
  -1  -4   4   72.77    6.00
  -1  -4   4   64.72    5.57
  -1  -4   4   69.75    5.57
   0   4  -4   52.28    4.39
   0   4  -4   56.80    4.90
   0   4  -4   56.79    4.65
   0  -4   4   47.75    4.58
   0  -4   4   34.49    4.42
   0  -4   4   52.72    4.31
  -1   4  -4   32.77    3.55
  -1   4  -4   25.62    3.05
  -1   4  -4   30.61    3.63
   1  -4   4   26.39    3.14
   1  -4   4   23.47    3.15
   1  -4   4   32.67    3.22
  -2   4  -4   22.73    3.31
  -2   4  -4   22.05    3.70
   2  -4   4   20.98    3.41
   2  -4   4   13.27    3.30
   2  -4   4   17.31    3.35
  -3   4  -4    9.75    3.73
  -3   4  -4   10.75    2.75
   3  -4   4   13.92    2.88
   3  -4   4    7.22    3.76
   3  -4   4   14.06    2.82
  -4   4  -4  139.57   10.57
   4  -4   4  130.77   10.80
  -5   4  -4    1.77    3.11
  -5   4  -4    1.99    2.67
   5  -4   4   -3.12    3.32
  -6   4  -4   -5.27    4.59
   6  -4   4    8.17    5.62
  -7   4  -4    6.91    6.09
   7  -4   4    8.76    5.23
   6   3  -4    4.89    4.96
  -6  -3   4   -0.94    3.53
   5   3  -4   -6.24    3.86
  -5  -3   4   -5.20    3.70
   4   3  -4   18.62    4.61
  -4  -3   4   16.59    4.26
  -4  -3   4   24.04    4.58
   3   3  -4   11.70    2.36
   3   3  -4    6.64    3.24
   3   3  -4   10.17    1.86
   3   3  -4    7.92    3.37
  -3  -3   4   11.35    2.61
  -3  -3   4    8.86    3.10
   2   3  -4   72.57    6.23
   2   3  -4   55.60    6.07
   2   3  -4   71.87    5.89
  -2  -3   4   92.58    6.38
  -2  -3   4   78.57    6.29
   1   3  -4    2.73    2.41
   1   3  -4    3.50    2.10
   1   3  -4    6.73    1.98
  -1  -3   4    8.21    1.81
  -1  -3   4    6.62    2.21
  -1  -3   4   11.78    2.50
   0   3  -4    0.24    1.44
   0   3  -4    1.32    2.00
   0   3  -4    1.54    1.72
   0  -3   4    3.11    2.00
   0  -3   4   -1.14    1.59
   0  -3   4    1.81    2.15
  -1   3  -4  104.69    8.11
  -1   3  -4  109.58    8.27
   1  -3   4  129.13    8.29
   1  -3   4  107.79    7.76
  -2   3  -4    7.83    2.73
  -2   3  -4    6.37    2.58
   2  -3   4    5.73    2.94
   2  -3   4    4.62    1.98
   2  -3   4    6.89    2.68
  -3   3  -4    5.03    3.00
  -3   3  -4    7.61    2.61
   3  -3   4    9.07    3.16
   3  -3   4    6.44    2.68
  -4   3  -4   16.54    3.15
  -4   3  -4    5.28    2.98
   4  -3   4   14.13    3.71
  -5   3  -4    6.73    2.48
  -5   3  -4   11.49    4.65
   5  -3   4    3.11    4.87
  -6   3  -4    3.32    5.00
   6  -3   4    3.51    4.21
  -7   3  -4    7.08    5.96
   7  -3   4    8.83    5.17
   7   2  -4    7.42    5.53
  -7  -2   4   14.02    6.14
   6   2  -4   -3.28    4.52
  -6  -2   4    6.23    4.78
   5   2  -4   70.98    7.38
  -5  -2   4   58.94    7.09
   4   2  -4    6.74    3.79
  -4  -2   4    2.09    3.45
  -4  -2   4    2.46    3.45
   3   2  -4   12.51    3.26
   3   2  -4   12.20    1.77
   3   2  -4   12.25    2.34
  -3  -2   4   17.66    3.30
  -3  -2   4   12.24    3.13
   2   2  -4   25.35    2.64
   2   2  -4   26.89    2.90
   2   2  -4   24.45    3.08
   2   2  -4   24.84    3.02
  -2  -2   4   21.32    2.90
  -2  -2   4   24.13    3.08
   1   2  -4  174.45   11.57
   1   2  -4  161.21   11.06
   1   2  -4  185.12   11.51
  -1  -2   4  164.81   11.55
  -1  -2   4  166.44   11.55
  -1  -2   4  172.55   11.23
   0   2  -4  190.93   12.86
   0   2  -4  181.42   12.87
   0   2  -4  198.71   12.51
   0   2  -4  195.98   11.98
   0  -2   4  181.22   12.88
   0  -2   4  219.29   12.55
  -1   2  -4   13.75    2.41
  -1   2  -4   10.85    1.81
   1  -2   4   13.44    2.49
   1  -2   4   12.69    2.14
   1  -2   4   12.41    2.27
  -2   2  -4   59.07    4.65
  -2   2  -4   39.40    4.88
   2  -2   4   63.43    5.41
   2  -2   4   58.22    4.66
  -3   2  -4  115.49    8.93
  -3   2  -4  104.56    8.28
  -3   2  -4  102.46    8.27
   3  -2   4  112.71    8.36
   3  -2   4  124.40    9.13
  -4   2  -4   15.07    4.11
  -4   2  -4   17.58    2.87
   4  -2   4   21.15    4.77
  -5   2  -4    7.27    2.22
  -5   2  -4    5.71    4.43
   5  -2   4    3.12    5.01
  -6   2  -4   11.10    4.18
   6  -2   4   27.04    6.65
  -7   2  -4   -3.30    5.48
   7  -2   4    1.44    4.75
   7   1  -4    5.41    5.09
  -7  -1   4    0.98    3.84
   6   1  -4    1.48    3.19
  -6  -1   4   -0.27    4.34
   5   1  -4   23.33    4.26
  -5  -1   4   31.51    5.17
  -5  -1   4   23.99    4.85
   4   1  -4   34.24    4.87
  -4  -1   4   28.81    4.55
  -4  -1   4   33.06    4.18
   3   1  -4   23.77    3.65
   3   1  -4   29.36    3.14
   3   1  -4   28.51    2.64
  -3  -1   4   29.61    3.56
  -3  -1   4   28.27    3.72
   2   1  -4    4.37    2.14
   2   1  -4    9.27    1.68
   2   1  -4    3.61    1.63
  -2  -1   4    3.83    1.85
  -2  -1   4    6.13    2.19
   1   1  -4   -0.05    1.55
   1   1  -4    2.03    1.12
   1   1  -4   -0.45    1.66
  -1  -1   4    0.28    1.34
  -1  -1   4    1.96    1.41
  -1  -1   4    0.04    1.11
   0   1  -4  111.02    7.18
   0   1  -4  111.08    7.98
   0   1  -4  108.53    6.94
   0   1  -4  107.87    7.08
   0  -1   4  104.85    7.07
   0  -1   4  106.42    7.17
   0  -1   4   99.86    7.20
  -1   1  -4  112.67    7.81
  -1   1  -4  110.80    8.05
  -1   1  -4   91.83    7.64
   1  -1   4  121.50    7.91
   1  -1   4  116.39    7.73
  -2   1  -4   22.74    2.84
  -2   1  -4   21.98    2.81
  -2   1  -4   16.80    2.83
   2  -1   4   21.10    2.73
   2  -1   4   20.92    2.95
  -3   1  -4   27.20    3.84
  -3   1  -4   26.67    3.72
  -3   1  -4   26.75    3.01
   3  -1   4   23.37    3.51
   3  -1   4   22.53    3.26
  -4   1  -4   13.59    3.28
  -4   1  -4   17.35    2.68
   4  -1   4   18.84    3.86
  -5   1  -4    8.12    4.42
   5  -1   4   -2.07    4.79
  -6   1  -4    9.05    5.05
   6  -1   4    5.91    4.37
  -7   1  -4    7.80    4.58
   7  -1   4   10.30    5.18
   7   0  -4   -0.24    3.41
  -7   0   4   -9.36    4.81
   6   0  -4   -7.39    3.78
  -6   0   4   -5.80    4.17
   5   0  -4   21.10    4.66
  -5   0   4   22.89    4.73
  -5   0   4   24.10    4.10
   4   0  -4    1.59    3.12
  -4   0   4   -1.63    2.68
  -4   0   4   -2.74    2.15
   3   0  -4    0.74    2.32
   3   0  -4    0.83    1.83
  -3   0   4    3.95    2.25
  -3   0   4    2.28    2.24
   2   0  -4   13.92    1.89
   2   0  -4   16.51    2.20
   2   0  -4   11.34    2.10
  -2   0   4   11.19    2.03
  -2   0   4   11.96    2.21
   1   0  -4    5.41    1.52
   1   0  -4    5.83    1.53
   1   0  -4    6.18    0.94
   1   0  -4    3.97    1.06
  -1   0   4    5.32    1.09
  -1   0   4    4.25    1.01
   0   0  -4  650.22   39.59
   0   0  -4  638.55   41.52
   0   0  -4  645.29   43.94
   0   0   4  637.36   41.54
   0   0   4  648.76   39.79
   0   0   4  653.84   41.53
  -1   0  -4   64.93    5.27
  -1   0  -4   68.63    5.16
  -1   0  -4   69.25    5.53
  -1   0  -4   65.83    4.92
   1   0   4   73.51    5.19
   1   0   4   65.11    5.29
  -2   0  -4    7.68    2.59
  -2   0  -4    6.89    1.87
  -2   0  -4    4.67    2.26
   2   0   4    6.07    2.60
   2   0   4    6.05    1.83
  -3   0  -4    3.14    1.82
  -3   0  -4    0.94    2.68
  -3   0  -4   -1.10    2.98
   3   0   4    0.01    2.73
   3   0   4    0.84    3.10
  -4   0  -4    7.91    2.96
  -4   0  -4    9.72    2.35
   4   0   4    8.96    4.58
  -5   0  -4   16.48    4.77
   5   0   4    5.78    5.01
  -6   0  -4   -1.88    4.56
   6   0   4    5.54    5.59
  -7   0  -4    3.59    4.31
   7   0   4    2.23    6.65
   7  -1  -4    1.55    4.55
  -7   1   4    5.14    3.88
   6  -1  -4    3.65    4.23
  -6   1   4   15.04    4.72
   5  -1  -4   49.02    5.67
  -5   1   4   45.69    5.73
  -5   1   4   27.20    5.38
   4  -1  -4  126.40    8.86
  -4   1   4  107.78    9.23
  -4   1   4  105.89    9.10
   3  -1  -4   -3.19    2.11
   3  -1  -4    1.29    1.88
  -3   1   4   -0.81    2.00
  -3   1   4   -2.53    2.17
   2  -1  -4    8.58    2.15
   2  -1  -4    7.20    1.68
   2  -1  -4    7.72    1.94
  -2   1   4    5.65    1.89
  -2   1   4    7.78    1.81
   1  -1  -4    3.28    1.71
   1  -1  -4    4.19    1.60
   1  -1  -4    0.99    0.99
  -1   1   4    3.72    1.20
   0  -1  -4  214.08   15.23
   0  -1  -4  209.58   14.09
   0  -1  -4  214.87   13.60
   0   1   4  219.71   14.08
   0   1   4  218.11   14.12
  -1  -1  -4    5.66    1.90
  -1  -1  -4    8.84    2.39
  -1  -1  -4    7.22    2.17
  -1  -1  -4   10.89    2.50
   1   1   4   10.60    2.31
   1   1   4    8.01    1.69
  -2  -1  -4    6.71    2.45
  -2  -1  -4    8.05    2.72
  -2  -1  -4    6.95    2.07
   2   1   4    9.17    2.31
   2   1   4    9.27    2.06
  -3  -1  -4   29.48    3.38
  -3  -1  -4   29.73    3.76
  -3  -1  -4   31.16    4.00
   3   1   4   33.24    4.34
   3   1   4   30.70    4.56
  -4  -1  -4    2.18    3.77
   4   1   4    3.93    4.24
  -5  -1  -4    7.33    4.43
   5   1   4    8.48    5.14
  -6  -1  -4   -0.98    3.59
   6   1   4    2.96    4.42
  -7  -1  -4   -7.66    5.24
   7   1   4    6.91    6.28
   7  -2  -4   -4.75    4.23
  -7   2   4   -2.39    4.83
   6  -2  -4    4.75    4.09
  -6   2   4    5.82    3.53
   5  -2  -4    2.43    3.47
  -5   2   4    2.04    3.71
  -5   2   4    3.71    3.53
   4  -2  -4    8.41    3.24
  -4   2   4    7.46    3.30
  -4   2   4    5.44    3.14
   3  -2  -4    7.99    2.41
  -3   2   4    8.36    2.55
  -3   2   4    7.71    2.39
   2  -2  -4  168.26   12.12
   2  -2  -4  185.98   11.35
   2  -2  -4  162.84   12.17
  -2   2   4  186.87   12.28
  -2   2   4  200.42   12.38
   1  -2  -4    6.72    1.46
   1  -2  -4    4.84    1.51
   1  -2  -4    4.68    1.84
  -1   2   4    6.04    1.68
  -1   2   4    6.78    0.85
  -1   2   4    4.96    1.60
   0  -2  -4  102.75    6.87
   0  -2  -4  101.39    6.83
   0  -2  -4   99.40    7.73
   0  -2  -4   90.83    6.89
   0   2   4   96.40    6.89
   0   2   4   88.48    6.81
  -1  -2  -4   53.46    4.72
  -1  -2  -4   54.79    4.34
  -1  -2  -4   55.31    4.99
  -1  -2  -4   52.01    4.32
   1   2   4   51.13    4.44
   1   2   4   54.25    4.69
  -2  -2  -4   10.61    2.76
  -2  -2  -4   11.26    2.93
  -2  -2  -4    7.20    2.28
   2   2   4    4.98    2.25
   2   2   4    7.32    2.11
  -3  -2  -4   -0.18    3.26
  -3  -2  -4   -0.47    3.07
   3   2   4    0.05    3.06
   3   2   4   -0.66    3.31
  -4  -2  -4  109.79    9.45
   4   2   4   99.97    8.95
  -5  -2  -4   13.64    4.82
   5   2   4    0.47    4.84
  -6  -2  -4   -1.96    5.08
   6   2   4    7.90    5.57
   7  -3  -4    5.24    3.59
  -7   3   4   13.04    5.50
   6  -3  -4    0.19    2.93
  -6   3   4    5.31    4.48
   5  -3  -4   12.74    4.10
  -5   3   4    8.98    3.98
  -5   3   4    8.38    3.93
   4  -3  -4    4.57    3.21
  -4   3   4   10.51    3.31
  -4   3   4   12.33    3.45
   3  -3  -4  210.18   13.86
   3  -3  -4  235.42   14.88
   3  -3  -4  208.10   15.01
  -3   3   4  242.43   15.10
  -3   3   4  191.49   14.71
   2  -3  -4   73.29    5.92
   2  -3  -4   74.16    5.64
   2  -3  -4   68.19    4.96
   2  -3  -4   80.46    5.74
  -2   3   4   69.50    5.81
   1  -3  -4   93.13    6.87
   1  -3  -4   91.07    6.77
   1  -3  -4   95.96    6.92
  -1   3   4   93.80    6.24
  -1   3   4   86.81    6.94
  -1   3   4  104.25    6.84
   0  -3  -4  105.17    7.48
   0  -3  -4  108.11    7.51
   0  -3  -4   97.77    7.35
   0   3   4  109.50    7.53
   0   3   4   95.38    7.52
  -1  -3  -4  149.60   10.15
  -1  -3  -4  154.38   10.84
  -1  -3  -4  143.60   10.80
   1   3   4  157.44   10.63
   1   3   4  157.87   10.91
  -2  -3  -4   87.16    6.57
  -2  -3  -4   80.33    6.91
  -2  -3  -4   82.15    6.63
   2   3   4   80.46    6.88
   2   3   4   69.96    6.50
  -3  -3  -4   13.43    3.77
   3   3   4    9.90    3.63
   3   3   4    7.72    3.07
  -4  -3  -4   33.47    5.41
   4   3   4   24.14    4.57
  -5  -3  -4   12.71    5.08
   5   3   4   12.63    5.40
  -6  -3  -4   -3.59    4.93
   6   3   4    0.37    4.05
   7  -4  -4    5.83    4.74
  -7   4   4   -1.35    4.81
   6  -4  -4   -0.45    4.02
  -6   4   4    1.66    4.43
   5  -4  -4   22.14    3.30
   5  -4  -4   14.48    4.36
  -5   4   4   19.34    4.64
  -5   4   4   21.66    4.60
   4  -4  -4    7.53    2.35
   4  -4  -4    4.98    3.24
  -4   4   4    3.86    3.25
  -4   4   4    7.77    3.49
   3  -4  -4    7.56    2.52
   3  -4  -4    2.35    1.75
   3  -4  -4    3.16    2.71
  -3   4   4    4.93    2.19
  -3   4   4    2.75    2.57
   2  -4  -4   13.18    2.58
   2  -4  -4    9.92    2.39
   2  -4  -4   12.59    2.54
   2  -4  -4   14.86    1.97
  -2   4   4   13.84    2.60
  -2   4   4   13.79    1.92
  -2   4   4   16.46    2.40
   1  -4  -4   21.98    2.97
   1  -4  -4   18.95    2.90
   1  -4  -4   24.49    2.98
   1  -4  -4   20.75    2.40
  -1   4   4   28.22    3.09
  -1   4   4   24.57    3.05
  -1   4   4   26.22    2.58
   0  -4  -4   52.40    5.08
   0  -4  -4   56.08    4.97
   0  -4  -4   56.00    5.09
   0   4   4   58.36    5.04
   0   4   4   55.10    4.69
   0   4   4   66.97    5.24
  -1  -4  -4  220.05   14.96
  -1  -4  -4  216.52   15.74
  -1  -4  -4  223.96   15.74
   1   4   4  247.65   15.74
   1   4   4  231.81   15.71
  -2  -4  -4    3.83    2.45
  -2  -4  -4    6.88    2.48
  -2  -4  -4    7.52    3.27
   2   4   4    8.76    2.75
   2   4   4    4.94    2.97
  -3  -4  -4    2.43    3.78
  -3  -4  -4    1.54    2.89
   3   4   4    8.85    4.32
  -4  -4  -4    8.00    3.54
   4   4   4    5.85    4.80
  -5  -4  -4   24.61    5.88
   5   4   4   35.17    6.46
  -6  -4  -4    7.69    5.72
   6   4   4    0.64    5.92
  -7   5   4    2.88    4.04
   6  -5  -4   -2.02    2.71
  -6   5   4    3.72    4.56
   5  -5  -4    3.43    2.63
   5  -5  -4    3.63    3.69
  -5   5   4    0.78    3.73
  -5   5   4   -3.23    2.42
   4  -5  -4   13.56    3.95
   4  -5  -4   15.89    2.68
  -4   5   4   17.75    4.12
  -4   5   4   15.07    3.97
   3  -5  -4   42.12    4.58
   3  -5  -4   37.14    3.56
  -3   5   4   34.63    4.73
  -3   5   4   32.70    4.45
   2  -5  -4   14.13    2.33
   2  -5  -4   17.00    2.94
   2  -5  -4   18.81    2.93
   2  -5  -4   15.81    3.00
  -2   5   4   14.92    3.00
  -2   5   4   16.40    3.15
  -2   5   4    9.69    2.15
   1  -5  -4    0.43    2.31
   1  -5  -4   -2.66    1.59
   1  -5  -4   -1.90    2.33
   1  -5  -4    0.75    1.90
  -1   5   4    3.13    2.64
  -1   5   4   -0.19    2.16
  -1   5   4    0.10    1.77
   0  -5  -4   -1.81    2.33
   0  -5  -4    2.65    2.58
   0  -5  -4    0.22    2.48
   0   5   4    0.65    2.31
   0   5   4    5.07    2.40
   0   5   4    1.83    2.42
  -1  -5  -4   30.88    4.46
  -1  -5  -4   41.06    4.57
  -1  -5  -4   35.99    4.36
   1   5   4   27.99    4.37
   1   5   4   40.71    4.45
   1   5   4   42.93    4.56
  -2  -5  -4    2.60    3.41
  -2  -5  -4    2.99    2.68
   2   5   4    5.74    3.76
   2   5   4   -0.82    3.04
  -3  -5  -4   70.76    7.76
  -3  -5  -4   69.24    7.33
   3   5   4   79.31    8.03
  -4  -5  -4    4.66    4.82
  -4  -5  -4    6.17    3.55
   4   5   4    3.11    4.90
  -5  -5  -4    2.91    5.39
  -5  -5  -4   -5.27    4.83
   5   5   4   -0.29    3.87
  -6  -5  -4    0.16    5.65
  -6  -5  -4   -0.77    5.76
   6   5   4    4.09    4.74
   6  -6  -4    6.25    4.38
  -6   6   4   11.91    4.04
   5  -6  -4   11.24    4.11
  -5   6   4   14.61    4.67
   4  -6  -4   13.92    2.86
   4  -6  -4   10.67    3.89
  -4   6   4   10.10    3.22
  -4   6   4    5.64    3.69
   3  -6  -4   12.53    3.49
   3  -6  -4    8.49    2.50
  -3   6   4   14.04    3.72
   2  -6  -4    3.72    2.86
   2  -6  -4   -0.20    3.10
   2  -6  -4    7.47    2.47
  -2   6   4    7.19    2.98
  -2   6   4    5.99    3.06
  -2   6   4    6.06    2.39
   1  -6  -4   18.32    3.50
   1  -6  -4   12.90    2.60
   1  -6  -4   17.29    3.41
   1  -6  -4   15.67    2.73
  -1   6   4    9.70    3.02
  -1   6   4   12.80    2.94
  -1   6   4    7.99    3.27
   0  -6  -4   74.57    6.78
   0  -6  -4   68.95    6.67
   0  -6  -4   65.78    6.02
   0   6   4   66.85    6.06
   0   6   4   68.13    6.06
   0   6   4   78.62    6.13
  -1  -6  -4   15.06    3.24
  -1  -6  -4   14.74    3.56
   1   6   4   20.65    3.95
   1   6   4   16.79    3.15
   1   6   4   19.07    4.01
  -2  -6  -4   12.73    3.59
  -2  -6  -4    8.54    3.80
   2   6   4   21.12    4.19
   2   6   4   25.03    5.07
   2   6   4   16.38    3.67
  -3  -6  -4   13.13    4.90
  -3  -6  -4   16.44    3.81
   3   6   4   22.11    5.49
  -4  -6  -4   31.42    6.26
  -4  -6  -4   31.05    6.11
   4   6   4   32.08    5.63
  -5  -6  -4    2.01    5.38
  -5  -6  -4    8.62    5.64
   5   6   4   -7.72    5.25
   6  -7  -4   -8.43    3.59
  -6   7   4    8.60    4.89
   5  -7  -4   -3.67    3.65
  -5   7   4   -4.21    3.88
   4  -7  -4    4.42    3.87
   4  -7  -4    0.18    2.54
  -4   7   4    6.02    3.84
  -4   7   4    2.54    3.64
   3  -7  -4   28.27    4.76
   3  -7  -4   30.17    3.86
  -3   7   4   30.88    4.99
  -3   7   4   28.65    4.50
   2  -7  -4    3.47    3.49
   2  -7  -4    1.66    2.41
   2  -7  -4    7.67    3.48
  -2   7   4   11.69    3.59
  -2   7   4    4.69    3.30
  -2   7   4    3.48    2.76
   1  -7  -4   -1.66    3.30
   1  -7  -4    1.69    2.99
  -1   7   4    2.59    3.39
  -1   7   4    0.40    2.66
  -1   7   4   -1.25    2.87
   0  -7  -4   25.44    4.45
   0  -7  -4   18.87    3.61
   0   7   4   23.64    3.90
   0   7   4   21.07    4.25
   0   7   4   28.05    4.39
  -1  -7  -4   99.35    7.62
  -1  -7  -4  103.36    8.74
   1   7   4   76.26    8.36
   1   7   4   82.95    8.26
   1   7   4   94.48    8.33
  -2  -7  -4   31.48    4.96
  -2  -7  -4   28.54    5.80
   2   7   4   37.57    5.18
   2   7   4   48.06    6.47
  -3  -7  -4   20.09    4.76
  -3  -7  -4   19.92    5.51
   3   7   4   15.02    5.20
   3   7   4   24.99    5.80
  -4  -7  -4    1.41    4.50
  -4  -7  -4    2.35    5.18
   4   7   4   13.93    5.72
  -5  -7  -4    3.27    5.62
  -5  -7  -4    3.54    5.90
   5   7   4  -10.46    3.64
   6  -8  -4   -1.11    4.09
  -6   8   4    0.27    4.91
   5  -8  -4    4.68    4.22
  -5   8   4    1.93    4.36
   4  -8  -4   -1.20    2.79
  -4   8   4    0.58    3.81
   3  -8  -4    0.53    3.57
   3  -8  -4   -0.11    2.63
  -3   8   4    1.64    2.63
  -3   8   4    6.96    3.78
  -3   8   4    4.24    2.93
   2  -8  -4   -2.39    2.65
   2  -8  -4   -2.49    3.37
   2  -8  -4   -3.80    3.75
  -2   8   4    4.54    2.98
  -2   8   4   -0.93    3.47
  -2   8   4    4.69    3.79
   1  -8  -4   12.34    3.61
   1  -8  -4   14.58    4.57
  -1   8   4   16.57    3.66
  -1   8   4   15.72    4.37
  -1   8   4   25.56    4.29
   0  -8  -4   -1.26    2.96
   0  -8  -4   -2.95    2.79
   0   8   4    4.21    3.27
   0   8   4   -1.65    3.63
   0   8   4    4.33    2.83
  -1  -8  -4   78.03    6.91
  -1  -8  -4   85.28    8.13
   1   8   4   68.05    7.79
   1   8   4   69.32    7.50
  -2  -8  -4   50.45    6.15
  -2  -8  -4   50.19    5.86
   2   8   4   50.67    6.86
   2   8   4   40.17    6.48
  -3  -8  -4   30.43    6.37
  -3  -8  -4   26.62    5.19
   3   8   4   29.85    6.01
   3   8   4   27.86    5.40
  -4  -8  -4   18.85    6.20
  -4  -8  -4    5.88    4.86
   4   8   4    8.33    4.62
   4   8   4   10.58    4.74
  -5  -8  -4    4.61    5.84
  -6   9   4   -1.94    3.62
   5  -9  -4    3.58    3.31
  -5   9   4    5.89    4.71
   4  -9  -4    5.25    4.13
  -4   9   4   -3.18    2.94
   3  -9  -4   -0.09    3.71
  -3   9   4    0.21    3.09
  -3   9   4    2.26    3.78
   2  -9  -4   -2.90    3.15
   2  -9  -4    4.24    4.18
  -2   9   4    5.65    3.55
  -2   9   4   -1.08    2.81
   1  -9  -4    2.77    3.19
   1  -9  -4    3.30    3.14
  -1   9   4   -4.99    2.86
  -1   9   4    4.87    4.02
   0  -9  -4   -0.53    3.03
   0  -9  -4   -0.09    3.06
   0   9   4    2.16    3.61
   0   9   4   -3.03    2.93
  -1  -9  -4   23.91    4.82
  -1  -9  -4   31.76    4.62
   1   9   4   22.62    5.45
   1   9   4   43.42    5.56
  -2  -9  -4   58.26    6.55
  -2  -9  -4   70.32    7.51
   2   9   4   54.04    7.77
   2   9   4   68.94    7.83
  -3  -9  -4    4.42    4.09
  -3  -9  -4   -2.21    4.22
   3   9   4   -9.20    4.89
   3   9   4    0.33    3.95
  -4  -9  -4   -0.48    4.86
  -4  -9  -4    4.11    4.44
   4   9   4   -4.80    5.80
   4   9   4   -1.10    5.97
   5 -10  -4   12.05    4.76
  -5  10   4    8.30    5.19
   4 -10  -4    7.69    4.65
   3 -10  -4    2.16    4.11
  -3  10   4    4.73    3.63
  -3  10   4   -0.64    4.05
   2 -10  -4    1.09    3.49
   2 -10  -4    6.12    4.43
  -2  10   4    4.13    3.13
  -2  10   4   -0.45    3.61
   1 -10  -4    9.20    4.82
   1 -10  -4    8.83    3.55
  -1  10   4    7.20    4.13
  -1  10   4    9.11    4.50
   0 -10  -4   -3.53    4.24
   0 -10  -4    0.00    3.05
   0  10   4   -3.17    3.61
   0  10   4    1.94    4.51
  -1 -10  -4   16.11    5.58
  -1 -10  -4   25.90    4.74
   1  10   4   23.46    4.75
   1  10   4   29.24    5.44
  -2 -10  -4    3.20    3.97
  -2 -10  -4    0.89    3.81
   2  10   4    2.15    5.09
   2  10   4    7.45    5.37
  -3 -10  -4   -1.07    3.93
  -3 -10  -4    4.90    4.09
   3  10   4    0.78    5.61
   3  10   4    5.88    4.69
   4 -11  -4   -1.08    3.28
   3 -11  -4    7.49    4.84
  -3  11   4    3.78    4.77
  -3  11   4   -0.74    3.38
   2 -11  -4   -1.41    3.49
   2 -11  -4    5.24    4.68
  -2  11   4    3.61    3.54
  -2  11   4    0.06    4.36
   1 -11  -4    5.33    3.42
   1 -11  -4   -0.20    4.53
  -1  11   4    0.61    4.42
  -1  11   4    7.73    4.23
   0 -11  -4   16.80    5.50
   0 -11  -4    6.27    3.61
   0  11   4    9.46    4.56
   0  11   4   10.56    5.15
  -1 -11  -4   -0.84    4.82
  -1 -11  -4   -4.12    3.56
   1  11   4   -3.93    4.53
   1  11   4    0.33    5.07
  -2 -11  -4    4.74    3.90
  -2 -11  -4   -6.50    5.10
   2  11   4    5.45    5.59
   2  11   4    8.79    5.49
   3 -12  -4    0.13    4.89
  -3  12   4   -2.63    4.73
  -3  12   4    6.41    3.88
   2 -12  -4    2.76    5.03
   2 -12  -4   -2.12    3.59
  -2  12   4   -2.04    3.71
  -2  12   4   -3.10    4.59
   1 -12  -4   32.12    5.19
   1 -12  -4   17.05    5.92
  -1  12   4   28.46    5.51
  -1  12   4   28.22    5.16
   0 -12  -4   -1.32    3.26
   0 -12  -4   12.81    5.76
   0  12   4   16.49    5.83
   0  12   4    4.98    4.48
  -1 -12  -4    2.49    5.51
  -1 -12  -4    3.12    3.87
   1  12   4    5.48    5.59
   1  12   4    5.44    5.06
   2 -13  -4   -8.66    3.45
  -2  13   4    6.16    4.35
  -2  13   4   -4.68    3.63
   1 -13  -4   -4.35    5.51
   1 -13  -4   -1.60    3.37
  -1  13   4   -0.64    4.09
  -1  13   4   -0.78    5.17
   1  13  -5    5.59    6.13
   1  13  -5    6.30    6.19
  -1 -13   5   20.09    7.19
   0  13  -5   16.97    6.03
   0  13  -5    3.66    5.61
   0 -13   5   10.95    6.46
  -1  13  -5    4.86    5.44
  -1  13  -5    5.94    5.73
   1 -13   5    0.84    4.57
  -2  13  -5    5.66    5.65
  -2  13  -5   10.53    5.71
   2 -13   5    0.21    6.10
  -3  13  -5    7.71    5.93
  -3  13  -5   -0.96    3.92
   3 -13   5   12.90    6.61
   2  12  -5   -0.59    5.61
   2  12  -5    7.52    6.26
  -2 -12   5   12.78    6.52
   1  12  -5    6.35    5.52
   1  12  -5    3.08    5.58
  -1 -12   5    2.41    5.91
   0  12  -5    8.08    4.11
   0  12  -5   15.31    4.61
   0 -12   5    6.38    5.99
  -1  12  -5    0.31    3.65
  -1  12  -5   -0.92    3.64
   1 -12   5   13.94    5.99
  -2  12  -5    6.51    5.22
  -2  12  -5   13.19    5.73
   2 -12   5    6.80    4.47
  -3  12  -5    8.60    5.22
  -3  12  -5    8.49    5.57
   3 -12   5    6.41    6.03
  -4  12  -5   -3.18    4.39
   4 -12   5   -4.53    4.21
   3  11  -5    4.41    5.80
   3  11  -5    2.60    4.39
  -3 -11   5   -8.21    3.96
   2  11  -5   -1.09    3.88
   2  11  -5   -4.50    5.08
  -2 -11   5    3.16    4.19
   1  11  -5   10.12    5.41
   1  11  -5   -0.51    4.97
  -1 -11   5    3.69    5.40
   0  11  -5   10.63    5.34
   0  11  -5   16.59    5.33
   0 -11   5   15.61    6.01
  -1  11  -5   10.22    5.06
  -1  11  -5    8.07    4.01
   1 -11   5   11.17    5.51
  -2  11  -5    4.14    4.87
  -2  11  -5    7.09    5.08
   2 -11   5    7.87    4.34
  -3  11  -5   23.32    5.61
  -3  11  -5    8.37    4.08
   3 -11   5   10.63    4.44
  -4  11  -5   -5.31    5.34
   4 -11   5    2.32    5.71
   4  10  -5    6.17    6.34
   4  10  -5    2.80    4.69
  -4 -10   5    9.52    4.71
   3  10  -5   -5.41    5.15
   3  10  -5    3.11    6.00
  -3 -10   5    5.90    5.68
   2  10  -5   32.33    6.55
   2  10  -5   23.01    6.11
  -2 -10   5   49.50    7.36
   1  10  -5   -0.78    4.83
   1  10  -5    9.60    4.91
  -1 -10   5    1.48    4.92
   0  10  -5    5.83    4.74
   0  10  -5    0.06    4.52
   0 -10   5    4.12    3.69
  -1  10  -5    0.22    4.39
  -1  10  -5    1.70    4.51
   1 -10   5    4.30    3.73
  -2  10  -5    9.19    4.74
  -2  10  -5    0.36    4.41
   2 -10   5   -0.94    4.72
  -3  10  -5    0.58    3.38
   3 -10   5    3.59    4.95
  -4  10  -5   15.06    5.67
   4 -10   5    2.53    5.04
  -5  10  -5   -0.28    5.44
   5 -10   5   -0.28    5.58
   4   9  -5    4.05    5.76
   4   9  -5   -0.41    5.64
  -4  -9   5    9.44    4.59
  -4  -9   5    6.77    3.59
   3   9  -5   14.67    4.57
   3   9  -5   23.36    6.19
  -3  -9   5   23.97    6.03
  -3  -9   5   16.65    3.33
   2   9  -5   -5.09    3.20
   2   9  -5    2.48    3.57
  -2  -9   5   -1.15    4.92
   1   9  -5   45.91    6.47
   1   9  -5   32.67    5.89
  -1  -9   5   41.74    5.74
   0   9  -5    3.59    4.33
   0   9  -5   -1.03    4.25
   0  -9   5    8.02    3.62
  -1   9  -5   23.51    5.06
  -1   9  -5   25.66    5.27
   1  -9   5   18.84    4.47
  -2   9  -5   28.57    4.69
  -2   9  -5   32.18    5.57
   2  -9   5   33.60    6.06
  -3   9  -5    0.75    3.07
   3  -9   5   -0.53    3.36
  -4   9  -5   10.83    5.02
   4  -9   5   10.92    5.18
  -5   9  -5   24.91    5.23
   5  -9   5   25.37    5.45
   6  -9   5    2.82    4.66
   5   8  -5   25.57    5.87
   5   8  -5   28.96    6.93
  -5  -8   5   38.76    7.63
   4   8  -5   12.10    5.78
   4   8  -5   21.53    5.12
  -4  -8   5   23.25    5.08
   3   8  -5    2.53    3.67
   3   8  -5   -3.48    3.33
  -3  -8   5   -0.96    4.59
  -3  -8   5   -2.60    2.61
   2   8  -5   16.97    4.07
   2   8  -5    9.05    4.62
  -2  -8   5   14.41    4.16
  -2  -8   5   12.13    2.48
   1   8  -5   -1.72    3.10
   1   8  -5    3.90    4.32
  -1  -8   5    0.70    1.11
  -1  -8   5   -1.27    3.99
   0   8  -5    1.46    2.98
   0   8  -5    2.21    2.97
   0  -8   5    2.06    4.27
  -1   8  -5    3.76    3.93
  -1   8  -5    2.73    2.98
   1  -8   5    2.74    3.17
  -2   8  -5   56.37    6.40
  -2   8  -5   72.18    6.62
   2  -8   5   66.08    7.35
  -3   8  -5   48.16    5.67
   3  -8   5   59.05    6.91
  -4   8  -5   15.77    4.97
   4  -8   5    8.68    5.00
  -5   8  -5   -2.56    4.62
   5  -8   5    4.28    5.21
  -6   8  -5   -2.27    5.24
   6  -8   5    1.15    5.91
   5   7  -5   -3.19    5.26
   5   7  -5    4.85    4.18
  -5  -7   5    6.33    4.20
   4   7  -5   11.58    5.44
   4   7  -5   25.49    6.00
  -4  -7   5   17.79    5.45
   3   7  -5    1.33    3.29
   3   7  -5    1.75    4.56
  -3  -7   5   -2.29    4.19
   2   7  -5    1.51    4.24
   2   7  -5    0.69    2.88
  -2  -7   5    4.29    2.08
  -2  -7   5    1.18    3.06
  -2  -7   5   -3.87    3.83
   1   7  -5    3.52    3.07
   1   7  -5   -1.64    3.57
  -1  -7   5    1.64    3.71
  -1  -7   5   -4.69    3.50
  -1  -7   5    0.25    1.10
   0   7  -5   14.98    3.48
   0   7  -5   11.58    4.02
   0  -7   5   16.36    3.54
   0  -7   5   16.93    3.40
  -1   7  -5   -1.72    3.65
  -1   7  -5   -2.10    3.48
   1  -7   5    3.45    2.54
   1  -7   5   -0.73    3.70
  -2   7  -5   -1.31    3.37
  -2   7  -5   -1.28    2.50
   2  -7   5   -0.95    3.59
  -3   7  -5   10.80    3.41
   3  -7   5   13.96    4.52
  -4   7  -5   21.83    5.03
   4  -7   5   17.81    4.38
  -5   7  -5   21.87    4.65
   5  -7   5   17.88    4.88
  -6   7  -5   19.05    5.05
   6  -7   5   15.46    5.15
   6   6  -5   -1.02    5.33
   6   6  -5    4.83    5.60
  -6  -6   5   -1.59    5.27
   5   6  -5    1.22    5.02
   5   6  -5    1.19    4.95
  -5  -6   5   -6.30    4.75
   4   6  -5    4.43    4.64
   4   6  -5    0.12    4.47
  -4  -6   5    6.17    3.52
   3   6  -5    8.04    3.50
   3   6  -5   -0.51    3.29
  -3  -6   5    5.04    4.02
  -3  -6   5    6.04    4.32
   2   6  -5   11.23    4.15
   2   6  -5    5.08    3.64
  -2  -6   5    2.01    2.73
  -2  -6   5    4.42    2.82
   1   6  -5    1.93    2.47
   1   6  -5    5.34    3.60
  -1  -6   5    3.27    2.57
  -1  -6   5    2.44    3.35
  -1  -6   5    7.65    1.32
  -1  -6   5    5.54    2.65
   0   6  -5   60.57    5.65
   0   6  -5   67.19    6.11
   0   6  -5   55.16    5.65
   0  -6   5   50.48    5.75
   0  -6   5   62.26    5.85
   0  -6   5   60.81    5.52
  -1   6  -5   91.11    7.31
  -1   6  -5   80.30    7.32
  -1   6  -5   81.43    7.26
   1  -6   5   87.00    7.41
   1  -6   5   73.20    6.54
   1  -6   5   87.12    7.47
  -2   6  -5    5.15    3.21
  -2   6  -5    5.99    2.53
   2  -6   5    3.15    2.59
   2  -6   5    4.15    2.56
  -3   6  -5    6.88    2.98
   3  -6   5    4.08    3.85
  -4   6  -5   53.47    6.74
   4  -6   5   56.54    6.56
  -5   6  -5    2.31    4.49
   5  -6   5    0.11    4.97
  -6   6  -5   -1.83    5.02
  -6   6  -5   10.65    3.63
   6  -6   5   -9.32    5.29
   6   5  -5    2.48    4.06
   6   5  -5    5.50    5.26
  -6  -5   5    3.32    5.48
   5   5  -5   -0.80    4.37
   5   5  -5   -2.44    4.56
  -5  -5   5    0.37    3.36
   4   5  -5    5.86    3.44
   4   5  -5    4.44    2.03
   4   5  -5   -1.26    4.25
  -4  -5   5    6.57    4.35
   3   5  -5    9.20    4.11
   3   5  -5   -3.51    3.68
  -3  -5   5    4.53    2.72
  -3  -5   5   -1.29    2.60
   2   5  -5   -2.40    2.42
   2   5  -5    0.61    2.32
  -2  -5   5    2.23    2.24
  -2  -5   5   -3.95    2.93
   1   5  -5    4.45    2.28
   1   5  -5    4.10    2.11
   1   5  -5    2.89    2.45
  -1  -5   5    1.36    2.04
  -1  -5   5    4.98    2.88
  -1  -5   5    5.09    2.34
   0   5  -5  137.20   10.38
   0   5  -5  149.87   10.43
   0   5  -5  139.00   10.29
   0  -5   5  162.34   10.72
   0  -5   5  142.68   10.66
   0  -5   5  140.68   10.03
  -1   5  -5  122.27    8.72
  -1   5  -5  116.46    8.44
  -1   5  -5  104.06    8.88
   1  -5   5  126.13    8.43
   1  -5   5  114.47    8.70
   1  -5   5  120.00    9.04
  -2   5  -5   13.65    2.87
  -2   5  -5   15.61    3.72
   2  -5   5   20.38    3.13
   2  -5   5   18.64    3.77
   2  -5   5   14.56    3.40
  -3   5  -5   -0.68    3.15
   3  -5   5    1.70    2.66
   3  -5   5   -3.73    3.24
  -4   5  -5   38.31    5.00
   4  -5   5   35.46    6.02
  -5   5  -5    4.62    3.14
  -5   5  -5    1.04    3.24
   5  -5   5    8.53    3.96
  -6   5  -5   -5.55    4.79
   6  -5   5   -4.35    5.46
   6   4  -5   -1.41    4.85
   6   4  -5   -3.47    4.35
  -6  -4   5    3.20    4.87
   5   4  -5    6.77    4.53
   5   4  -5    7.71    3.43
  -5  -4   5   -1.03    4.22
   4   4  -5   20.42    2.48
   4   4  -5   14.42    4.48
   4   4  -5   23.46    4.20
  -4  -4   5   18.80    4.53
  -4  -4   5   18.34    4.74
   3   4  -5  101.91    7.68
   3   4  -5   97.53    8.46
   3   4  -5  102.08    8.65
  -3  -4   5   95.71    8.32
  -3  -4   5   90.00    8.44
   2   4  -5    7.27    2.40
   2   4  -5   12.27    3.07
   2   4  -5   10.06    3.23
  -2  -4   5    2.91    2.87
  -2  -4   5    6.70    2.83
   1   4  -5   10.83    2.52
   1   4  -5   11.91    2.28
   1   4  -5   10.93    2.94
  -1  -4   5   16.01    2.60
  -1  -4   5   18.58    3.00
  -1  -4   5    9.98    2.72
   0   4  -5    6.00    2.72
   0   4  -5   14.48    2.70
   0   4  -5   11.81    2.51
   0  -4   5   10.45    2.65
   0  -4   5   12.09    2.54
   0  -4   5   19.67    2.94
  -1   4  -5  196.88   12.67
  -1   4  -5  187.71   12.31
  -1   4  -5  159.51   12.66
   1  -4   5  183.74   12.55
   1  -4   5  178.97   12.69
   1  -4   5  182.89   12.10
  -2   4  -5   10.20    2.93
  -2   4  -5    9.75    3.12
   2  -4   5   18.14    3.42
   2  -4   5   14.27    2.73
   2  -4   5   12.82    2.60
  -3   4  -5   18.67    3.20
   3  -4   5   17.91    3.61
   3  -4   5   17.76    3.80
  -4   4  -5   -1.40    3.80
   4  -4   5    1.15    3.25
  -5   4  -5    4.55    4.38
  -5   4  -5    1.61    2.76
   5  -4   5   -2.57    4.70
  -6   4  -5   -3.79    4.71
   6  -4   5    4.68    5.84
  -7   4  -5    7.13    5.95
   7  -4   5    1.23    4.96
   6   3  -5   -2.83    4.30
   6   3  -5    4.18    4.24
  -6  -3   5   -2.08    4.59
   5   3  -5   45.22    6.12
   5   3  -5   35.71    5.43
  -5  -3   5   32.29    5.58
   4   3  -5    5.63    2.86
   4   3  -5    0.03    2.84
   4   3  -5    3.40    1.45
  -4  -3   5    1.57    2.65
  -4  -3   5    5.44    3.76
   3   3  -5   42.02    4.06
   3   3  -5   41.92    4.94
   3   3  -5   49.27    5.23
  -3  -3   5   46.45    4.97
  -3  -3   5   42.13    4.51
   2   3  -5   47.44    4.64
   2   3  -5   47.86    4.28
   2   3  -5   56.30    4.84
   2   3  -5   42.69    4.44
  -2  -3   5   46.51    4.54
  -2  -3   5   44.29    4.46
   1   3  -5    0.39    1.59
   1   3  -5   -1.05    1.76
   1   3  -5   -1.23    2.07
  -1  -3   5   -0.38    1.78
  -1  -3   5   -0.01    2.07
  -1  -3   5   -0.67    2.15
   0   3  -5   72.08    6.02
   0   3  -5   83.47    5.11
   0   3  -5   78.99    6.06
   0   3  -5   82.63    5.87
   0  -3   5   81.33    6.18
   0  -3   5   79.29    6.13
  -1   3  -5   22.55    2.81
  -1   3  -5   34.06    3.43
   1  -3   5   28.80    3.41
   1  -3   5   27.72    2.90
   1  -3   5   22.72    3.04
  -2   3  -5   42.84    4.04
  -2   3  -5   34.36    4.48
   2  -3   5   42.39    4.70
   2  -3   5   47.12    4.55
   2  -3   5   49.48    4.52
  -3   3  -5    2.47    3.09
  -3   3  -5    0.05    2.93
  -3   3  -5    3.58    2.62
   3  -3   5   -3.81    3.26
   3  -3   5    1.65    3.12
  -4   3  -5    1.82    2.33
  -4   3  -5    1.10    3.60
   4  -3   5   -0.35    3.02
  -5   3  -5   17.87    4.21
  -5   3  -5   23.00    3.45
   5  -3   5   19.77    4.61
  -6   3  -5    2.21    3.69
   6  -3   5    0.57    4.22
  -7   3  -5    0.42    5.73
   7  -3   5    0.55    5.05
  -7  -2   5    6.06    5.37
   6   2  -5    4.39    4.53
  -6  -2   5    2.04    4.53
   5   2  -5    0.08    3.87
  -5  -2   5    0.23    2.71
  -5  -2   5   -7.44    3.42
   4   2  -5   -2.10    3.49
  -4  -2   5   -1.36    3.20
  -4  -2   5    1.52    3.19
   3   2  -5   29.74    3.88
   3   2  -5   25.16    2.75
   3   2  -5   19.54    3.47
   3   2  -5   25.26    3.31
  -3  -2   5   23.81    3.63
  -3  -2   5   26.31    3.74
   2   2  -5  160.43   10.45
   2   2  -5  155.76   10.89
   2   2  -5  166.78   10.32
   2   2  -5  129.15   10.52
  -2  -2   5  144.10   10.57
  -2  -2   5  152.66   10.58
   1   2  -5  199.85   13.24
   1   2  -5  230.85   13.67
   1   2  -5  166.70   13.59
   1   2  -5  209.93   14.57
  -1  -2   5  218.30   13.32
  -1  -2   5  208.92   13.68
  -1  -2   5  204.73   13.74
   0   2  -5    0.59    1.49
   0   2  -5   -2.60    2.39
   0   2  -5    0.98    1.19
   0   2  -5    1.56    1.51
   0   2  -5    3.17    1.96
   0  -2   5    3.07    1.45
   0  -2   5    0.15    1.41
   0  -2   5    0.11    1.63
  -1   2  -5   49.22    3.67
  -1   2  -5   47.42    4.08
  -1   2  -5   51.08    4.86
  -1   2  -5   43.22    4.29
   1  -2   5   43.07    3.83
   1  -2   5   46.62    4.30
   1  -2   5   47.03    4.29
  -2   2  -5   13.47    2.46
  -2   2  -5   15.09    2.76
  -2   2  -5   13.00    2.32
   2  -2   5   13.71    3.26
   2  -2   5   15.73    2.44
  -3   2  -5   16.54    2.94
  -3   2  -5   13.84    3.30
  -3   2  -5   16.35    3.01
   3  -2   5   13.89    2.79
   3  -2   5    6.86    3.48
  -4   2  -5   -1.69    2.51
  -4   2  -5    1.36    2.31
   4  -2   5    2.40    4.11
  -5   2  -5   25.24    4.48
  -5   2  -5   24.25    3.36
   5  -2   5   19.98    5.73
  -6   2  -5    1.09    4.72
   6  -2   5    4.67    5.83
  -7   2  -5    1.72    4.21
   7  -2   5    5.86    5.05
  -7  -1   5    9.61    5.58
   6   1  -5   10.51    4.50
  -6  -1   5   -1.40    3.17
   5   1  -5    6.15    3.89
  -5  -1   5    9.88    4.02
  -5  -1   5    7.59    3.09
   4   1  -5   48.07    5.62
  -4  -1   5   55.39    5.55
  -4  -1   5   46.63    5.05
   3   1  -5    0.41    1.85
   3   1  -5   -1.03    1.60
   3   1  -5    0.16    2.40
  -3  -1   5    2.14    2.24
  -3  -1   5    0.38    2.32
   2   1  -5   67.48    5.33
   2   1  -5   66.43    5.00
   2   1  -5   60.90    5.05
   2   1  -5   66.25    5.33
  -2  -1   5   68.06    5.34
  -2  -1   5   67.86    5.11
   1   1  -5   -0.11    2.01
   1   1  -5    2.30    1.06
   1   1  -5    1.66    1.58
   1   1  -5    2.83    1.72
  -1  -1   5    2.63    1.53
  -1  -1   5    2.48    1.32
  -1  -1   5    2.23    1.29
   0   1  -5   28.02    3.23
   0   1  -5   32.13    2.84
   0   1  -5   27.67    2.61
   0   1  -5   31.11    2.86
   0  -1   5   34.60    2.67
   0  -1   5   30.72    2.60
   0  -1   5   32.75    2.88
  -1   1  -5   14.64    2.25
  -1   1  -5   16.27    2.96
  -1   1  -5   24.29    2.58
  -1   1  -5   16.61    2.54
   1  -1   5   17.64    2.32
   1  -1   5   25.26    2.81
  -2   1  -5    0.22    1.85
  -2   1  -5   -0.15    2.26
  -2   1  -5   -0.66    2.10
   2  -1   5   -0.13    2.15
   2  -1   5    2.25    2.40
  -3   1  -5   52.85    4.94
  -3   1  -5   47.66    5.59
  -3   1  -5   58.00    5.52
   3  -1   5   51.88    5.47
   3  -1   5   53.05    5.25
  -4   1  -5   31.63    4.92
  -4   1  -5   34.16    3.87
   4  -1   5   28.40    4.79
  -5   1  -5    1.79    3.02
   5  -1   5   -3.04    4.86
  -6   1  -5    7.04    3.82
   6  -1   5    5.12    4.39
  -7   1  -5   -1.25    4.09
   7  -1   5    1.09    6.44
  -7   0   5   -8.06    4.28
   6   0  -5    4.96    3.88
  -6   0   5    2.16    3.28
   5   0  -5    5.70    3.84
  -5   0   5   11.67    4.06
  -5   0   5    8.96    3.90
   4   0  -5    2.35    3.15
  -4   0   5   -2.29    2.80
  -4   0   5    2.32    3.00
   3   0  -5    2.55    2.51
   3   0  -5    2.40    1.87
   3   0  -5    1.59    1.84
  -3   0   5    1.14    2.24
  -3   0   5    3.18    2.13
   2   0  -5   16.31    2.35
   2   0  -5   11.83    2.05
   2   0  -5   12.67    1.84
   2   0  -5   11.33    1.77
  -2   0   5   14.90    1.94
  -2   0   5   12.13    2.00
   1   0  -5  162.24    9.85
   1   0  -5  146.76    9.44
   1   0  -5  152.16   10.88
   1   0  -5  150.60    9.72
  -1   0   5  142.86    9.45
  -1   0   5  150.61    9.78
  -1   0   5  147.57    9.80
   0   0  -5   75.22    5.39
   0   0  -5   77.38    5.22
   0   0  -5   77.36    6.07
   0   0   5   78.82    5.31
   0   0   5   79.49    5.27
   0   0   5   77.01    5.32
  -1   0  -5   23.11    2.58
  -1   0  -5   23.64    2.69
  -1   0  -5   24.21    2.89
  -1   0  -5   25.41    2.91
   1   0   5   26.47    2.76
   1   0   5   21.75    2.59
  -2   0  -5    5.95    2.09
  -2   0  -5    3.97    1.72
  -2   0  -5    3.47    2.46
   2   0   5    5.57    2.31
   2   0   5    0.62    2.47
  -3   0  -5    6.73    2.37
  -3   0  -5    4.46    2.22
  -3   0  -5    7.79    2.71
   3   0   5   10.23    2.56
   3   0   5    4.51    3.36
  -4   0  -5   10.33    2.60
  -4   0  -5   12.96    4.05
   4   0   5   15.70    4.68
  -5   0  -5   27.31    4.79
   5   0   5   31.47    6.16
  -6   0  -5   -4.51    4.54
   6   0   5    0.69    5.60
  -7   0  -5    1.71    5.87
   7   0   5   -3.64    6.69
  -7   1   5    1.54    5.07
   6  -1  -5   -4.13    3.59
  -6   1   5    0.06    3.95
   5  -1  -5    3.30    3.35
  -5   1   5    1.07    3.50
  -5   1   5    1.29    3.53
   4  -1  -5   -1.23    2.72
  -4   1   5   -1.91    2.73
  -4   1   5    1.48    2.23
   3  -1  -5    1.40    2.00
   3  -1  -5    1.59    2.07
  -3   1   5   -0.01    1.97
  -3   1   5    2.94    2.50
   2  -1  -5    9.37    1.86
   2  -1  -5    8.98    2.44
  -2   1   5   11.15    1.79
  -2   1   5   10.66    1.68
   1  -1  -5    6.97    1.04
   1  -1  -5   13.07    2.43
   1  -1  -5    8.46    1.07
   1  -1  -5    8.82    2.13
  -1   1   5    7.62    1.23
   0  -1  -5  118.93    8.11
   0  -1  -5  124.68    8.18
   0  -1  -5  123.38    9.29
   0   1   5  121.59    8.18
   0   1   5  120.05    8.23
  -1  -1  -5    4.40    1.84
  -1  -1  -5    7.63    1.80
  -1  -1  -5    1.31    1.92
  -1  -1  -5   -0.19    2.30
   1   1   5    4.97    2.10
   1   1   5    5.49    1.83
  -2  -1  -5   -1.36    1.82
  -2  -1  -5   -1.94    2.08
  -2  -1  -5    3.04    2.31
   2   1   5    2.39    2.01
   2   1   5    2.08    2.28
  -3  -1  -5   31.67    4.55
  -3  -1  -5   32.20    4.30
  -3  -1  -5   37.61    4.12
   3   1   5   47.50    4.63
   3   1   5   37.90    5.10
  -4  -1  -5   -2.51    2.31
  -4  -1  -5   -1.28    2.67
   4   1   5    0.70    4.09
  -5  -1  -5   61.61    6.63
   5   1   5   47.37    7.42
  -6  -1  -5   11.73    5.28
   6   1   5    7.60    4.64
  -7   2   5    9.04    4.15
   6  -2  -5    0.01    3.64
  -6   2   5    1.93    4.23
   5  -2  -5    0.11    3.28
  -5   2   5    4.48    3.64
  -5   2   5    0.64    3.39
   4  -2  -5   -2.70    2.68
  -4   2   5    4.34    2.90
  -4   2   5   -1.73    2.76
   3  -2  -5   67.44    6.28
   3  -2  -5   86.49    6.24
  -3   2   5   88.17    6.53
  -3   2   5   80.84    6.45
   2  -2  -5    1.88    0.78
   2  -2  -5    2.29    1.68
   2  -2  -5    2.85    2.55
   2  -2  -5    0.30    1.34
  -2   2   5    2.17    1.58
  -2   2   5    0.58    1.72
   1  -2  -5  136.66    9.36
   1  -2  -5  140.84    9.28
   1  -2  -5  135.20   10.14
  -1   2   5  138.13    9.26
  -1   2   5  135.09    8.51
  -1   2   5  138.70    9.26
   0  -2  -5   -0.10    1.72
   0  -2  -5    2.81    2.78
   0  -2  -5    2.02    1.52
   0  -2  -5    1.20    1.57
   0   2   5    1.75    1.56
   0   2   5    0.18    1.72
  -1  -2  -5   11.89    2.28
  -1  -2  -5   15.39    2.36
  -1  -2  -5   11.32    2.88
  -1  -2  -5   10.16    2.38
   1   2   5   10.59    2.50
   1   2   5   15.13    2.36
  -2  -2  -5    8.20    2.39
  -2  -2  -5   15.52    3.10
  -2  -2  -5    4.30    2.50
  -2  -2  -5   10.17    2.18
   2   2   5    5.96    2.16
   2   2   5    5.58    2.95
  -3  -2  -5    7.97    2.87
  -3  -2  -5    8.51    2.72
   3   2   5   10.02    2.87
   3   2   5   13.79    4.09
  -4  -2  -5   44.98    6.08
   4   2   5   46.14    6.32
  -5  -2  -5   -1.15    3.04
   5   2   5    0.61    4.68
  -6  -2  -5    0.89    3.77
   6   2   5   -6.78    5.14
  -7   3   5    2.69    4.94
   6  -3  -5    0.37    3.74
  -6   3   5    2.06    4.32
   5  -3  -5   28.07    4.46
  -5   3   5   27.34    4.72
  -5   3   5   26.03    4.73
   4  -3  -5   30.15    3.40
   4  -3  -5   28.47    4.16
  -4   3   5   32.72    4.48
  -4   3   5   39.86    4.67
   3  -3  -5   22.07    3.38
   3  -3  -5   21.81    3.04
   3  -3  -5   24.36    2.39
  -3   3   5   22.82    3.22
  -3   3   5   22.75    3.31
   2  -3  -5    4.12    1.03
   2  -3  -5    2.59    2.75
   2  -3  -5    2.75    1.97
   2  -3  -5    2.84    1.98
  -2   3   5    2.98    1.94
   1  -3  -5   -1.85    2.28
   1  -3  -5    0.78    1.42
   1  -3  -5    2.50    1.83
  -1   3   5    1.37    1.49
  -1   3   5    1.15    1.83
  -1   3   5    1.93    1.14
   0  -3  -5   31.83    3.17
   0  -3  -5   26.84    3.50
   0  -3  -5   24.84    2.91
   0   3   5   26.12    2.98
   0   3   5   31.99    3.20
  -1  -3  -5  323.42   21.26
  -1  -3  -5  276.50   21.13
  -1  -3  -5  306.98   20.16
   1   3   5  349.96   21.37
   1   3   5  333.89   21.25
  -2  -3  -5   84.20    7.26
  -2  -3  -5   93.82    7.23
  -2  -3  -5   82.48    7.35
   2   3   5   76.59    7.42
   2   3   5   94.76    7.36
  -3  -3  -5    2.83    4.09
  -3  -3  -5    2.76    2.64
   3   3   5   -0.49    3.68
   3   3   5   -3.46    2.30
  -4  -3  -5    8.25    3.39
   4   3   5    4.48    3.59
  -5  -3  -5   71.27    7.74
   5   3   5   70.59    8.53
  -6  -3  -5   21.33    6.15
   6   3   5   11.01    4.81
  -7   4   5   -7.29    4.77
   6  -4  -5    4.29    3.80
  -6   4   5   16.76    4.84
   5  -4  -5   27.99    3.63
   5  -4  -5   37.32    4.96
  -5   4   5   26.06    4.75
  -5   4   5   29.54    5.02
   4  -4  -5    3.06    3.06
   4  -4  -5    3.06    2.05
  -4   4   5    2.93    3.01
  -4   4   5    4.03    3.20
   3  -4  -5    1.27    1.55
   3  -4  -5    0.44    2.27
   3  -4  -5    1.32    2.48
  -3   4   5   -1.26    2.35
  -3   4   5    5.02    2.64
   2  -4  -5   12.70    2.47
   2  -4  -5   14.26    3.44
   2  -4  -5   14.69    2.58
   2  -4  -5   13.63    1.79
  -2   4   5   13.48    2.45
  -2   4   5   18.25    2.77
   1  -4  -5    0.54    1.89
   1  -4  -5    0.40    1.96
   1  -4  -5    0.12    1.90
  -1   4   5    4.54    2.13
  -1   4   5   -0.58    1.79
  -1   4   5    2.58    1.51
   0  -4  -5    2.64    2.18
   0  -4  -5    3.71    2.15
   0  -4  -5    5.25    2.62
   0   4   5    2.50    2.09
   0   4   5    3.99    1.92
   0   4   5    2.18    2.30
  -1  -4  -5    9.05    3.06
  -1  -4  -5    8.70    2.78
  -1  -4  -5    6.50    2.65
   1   4   5    6.92    3.00
   1   4   5    6.85    2.59
  -2  -4  -5   15.91    3.78
  -2  -4  -5   25.75    4.27
   2   4   5   16.02    3.93
   2   4   5   21.98    3.82
  -3  -4  -5   72.67    7.72
  -3  -4  -5   82.20    7.85
   3   4   5   83.61    8.04
  -4  -4  -5   -2.53    3.03
  -4  -4  -5   11.34    4.90
   4   4   5   -0.07    4.25
  -5  -4  -5   22.78    5.62
   5   4   5   11.38    4.40
  -6  -4  -5    7.16    4.40
   6   4   5   -1.39    5.86
  -7   5   5   -7.32    4.79
   6  -5  -5    2.34    3.86
  -6   5   5    1.47    4.43
   5  -5  -5    7.29    2.44
   5  -5  -5   -1.80    3.24
  -5   5   5    4.49    3.66
  -5   5   5    9.25    3.89
   4  -5  -5    1.40    3.13
   4  -5  -5    3.04    2.08
  -4   5   5   -0.40    3.23
  -4   5   5    4.18    3.34
   3  -5  -5   43.37    3.99
   3  -5  -5   43.27    4.90
  -3   5   5   45.46    4.94
  -3   5   5   47.42    5.14
   2  -5  -5    0.32    2.98
   2  -5  -5    1.09    1.73
   2  -5  -5    2.35    2.65
   2  -5  -5    1.10    2.35
  -2   5   5   -1.10    2.28
  -2   5   5    0.70    1.67
  -2   5   5   -0.51    2.20
   1  -5  -5   77.13    6.43
   1  -5  -5   98.95    7.00
   1  -5  -5   84.96    6.92
  -1   5   5   85.91    7.04
  -1   5   5   82.18    6.30
  -1   5   5   87.45    6.85
   0  -5  -5   20.34    3.15
   0  -5  -5   11.75    3.24
   0  -5  -5   13.59    2.94
   0   5   5   10.22    2.81
   0   5   5   13.81    3.03
   0   5   5   11.24    2.80
  -1  -5  -5    2.14    2.91
  -1  -5  -5    5.52    3.20
  -1  -5  -5   -0.24    2.76
   1   5   5    2.97    2.23
   1   5   5   -0.04    1.93
  -2  -5  -5   70.74    6.97
  -2  -5  -5   76.73    7.40
   2   5   5   92.85    8.09
   2   5   5   89.31    7.62
  -3  -5  -5   18.96    4.02
  -3  -5  -5   24.70    4.24
   3   5   5   13.73    5.12
  -4  -5  -5   10.31    3.83
  -4  -5  -5   10.56    5.30
   4   5   5   20.24    5.35
  -5  -5  -5    4.97    5.33
  -5  -5  -5   11.48    5.89
   5   5   5   11.66    5.70
  -6  -5  -5   -4.66    6.17
  -6  -5  -5    9.05    6.18
   6   5   5    5.78    4.88
   6  -6  -5    4.82    4.08
  -6   6   5    4.43    4.58
   5  -6  -5    7.78    3.83
  -5   6   5    2.10    3.98
   4  -6  -5    7.77    2.45
   4  -6  -5    2.31    3.44
  -4   6   5    6.80    3.73
  -4   6   5    3.99    3.49
   3  -6  -5    6.52    2.33
   3  -6  -5    5.07    3.27
  -3   6   5    5.97    3.40
   2  -6  -5    6.04    2.91
   2  -6  -5    2.92    3.45
   2  -6  -5    6.35    2.26
  -2   6   5    4.03    3.03
  -2   6   5    4.58    2.09
  -2   6   5    2.18    2.80
   1  -6  -5    4.65    3.05
   1  -6  -5    2.33    2.88
  -1   6   5    3.29    3.02
  -1   6   5    6.69    2.13
  -1   6   5    3.17    2.46
   0  -6  -5   -0.40    2.93
   0  -6  -5    2.25    2.86
   0   6   5    2.31    3.00
   0   6   5    6.25    2.95
   0   6   5    1.13    2.67
  -1  -6  -5   38.58    5.05
  -1  -6  -5   46.65    4.95
   1   6   5   48.20    4.93
   1   6   5   39.58    5.34
   1   6   5   44.81    5.25
  -2  -6  -5   36.25    4.84
  -2  -6  -5   30.54    4.41
   2   6   5   32.17    5.68
   2   6   5   33.28    5.05
  -3  -6  -5   -1.05    3.94
  -3  -6  -5    1.29    4.25
   3   6   5   -3.48    4.47
  -4  -6  -5   48.65    6.42
  -4  -6  -5   48.77    6.98
   4   6   5   48.69    6.60
  -5  -6  -5    4.14    5.80
  -5  -6  -5   -1.38    4.00
   5   6   5   -1.91    5.39
   6  -7  -5   11.00    4.61
  -6   7   5   10.51    5.05
   5  -7  -5   10.09    3.97
  -5   7   5    1.82    4.16
   4  -7  -5    9.12    2.66
   4  -7  -5    0.93    3.43
  -4   7   5    6.98    3.73
  -4   7   5    7.07    3.75
   3  -7  -5    9.25    2.76
   3  -7  -5    2.88    3.45
  -3   7   5    4.81    3.24
  -3   7   5    2.86    3.47
   2  -7  -5    5.43    2.58
   2  -7  -5   10.58    3.80
   2  -7  -5    7.44    3.43
  -2   7   5    5.26    3.36
  -2   7   5    5.05    3.26
  -2   7   5    7.97    2.79
   1  -7  -5   -2.30    3.13
   1  -7  -5    1.77    3.34
  -1   7   5    0.40    2.97
  -1   7   5    2.11    3.40
  -1   7   5   -2.12    2.49
   0  -7  -5   65.56    6.37
   0  -7  -5   63.00    6.80
   0   7   5   75.07    6.49
   0   7   5   67.56    6.36
   0   7   5   76.23    6.93
  -1  -7  -5   -2.67    3.27
  -1  -7  -5   -0.04    3.68
   1   7   5   -0.17    3.60
   1   7   5    2.72    3.43
   1   7   5   -2.33    3.61
  -2  -7  -5   -0.80    4.15
  -2  -7  -5    1.27    2.89
   2   7   5   12.53    3.83
   2   7   5    4.16    3.36
  -3  -7  -5   -0.76    4.20
  -3  -7  -5    7.84    4.88
   3   7   5   -5.26    3.21
   3   7   5   -7.73    3.00
  -4  -7  -5    0.51    3.69
  -4  -7  -5    0.65    5.07
   4   7   5    1.42    5.34
  -5  -7  -5   15.11    6.22
  -5  -7  -5    2.83    5.74
   5   7   5    2.73    6.18
  -6   8   5   -1.14    4.82
   5  -8  -5    3.98    3.92
  -5   8   5   -2.91    4.01
   4  -8  -5    5.41    3.83
  -4   8   5    5.15    3.83
   3  -8  -5   14.48    3.85
   3  -8  -5   10.00    3.05
  -3   8   5    6.79    2.70
  -3   8   5   11.23    3.86
  -3   8   5    8.62    3.76
   2  -8  -5   13.20    3.32
   2  -8  -5    6.13    3.86
   2  -8  -5    7.42    3.15
  -2   8   5   14.47    3.41
  -2   8   5    5.14    2.93
  -2   8   5   10.66    3.78
   1  -8  -5  118.52    9.39
   1  -8  -5  118.87   10.24
  -1   8   5  116.29    9.67
  -1   8   5  111.83    9.16
  -1   8   5  139.35   10.11
   0  -8  -5   -0.76    2.78
   0  -8  -5    1.14    3.36
   0   8   5   -5.61    3.25
   0   8   5    6.40    3.97
   0   8   5    2.44    3.32
  -1  -8  -5   -5.32    3.18
  -1  -8  -5   -7.15    3.78
   1   8   5   -1.32    4.03
   1   8   5   -4.35    2.73
  -2  -8  -5   28.28    4.86
  -2  -8  -5   19.54    4.55
   2   8   5   21.61    5.37
   2   8   5   24.34    5.77
  -3  -8  -5    8.23    4.05
  -3  -8  -5    6.41    4.49
   3   8   5   -1.04    5.04
   3   8   5   -3.61    4.89
  -4  -8  -5    0.62    4.71
  -4  -8  -5    1.93    4.02
   4   8   5    1.88    5.76
   4   8   5    6.91    4.35
   5  -9  -5    6.59    4.23
  -5   9   5   -2.09    4.39
   4  -9  -5    2.49    2.93
  -4   9   5    0.79    3.15
   3  -9  -5   -1.06    2.73
  -3   9   5    1.82    2.87
  -3   9   5   -1.77    2.86
   2  -9  -5   26.98    4.60
   2  -9  -5   16.05    4.61
  -2   9   5   25.61    4.08
  -2   9   5   17.58    4.73
   1  -9  -5    7.21    3.56
   1  -9  -5    7.73    4.13
  -1   9   5    3.85    4.10
  -1   9   5    2.63    3.28
   0  -9  -5    9.73    3.92
   0  -9  -5    7.62    4.36
   0   9   5   11.14    3.71
   0   9   5    8.14    3.55
  -1  -9  -5    2.80    3.29
  -1  -9  -5    3.41    3.44
   1   9   5    4.55    3.39
   1   9   5    3.03    4.06
  -2  -9  -5    0.41    3.44
  -2  -9  -5    5.23    3.86
   2   9   5   -3.46    4.72
   2   9   5   -2.53    3.40
  -3  -9  -5   -1.33    4.04
  -3  -9  -5   -7.10    3.33
   3   9   5   -3.49    3.68
   3   9   5    5.61    4.19
  -4  -9  -5    2.78    4.37
  -4  -9  -5    3.16    5.27
   4   9   5   -3.43    5.84
   4   9   5    4.31    5.95
  -5  10   5    6.99    5.13
   4 -10  -5    7.21    3.48
   3 -10  -5    7.76    4.38
  -3  10   5    8.18    3.43
  -3  10   5    9.55    4.41
   2 -10  -5   -1.82    3.58
   2 -10  -5   13.61    4.60
  -2  10   5    5.77    3.58
  -2  10   5   -3.25    3.94
   1 -10  -5    2.24    4.40
   1 -10  -5   -1.05    3.46
  -1  10   5    0.96    3.41
  -1  10   5    0.60    4.08
   0 -10  -5    6.96    3.75
   0 -10  -5    5.95    4.51
   0  10   5    1.83    4.15
   0  10   5    2.20    3.89
  -1 -10  -5   11.23    5.12
  -1 -10  -5    4.09    4.13
   1  10   5    5.09    4.52
   1  10   5   12.10    4.08
  -2 -10  -5    1.74    3.72
  -2 -10  -5   -1.06    3.75
   2  10   5   -0.44    4.69
   2  10   5   -3.29    5.09
  -3 -10  -5    4.61    5.51
  -3 -10  -5    4.89    4.58
   3  10   5   -3.74    3.99
   3  10   5   -1.59    4.03
   4 -11  -5    9.09    5.03
   3 -11  -5   -1.34    3.20
  -3  11   5    5.57    3.65
  -3  11   5    4.20    4.56
   2 -11  -5    1.42    3.76
   2 -11  -5    8.73    4.80
  -2  11   5    2.24    3.31
  -2  11   5   -1.36    3.68
   1 -11  -5   -3.20    4.47
   1 -11  -5    3.85    3.60
  -1  11   5    1.46    3.73
  -1  11   5    6.67    3.69
   0 -11  -5    5.12    4.98
   0 -11  -5    4.90    3.61
   0  11   5   -0.30    4.78
   0  11   5    6.27    4.33
  -1 -11  -5   -1.24    4.76
  -1 -11  -5    0.09    3.90
   1  11   5    7.34    4.76
   1  11   5    2.47    5.20
  -2 -11  -5    1.48    4.01
  -2 -11  -5    5.64    5.64
   2  11   5   -3.09    5.08
   2  11   5   -2.90    5.30
   3 -12  -5    6.40    4.78
  -3  12   5    2.38    4.85
   2 -12  -5   -5.91    4.47
   2 -12  -5    1.46    3.82
  -2  12   5    2.94    5.02
  -2  12   5    1.29    3.86
   1 -12  -5   -0.97    3.59
   1 -12  -5    0.38    3.94
  -1  12   5    5.07    4.15
  -1  12   5    1.66    4.85
   0 -12  -5    6.99    4.20
   0 -12  -5    8.78    5.49
   0  12   5    1.56    4.44
   0  12   5   -0.44    5.06
  -1 -12  -5   16.60    5.90
  -1 -12  -5   14.00    4.63
   1  12   5   16.99    5.22
   1  12   5    7.00    4.22
   1  13  -6   14.16    6.40
   1  13  -6    8.00    6.07
  -1 -13   6   13.47    6.73
   0  13  -6  -10.23    5.02
   0  13  -6    6.17    5.89
   0 -13   6    0.72    6.14
  -1  13  -6   -0.33    5.41
  -1  13  -6    1.68    4.12
   1 -13   6   11.79    6.61
  -2  13  -6    3.28    5.52
  -2  13  -6    1.66    5.17
   2 -13   6   -2.82    6.02
   2  12  -6    9.68    6.09
   2  12  -6    2.80    4.42
  -2 -12   6    4.55    4.80
   1  12  -6    0.76    5.26
   1  12  -6   -2.98    5.15
  -1 -12   6    7.77    4.56
   0  12  -6   12.21    5.58
   0  12  -6   18.00    4.88
   0 -12   6   16.85    5.10
  -1  12  -6    5.75    5.17
  -1  12  -6   -1.19    3.61
   1 -12   6   -2.43    4.10
  -2  12  -6   10.42    4.44
  -2  12  -6    8.70    4.28
   2 -12   6    5.88    5.81
  -3  12  -6   -6.66    5.04
   3 -12   6   -0.40    4.11
  -4  12  -6    6.89    6.26
   4 -12   6    4.03    6.16
   3  11  -6    3.15    4.61
   3  11  -6    6.97    4.60
  -3 -11   6   -1.08    5.97
   2  11  -6    2.39    5.29
   2  11  -6   -7.60    5.04
  -2 -11   6   -2.86    5.52
   1  11  -6   -4.11    4.74
   1  11  -6    7.37    5.22
  -1 -11   6    2.49    4.09
   0  11  -6    2.30    4.78
   0  11  -6    5.21    3.72
   0 -11   6    6.84    4.15
  -1  11  -6    5.28    4.85
  -1  11  -6   -0.14    4.64
   1 -11   6   10.34    5.55
  -2  11  -6    1.15    3.51
  -2  11  -6    8.41    5.03
   2 -11   6   -3.12    5.20
  -3  11  -6    7.81    3.98
   3 -11   6    2.08    5.32
  -4  11  -6   -0.99    3.93
   4 -11   6    6.27    4.46
   4  10  -6    7.52    4.84
   4  10  -6    2.03    5.91
  -4 -10   6    6.50    6.12
   3  10  -6    4.68    5.57
   3  10  -6    3.75    5.42
  -3 -10   6    6.83    5.59
   2  10  -6    5.64    5.18
   2  10  -6   -6.61    4.75
  -2 -10   6   -0.82    3.75
   1  10  -6   -0.49    4.54
   1  10  -6    4.08    4.73
  -1 -10   6   -1.08    3.51
   0  10  -6    4.43    4.65
   0  10  -6    2.42    4.43
   0 -10   6    5.03    4.97
  -1  10  -6   79.10    7.97
  -1  10  -6   58.05    7.69
   1 -10   6   70.06    8.30
  -2  10  -6   12.96    5.01
  -2  10  -6    9.96    4.90
   2 -10   6   19.52    5.50
  -3  10  -6   23.99    5.55
   3 -10   6   23.18    5.00
  -4  10  -6   14.72    4.53
   4 -10   6   16.49    5.78
  -5  10  -6    3.86    5.48
   5 -10   6    9.89    4.67
   4   9  -6    6.08    6.00
   4   9  -6    8.85    5.95
  -4  -9   6    9.69    5.79
   3   9  -6   12.22    4.26
   3   9  -6    8.38    5.40
  -3  -9   6    3.14    3.92
   2   9  -6    5.56    4.48
   2   9  -6    3.26    4.60
  -2  -9   6    3.55    4.94
   1   9  -6   -3.66    4.31
   1   9  -6    4.44    3.59
  -1  -9   6    5.26    4.44
   0   9  -6    1.50    4.31
   0   9  -6   -8.39    3.99
   0  -9   6   -4.75    3.17
  -1   9  -6    3.62    4.39
  -1   9  -6    1.95    4.30
   1  -9   6   -8.30    4.28
  -2   9  -6    5.29    3.32
  -2   9  -6    4.77    3.27
   2  -9   6    2.13    4.44
  -3   9  -6  -11.74    3.93
   3  -9   6    1.50    4.48
  -4   9  -6   -6.09    3.01
   4  -9   6    1.39    4.88
  -5   9  -6   -4.65    4.84
   5  -9   6    0.09    5.46
   5   8  -6   -1.28    4.15
   5   8  -6    2.09    4.25
  -5  -8   6   -1.81    4.01
   4   8  -6   51.32    7.47
   4   8  -6   33.82    6.80
  -4  -8   6   30.16    6.66
   3   8  -6   -3.94    4.46
   3   8  -6   -1.88    4.31
  -3  -8   6   -3.49    3.19
   2   8  -6   24.62    5.33
   2   8  -6   30.96    5.48
  -2  -8   6   20.82    2.75
  -2  -8   6   26.26    5.51
   1   8  -6   -7.19    3.94
   1   8  -6    5.62    4.44
  -1  -8   6   -0.84    4.08
   0   8  -6   -2.58    2.78
   0   8  -6    4.73    3.10
   0  -8   6    3.27    4.22
   0  -8   6   -0.78    2.78
  -1   8  -6   51.43    5.79
  -1   8  -6   58.83    6.08
   1  -8   6   55.14    6.75
  -2   8  -6    0.03    2.83
  -2   8  -6   -1.27    3.89
   2  -8   6   -2.14    3.01
  -3   8  -6    2.59    4.30
   3  -8   6   -1.30    3.24
  -4   8  -6    6.68    4.61
   4  -8   6    4.91    3.72
  -5   8  -6    0.51    4.70
   5  -8   6   19.42    6.00
  -6   8  -6   -3.08    5.36
   6  -8   6   12.80    6.61
   5   7  -6   -5.10    5.24
   5   7  -6   -0.29    3.76
  -5  -7   6    8.16    5.48
   4   7  -6   23.36    5.88
   4   7  -6   20.27    5.68
  -4  -7   6   31.98    5.96
   3   7  -6   -2.76    4.11
   3   7  -6   -3.50    3.11
  -3  -7   6   -5.56    2.86
   2   7  -6    0.45    4.07
   2   7  -6    4.75    4.03
  -2  -7   6    0.30    3.78
  -2  -7   6   -0.96    2.86
   1   7  -6   11.12    4.31
   1   7  -6    6.29    3.97
  -1  -7   6   11.49    1.01
  -1  -7   6    8.48    3.96
  -1  -7   6    7.27    3.10
   0   7  -6    1.88    2.71
   0   7  -6    1.84    3.67
   0  -7   6   -0.76    2.54
   0  -7   6    3.40    3.52
  -1   7  -6    8.01    3.05
  -1   7  -6    9.61    4.07
   1  -7   6   21.09    4.28
   1  -7   6   14.28    3.92
  -2   7  -6    9.90    3.22
  -2   7  -6   10.91    4.02
   2  -7   6   15.55    3.32
   2  -7   6   18.62    4.47
  -3   7  -6    1.55    3.10
   3  -7   6   14.49    4.45
  -4   7  -6    1.52    3.12
   4  -7   6    0.51    4.51
  -5   7  -6   -0.76    4.50
   5  -7   6   -1.12    3.66
  -6   7  -6    2.78    3.54
  -6   7  -6   -2.29    5.09
   6  -7   6    1.90    5.76
   6   6  -6    4.31    5.62
  -6  -6   6    1.66    5.68
   5   6  -6    4.91    4.95
   5   6  -6    7.40    4.01
  -5  -6   6    5.45    4.99
   4   6  -6   -0.90    2.20
   4   6  -6   -3.43    4.24
   4   6  -6    0.22    4.48
  -4  -6   6   -2.06    4.00
   3   6  -6    4.68    4.47
   3   6  -6   19.48    4.74
  -3  -6   6    8.18    4.42
  -3  -6   6    3.26    3.99
   2   6  -6   15.85    4.18
   2   6  -6   16.12    3.60
  -2  -6   6   18.04    3.53
  -2  -6   6   25.87    4.50
   1   6  -6    3.61    3.27
   1   6  -6    3.29    3.44
  -1  -6   6    1.12    0.92
  -1  -6   6    2.78    3.29
  -1  -6   6    3.94    3.35
   0   6  -6   -2.61    3.03
   0   6  -6    1.32    2.60
   0   6  -6   -3.80    2.87
   0  -6   6    1.12    2.27
   0  -6   6    2.24    2.24
   0  -6   6    3.69    2.39
  -1   6  -6   66.91    6.64
  -1   6  -6   71.35    4.52
  -1   6  -6   71.81    6.18
   1  -6   6   70.79    6.76
   1  -6   6   71.88    6.86
  -2   6  -6   -0.70    3.43
   2  -6   6    1.73    3.38
   2  -6   6    1.72    2.52
  -3   6  -6    3.32    2.81
   3  -6   6    2.65    2.93
  -4   6  -6    9.28    3.51
   4  -6   6   11.88    5.06
  -5   6  -6   11.40    4.83
   5  -6   6    3.53    4.03
  -6   6  -6    8.29    3.51
  -6   6  -6   -2.06    3.63
   6  -6   6   -0.19    4.12
   6   5  -6    4.81    5.28
   6   5  -6   -6.54    4.52
  -6  -5   6   -0.47    5.01
   5   5  -6    4.88    4.81
   5   5  -6    5.94    5.07
  -5  -5   6   12.36    5.06
   4   5  -6    1.90    4.33
   4   5  -6    1.71    2.01
   4   5  -6   -0.05    3.11
  -4  -5   6    1.97    3.94
  -4  -5   6   -2.75    3.60
   3   5  -6   -0.39    3.66
   3   5  -6    5.98    3.70
  -3  -5   6    5.41    2.90
  -3  -5   6    3.35    3.51
   2   5  -6    7.85    3.47
   2   5  -6    2.83    3.19
  -2  -5   6   -2.87    2.91
  -2  -5   6   -1.09    3.02
   1   5  -6    4.11    2.34
   1   5  -6    4.37    2.45
   1   5  -6    4.90    2.21
  -1  -5   6    6.54    2.74
  -1  -5   6    7.11    2.89
  -1  -5   6    5.50    3.08
   0   5  -6    9.10    2.73
   0   5  -6    0.36    2.80
   0   5  -6   13.12    2.68
   0  -5   6    7.67    2.78
   0  -5   6    9.38    2.27
   0  -5   6   10.72    2.41
  -1   5  -6   16.62    1.69
  -1   5  -6   16.05    3.06
  -1   5  -6   13.91    3.08
  -1   5  -6   19.20    3.55
   1  -5   6   18.18    3.40
   1  -5   6   15.24    2.82
   1  -5   6   19.06    2.89
  -2   5  -6    1.60    3.06
  -2   5  -6   -1.39    2.09
  -2   5  -6   -2.30    2.75
   2  -5   6    2.36    2.33
   2  -5   6   -3.56    2.77
   2  -5   6   -1.32    2.03
  -3   5  -6   34.49    4.88
   3  -5   6   25.99    4.74
   3  -5   6   37.00    5.45
  -4   5  -6    0.70    3.88
   4  -5   6    5.05    3.60
  -5   5  -6   23.92    4.14
  -5   5  -6   16.73    5.16
   5  -5   6   29.78    5.21
  -6   5  -6   -1.15    3.63
   6  -5   6    9.02    4.60
   6   4  -6    3.89    4.88
   6   4  -6    1.75    4.55
  -6  -4   6   -0.63    4.96
   5   4  -6   -4.79    3.91
   5   4  -6   -2.39    4.12
  -5  -4   6    1.81    3.19
   4   4  -6   29.46    4.54
   4   4  -6   27.87    3.26
   4   4  -6   32.98    5.38
  -4  -4   6   30.86    5.05
  -4  -4   6   38.52    5.20
   3   4  -6    1.76    3.53
   3   4  -6   -0.39    2.21
   3   4  -6   -3.30    3.13
  -3  -4   6    2.45    3.01
  -3  -4   6    0.44    3.26
   2   4  -6    1.52    2.65
   2   4  -6    0.86    2.92
   2   4  -6   -0.53    1.93
  -2  -4   6    3.07    2.54
  -2  -4   6    6.44    2.59
   1   4  -6    4.31    2.37
   1   4  -6    3.43    2.02
   1   4  -6    5.39    2.07
  -1  -4   6    5.60    2.47
  -1  -4   6    4.50    2.75
  -1  -4   6    4.85    2.43
   0   4  -6   91.15    7.15
   0   4  -6   95.50    7.20
   0   4  -6   88.54    6.89
   0  -4   6   90.49    7.22
   0  -4   6  105.49    7.30
   0  -4   6   94.91    7.25
  -1   4  -6   41.92    3.33
  -1   4  -6   36.40    4.13
  -1   4  -6   44.96    4.47
  -1   4  -6   44.26    4.18
   1  -4   6   56.01    4.70
   1  -4   6   43.65    4.53
   1  -4   6   37.82    4.30
  -2   4  -6   13.00    3.24
  -2   4  -6   13.30    2.53
   2  -4   6   11.81    2.59
   2  -4   6   14.04    2.74
   2  -4   6   12.37    3.13
  -3   4  -6   -1.96    2.26
   3  -4   6    1.61    3.84
   3  -4   6    0.96    3.15
  -4   4  -6    4.35    3.57
  -4   4  -6    4.12    3.84
   4  -4   6   -3.09    4.29
  -5   4  -6   12.11    3.84
  -5   4  -6    7.72    2.87
   5  -4   6    7.63    5.26
  -6   4  -6   -1.84    3.51
   6  -4   6    8.09    4.54
   6   3  -6   -5.02    4.18
   6   3  -6    5.31    4.38
  -6  -3   6    3.00    4.57
   5   3  -6   -0.84    3.85
   5   3  -6   -1.98    3.71
  -5  -3   6   -4.13    2.75
   4   3  -6    6.98    3.73
   4   3  -6    4.16    3.41
   4   3  -6    2.12    1.81
  -4  -3   6    2.77    3.50
  -4  -3   6   -0.12    3.43
   3   3  -6    9.66    2.69
   3   3  -6   11.11    3.26
   3   3  -6   13.07    2.39
  -3  -3   6    9.60    3.06
  -3  -3   6    8.08    3.05
   2   3  -6   77.03    6.38
   2   3  -6   80.13    6.89
   2   3  -6   78.81    6.69
   2   3  -6   85.74    6.92
  -2  -3   6   90.33    6.74
  -2  -3   6   99.21    6.82
   1   3  -6   26.83    2.92
   1   3  -6   34.05    3.88
   1   3  -6   26.48    3.31
   1   3  -6   27.31    3.20
  -1  -3   6   30.05    3.12
  -1  -3   6   31.19    3.49
  -1  -3   6   25.40    3.21
   0   3  -6   15.55    2.43
   0   3  -6   18.64    2.37
   0   3  -6   21.56    1.78
   0   3  -6   16.19    2.70
   0  -3   6   19.59    2.40
   0  -3   6   12.85    2.33
   0  -3   6   17.75    2.60
  -1   3  -6   20.36    2.61
  -1   3  -6   16.83    2.12
  -1   3  -6   15.53    2.97
  -1   3  -6   18.23    2.72
   1  -3   6   14.07    2.72
   1  -3   6   23.33    2.76
   1  -3   6   19.72    2.81
  -2   3  -6   -1.74    2.27
  -2   3  -6   -2.43    2.61
  -2   3  -6   -0.64    2.41
   2  -3   6   -2.46    2.59
   2  -3   6    4.72    2.47
   2  -3   6    2.84    2.61
  -3   3  -6   23.85    3.64
  -3   3  -6   16.43    3.73
   3  -3   6   23.84    3.83
  -4   3  -6    6.15    2.81
  -4   3  -6    3.54    3.85
   4  -3   6   13.15    4.70
  -5   3  -6   66.23    7.67
  -5   3  -6   67.54    6.31
   5  -3   6   71.74    7.71
  -6   3  -6    0.31    4.84
   6  -3   6   -2.65    4.19
  -7   3  -6    8.69    4.67
   7  -3   6   -9.55    4.53
   7   2  -6   -5.54    4.49
  -7  -2   6   16.69    5.89
   6   2  -6   -5.67    3.97
  -6  -2   6   -3.25    4.28
   5   2  -6   -0.57    3.68
  -5  -2   6   -0.67    3.72
  -5  -2   6    6.04    3.63
   4   2  -6    5.34    3.14
   4   2  -6    5.03    1.86
   4   2  -6    6.34    3.54
  -4  -2   6    5.52    3.34
  -4  -2   6    3.51    3.11
   3   2  -6    3.84    2.20
   3   2  -6    7.34    2.80
   3   2  -6    5.43    2.00
   3   2  -6    7.59    2.69
  -3  -2   6    4.79    2.57
  -3  -2   6    6.41    2.68
   2   2  -6   99.27    6.91
   2   2  -6   73.43    6.89
   2   2  -6  101.87    7.27
   2   2  -6  102.73    6.94
  -2  -2   6   90.00    6.99
  -2  -2   6  101.68    7.20
   1   2  -6  220.23   14.91
   1   2  -6  219.67   16.04
   1   2  -6  246.48   15.03
   1   2  -6  217.08   14.51
  -1  -2   6  226.10   15.02
  -1  -2   6  223.16   14.56
  -1  -2   6  228.56   15.03
   0   2  -6    0.65    1.29
   0   2  -6    1.09    1.41
   0   2  -6    1.28    1.86
   0   2  -6    1.47    2.50
   0   2  -6    1.72    1.33
   0  -2   6    1.39    1.56
   0  -2   6    1.40    1.35
   0  -2   6    2.37    1.90
  -1   2  -6   25.60    3.57
  -1   2  -6   26.92    2.72
  -1   2  -6   18.99    2.67
  -1   2  -6   30.83    3.08
   1  -2   6   28.22    2.94
   1  -2   6   28.86    3.04
   1  -2   6   24.79    2.94
  -2   2  -6    2.28    2.21
  -2   2  -6    0.91    2.39
  -2   2  -6   -1.86    2.30
   2  -2   6    1.66    1.73
   2  -2   6    3.73    2.66
   2  -2   6    1.16    1.92
  -3   2  -6    8.33    2.85
  -3   2  -6    1.58    2.90
   3  -2   6   -1.00    2.07
   3  -2   6    2.94    2.51
  -4   2  -6    3.29    3.70
  -4   2  -6    3.88    2.79
   4  -2   6    7.02    4.53
  -5   2  -6    1.46    4.17
  -5   2  -6   -0.77    2.45
   5  -2   6    3.40    3.72
  -6   2  -6   -0.07    3.46
   6  -2   6    3.17    6.16
  -7   2  -6    1.92    5.62
   7  -2   6    0.35    4.94
  -7  -1   6    6.98    5.21
   6   1  -6    1.93    4.03
  -6  -1   6    0.72    4.28
   5   1  -6   -3.92    3.10
  -5  -1   6   -6.24    3.09
  -5  -1   6   -2.67    3.54
   4   1  -6  155.76   11.35
  -4  -1   6  148.37   11.28
  -4  -1   6  143.85   11.21
   3   1  -6    1.20    2.37
   3   1  -6   -1.40    2.23
   3   1  -6   -0.29    1.90
   3   1  -6   -2.23    1.97
  -3  -1   6    1.61    2.18
  -3  -1   6   -0.91    2.10
   2   1  -6  104.65    7.98
   2   1  -6  107.76    7.27
   2   1  -6  118.17    7.63
   2   1  -6  100.08    7.39
  -2  -1   6  103.23    7.57
  -2  -1   6  104.67    7.62
   1   1  -6  123.23    8.01
   1   1  -6  122.17    8.05
   1   1  -6  124.63    9.17
   1   1  -6  126.77    8.15
  -1  -1   6  114.69    8.17
  -1  -1   6  119.72    8.18
  -1  -1   6  126.37    8.06
   0   1  -6   -1.17    1.75
   0   1  -6    0.64    1.79
   0   1  -6   -0.02    1.06
   0   1  -6    0.62    1.64
   0  -1   6   -0.03    1.14
   0  -1   6   -0.02    1.55
   0  -1   6    1.11    1.25
  -1   1  -6  174.42   12.95
  -1   1  -6  166.33   11.97
  -1   1  -6  185.17   12.15
  -1   1  -6  187.84   11.56
   1  -1   6  180.61   12.05
   1  -1   6  176.31   12.13
  -2   1  -6   62.29    5.27
  -2   1  -6   59.07    5.37
  -2   1  -6   68.47    5.53
   2  -1   6   56.84    4.92
   2  -1   6   54.47    5.04
  -3   1  -6    3.26    2.21
  -3   1  -6    5.08    3.26
  -3   1  -6    4.14    2.32
   3  -1   6    1.47    3.14
   3  -1   6   -0.14    2.81
  -4   1  -6    1.04    2.57
  -4   1  -6   12.08    3.97
   4  -1   6    4.97    3.30
  -5   1  -6    2.68    4.18
  -5   1  -6    5.31    2.50
   5  -1   6    3.03    5.06
  -6   1  -6    9.80    5.28
   6  -1   6   12.79    4.82
   7  -1   6    6.37    6.84
  -7   0   6    3.29    5.03
   6   0  -6   17.40    5.03
  -6   0   6   20.76    5.03
   5   0  -6   80.98    8.36
  -5   0   6   99.46    8.59
  -5   0   6  102.28    8.68
   4   0  -6   -2.46    2.70
  -4   0   6    4.76    2.92
  -4   0   6   -0.92    2.79
   3   0  -6   33.23    3.80
   3   0  -6   31.94    3.87
   3   0  -6   43.33    3.73
  -3   0   6   33.73    3.87
  -3   0   6   33.15    3.65
   2   0  -6    0.27    1.33
   2   0  -6    0.20    1.99
   2   0  -6   -0.17    1.24
  -2   0   6   -1.21    1.43
  -2   0   6   -0.40    1.39
   1   0  -6    1.49    1.99
   1   0  -6   -0.07    0.98
   1   0  -6   -1.07    2.10
  -1   0   6    0.06    0.67
  -1   0   6    0.50    0.66
  -1   0   6    0.60    1.09
   0   0  -6    1.68    0.88
   0   0  -6    4.17    2.60
   0   0  -6    3.19    0.80
   0   0  -6    1.48    2.11
   0   0   6    3.23    1.00
   0   0   6    2.95    1.47
   0   0   6    2.17    1.07
  -1   0  -6    2.38    1.50
  -1   0  -6    3.48    1.71
  -1   0  -6    4.52    2.38
  -1   0  -6    2.19    2.27
   1   0   6    3.20    1.75
   1   0   6    0.40    1.52
  -2   0  -6   12.81    2.69
  -2   0  -6   12.76    2.19
  -2   0  -6   13.70    2.86
  -2   0  -6   14.46    2.59
   2   0   6    9.03    2.14
   2   0   6   10.18    2.88
  -3   0  -6   13.63    3.48
  -3   0  -6   13.86    2.85
   3   0   6   17.61    3.64
   3   0   6   21.93    3.52
  -4   0  -6    7.12    3.07
  -4   0  -6    6.43    2.81
   4   0   6   11.17    4.54
  -5   0  -6   12.78    4.63
   5   0   6   -5.03    4.82
  -6   0  -6    1.60    3.64
   6   0   6    8.85    6.14
  -7   1   6    7.63    5.06
   6  -1  -6    2.78    3.78
  -6   1   6    0.32    4.15
   5  -1  -6   11.72    3.72
  -5   1   6   16.33    4.06
  -5   1   6   18.31    4.15
   4  -1  -6    3.43    2.80
  -4   1   6   -0.69    2.73
  -4   1   6    2.79    2.80
   3  -1  -6    5.48    2.07
   3  -1  -6   -0.18    1.89
  -3   1   6    4.74    2.04
  -3   1   6    1.94    2.33
   2  -1  -6   55.41    3.93
   2  -1  -6   52.56    3.51
   2  -1  -6   54.72    4.96
   2  -1  -6   49.21    4.38
  -2   1   6   45.41    4.14
  -2   1   6   50.04    4.19
   1  -1  -6   17.67    2.71
   1  -1  -6   19.48    2.46
  -1   1   6   18.17    1.57
  -1   1   6   16.68    1.34
   0  -1  -6   11.06    3.03
   0  -1  -6   12.56    2.80
   0  -1  -6   13.94    1.58
   0   1   6   11.32    1.56
   0   1   6   11.62    1.69
  -1  -1  -6    9.32    2.04
  -1  -1  -6   16.59    2.44
  -1  -1  -6   15.96    2.57
  -1  -1  -6   18.19    2.37
   1   1   6   20.05    2.34
   1   1   6   14.16    2.33
  -2  -1  -6    8.25    2.10
  -2  -1  -6   11.40    2.77
  -2  -1  -6    6.09    2.74
  -2  -1  -6   17.31    2.83
   2   1   6   12.49    2.74
   2   1   6   12.02    2.88
  -3  -1  -6   53.15    5.57
  -3  -1  -6   59.52    5.42
   3   1   6   61.06    6.02
   3   1   6   55.96    6.27
  -4  -1  -6    5.77    3.93
  -4  -1  -6   -2.43    2.73
   4   1   6   -4.26    4.21
  -5  -1  -6    8.10    4.57
   5   1   6   11.81    5.34
  -6  -1  -6   -1.73    4.74
   6   1   6    0.89    4.36
  -7   2   6    1.99    4.90
   6  -2  -6    0.95    3.54
  -6   2   6    8.04    4.32
   5  -2  -6   32.22    4.56
  -5   2   6   25.60    4.40
  -5   2   6   23.02    4.63
   4  -2  -6   20.64    3.61
  -4   2   6   28.39    3.88
  -4   2   6   21.85    3.67
   3  -2  -6   33.80    3.58
   3  -2  -6   38.84    3.82
  -3   2   6   32.88    3.88
  -3   2   6   34.33    3.85
   2  -2  -6   11.98    3.02
   2  -2  -6    9.36    2.97
   2  -2  -6    9.79    1.88
  -2   2   6   12.60    1.98
  -2   2   6   10.78    2.05
   1  -2  -6   10.75    2.41
   1  -2  -6    9.74    1.49
   1  -2  -6    9.73    2.64
  -1   2   6    8.58    1.52
  -1   2   6    6.57    1.46
  -1   2   6    8.66    0.81
   0  -2  -6   31.74    3.20
   0  -2  -6   40.06    4.07
   0  -2  -6   38.27    3.13
   0  -2  -6   32.37    3.88
   0   2   6   35.55    3.36
   0   2   6   36.60    3.20
  -1  -2  -6   32.69    4.23
  -1  -2  -6   33.83    3.39
  -1  -2  -6   32.94    3.54
  -1  -2  -6   35.14    4.03
   1   2   6   37.09    3.50
   1   2   6   26.59    3.44
  -2  -2  -6    8.81    2.90
  -2  -2  -6    6.68    2.46
  -2  -2  -6    9.95    2.73
  -2  -2  -6    9.36    2.92
   2   2   6    6.22    2.97
   2   2   6    6.32    2.21
  -3  -2  -6   26.41    3.94
  -3  -2  -6   31.13    4.52
  -3  -2  -6   35.19    5.00
   3   2   6   19.40    4.47
   3   2   6   40.69    4.40
  -4  -2  -6    3.38    3.11
   4   2   6   10.24    4.45
  -5  -2  -6   -0.07    4.34
   5   2   6    4.78    4.96
  -6  -2  -6   10.89    4.66
   6   2   6   10.75    5.94
  -7   3   6   10.82    4.93
   6  -3  -6   16.45    4.31
  -6   3   6   14.59    4.70
   5  -3  -6    5.95    3.24
  -5   3   6    7.12    3.43
  -5   3   6    2.39    3.50
   4  -3  -6    5.38    1.95
   4  -3  -6    2.91    2.62
  -4   3   6    1.32    2.84
  -4   3   6   -1.04    2.75
   3  -3  -6    0.84    2.18
   3  -3  -6   -1.55    2.24
   3  -3  -6   -0.25    1.21
  -3   3   6   -0.50    2.08
  -3   3   6   -2.10    2.14
   2  -3  -6   24.01    3.10
   2  -3  -6   18.52    2.50
   2  -3  -6   16.77    2.51
  -2   3   6   19.72    2.54
   1  -3  -6   25.19    2.65
   1  -3  -6   25.48    2.59
   1  -3  -6   13.76    3.33
  -1   3   6   23.22    2.72
  -1   3   6   23.54    2.03
  -1   3   6   23.84    2.54
   0  -3  -6   86.25    6.57
   0  -3  -6   92.25    7.45
   0  -3  -6   92.35    6.71
   0  -3  -6   82.85    6.57
   0   3   6   95.31    6.64
   0   3   6   89.84    6.81
  -1  -3  -6   -0.12    2.04
  -1  -3  -6    0.41    2.14
  -1  -3  -6   -0.84    3.00
  -1  -3  -6   -2.46    2.73
   1   3   6   -0.69    1.91
   1   3   6    0.68    1.79
  -2  -3  -6   -2.18    2.69
  -2  -3  -6    3.06    2.50
  -2  -3  -6    3.13    2.09
  -2  -3  -6    5.71    3.21
   2   3   6   -2.58    2.58
   2   3   6   -0.36    3.04
  -3  -3  -6   46.74    5.58
  -3  -3  -6   41.25    5.83
   3   3   6   38.48    5.60
   3   3   6   52.44    5.37
  -4  -3  -6    0.28    4.05
  -4  -3  -6    3.83    4.85
   4   3   6   -1.44    3.03
  -5  -3  -6   13.41    4.21
   5   3   6   15.85    5.59
  -6  -3  -6   10.05    5.65
   6   3   6    6.97    4.62
  -7   4   6    9.27    5.24
   6  -4  -6    8.32    3.85
  -6   4   6   -2.40    3.98
   5  -4  -6   19.91    3.92
   5  -4  -6   17.53    2.94
  -5   4   6   16.44    3.99
  -5   4   6   26.60    4.53
   4  -4  -6   40.84    3.64
   4  -4  -6   37.88    4.64
  -4   4   6   39.60    4.87
  -4   4   6   41.24    4.92
   3  -4  -6    0.55    2.28
   3  -4  -6    3.51    2.77
   3  -4  -6    4.65    1.48
  -3   4   6    3.08    2.64
  -3   4   6    4.98    2.57
   2  -4  -6   73.11    5.85
   2  -4  -6   74.81    5.02
   2  -4  -6   71.12    5.88
   2  -4  -6   72.61    6.02
  -2   4   6   76.85    5.91
  -2   4   6   76.52    6.03
   1  -4  -6    6.51    2.03
   1  -4  -6    5.69    2.21
   1  -4  -6   10.82    3.01
  -1   4   6    6.98    2.06
  -1   4   6    8.18    1.68
  -1   4   6    6.13    2.44
   0  -4  -6    9.15    2.49
   0  -4  -6   10.05    2.37
   0  -4  -6    7.14    2.26
   0   4   6    6.88    2.12
   0   4   6    9.14    2.34
   0   4   6   12.01    2.71
  -1  -4  -6   54.69    5.04
  -1  -4  -6   57.15    5.47
  -1  -4  -6   55.24    5.34
   1   4   6   53.27    4.85
   1   4   6   61.92    5.72
  -2  -4  -6   69.74    5.82
  -2  -4  -6   58.00    5.67
   2   4   6   63.51    6.20
   2   4   6   54.38    6.36
  -3  -4  -6    3.18    2.92
  -3  -4  -6   -1.62    4.27
   3   4   6   -9.16    3.53
   3   4   6   10.62    4.38
  -4  -4  -6   -1.27    4.07
  -4  -4  -6   -1.47    3.50
   4   4   6    0.03    4.46
  -5  -4  -6    0.46    3.54
  -5  -4  -6    2.54    4.23
   5   4   6    1.69    3.88
  -6  -4  -6    4.81    6.41
  -6  -4  -6    5.68    4.42
   6   4   6    4.57    6.24
   6  -5  -6    3.03    3.74
  -6   5   6   10.10    4.67
   5  -5  -6    4.74    3.33
  -5   5   6    7.80    3.92
   4  -5  -6   27.70    3.10
   4  -5  -6   27.12    4.49
  -4   5   6   23.99    4.31
  -4   5   6   31.30    4.56
   3  -5  -6    0.31    2.87
   3  -5  -6    0.87    1.71
  -3   5   6   -0.36    2.55
  -3   5   6    1.12    3.05
   2  -5  -6    1.31    1.57
   2  -5  -6    0.82    3.46
   2  -5  -6   -1.21    2.46
   2  -5  -6    5.21    2.37
  -2   5   6    1.34    2.38
  -2   5   6    1.58    2.33
  -2   5   6    1.65    1.61
   1  -5  -6    2.17    2.36
   1  -5  -6    0.08    3.16
   1  -5  -6    8.99    2.78
  -1   5   6    7.11    2.36
  -1   5   6    3.66    1.93
  -1   5   6    3.78    2.64
   0  -5  -6   85.62    7.00
   0  -5  -6  100.15    7.54
   0  -5  -6  103.94    7.53
   0   5   6   86.19    6.98
   0   5   6   88.07    7.35
   0   5   6   96.86    7.59
  -1  -5  -6    1.02    3.47
  -1  -5  -6   -1.08    2.79
   1   5   6   -1.06    2.56
   1   5   6    2.24    3.05
  -2  -5  -6    2.60    2.89
  -2  -5  -6   -4.31    3.25
   2   5   6   -0.26    2.72
   2   5   6   -4.73    2.98
  -3  -5  -6    2.08    3.09
  -3  -5  -6    3.18    4.49
   3   5   6   -8.35    4.11
  -4  -5  -6    5.99    4.68
  -4  -5  -6    6.74    4.08
   4   5   6    7.03    3.80
  -5  -5  -6    6.97    4.43
  -5  -5  -6   -2.62    4.95
   5   5   6   -3.79    5.14
  -6   6   6    0.23    4.33
   5  -6  -6    1.36    3.45
  -5   6   6   -1.49    3.73
   4  -6  -6    3.04    2.11
   4  -6  -6   -0.44    3.44
  -4   6   6    3.48    3.34
  -4   6   6    1.39    3.08
   3  -6  -6    7.40    3.18
   3  -6  -6   11.50    2.33
  -3   6   6   11.73    3.49
   2  -6  -6    5.87    3.63
   2  -6  -6    3.94    2.87
  -2   6   6    4.83    2.82
  -2   6   6    2.80    2.05
  -2   6   6    2.66    2.88
   1  -6  -6    0.73    3.36
   1  -6  -6    3.76    2.82
  -1   6   6   -0.68    2.50
  -1   6   6    2.40    3.06
  -1   6   6    0.88    2.34
   0  -6  -6   20.33    3.48
   0  -6  -6   23.24    3.96
   0   6   6   18.43    3.50
   0   6   6   26.72    4.07
   0   6   6   26.02    3.81
  -1  -6  -6    7.81    3.68
  -1  -6  -6   11.70    3.71
   1   6   6   10.89    3.93
   1   6   6   14.36    3.76
   1   6   6   14.17    3.01
  -2  -6  -6    4.33    3.24
  -2  -6  -6   -2.66    3.74
   2   6   6    3.39    3.15
   2   6   6    9.11    3.01
  -3  -6  -6   21.42    5.42
  -3  -6  -6   28.94    4.85
   3   6   6   41.11    6.27
  -4  -6  -6   16.65    4.38
  -4  -6  -6   16.17    4.59
   4   6   6   13.48    4.53
  -5  -6  -6   -4.24    5.72
  -5  -6  -6    3.10    4.12
   5   6   6   11.12    5.97
  -6   7   6    2.58    4.57
   5  -7  -6    7.87    3.84
  -5   7   6    1.76    4.05
   4  -7  -6    2.79    3.44
   4  -7  -6   10.58    2.60
  -4   7   6    9.40    3.83
   3  -7  -6   -0.48    3.43
   3  -7  -6   -3.17    2.19
  -3   7   6    2.74    3.28
  -3   7   6    4.25    3.16
   2  -7  -6    4.86    3.98
   2  -7  -6   15.61    3.68
  -2   7   6    7.29    2.60
  -2   7   6   11.52    3.46
  -2   7   6   12.89    3.55
   1  -7  -6   41.06    5.25
   1  -7  -6   44.44    5.43
  -1   7   6   42.23    5.48
  -1   7   6   47.99    5.29
  -1   7   6   43.17    4.72
   0  -7  -6   71.79    6.71
   0  -7  -6   65.95    6.78
   0   7   6   69.54    6.97
   0   7   6   65.03    6.36
   0   7   6   72.61    6.31
  -1  -7  -6   -1.14    2.64
  -1  -7  -6    0.27    3.73
   1   7   6    2.91    3.51
   1   7   6    9.20    3.95
   1   7   6    2.04    3.13
  -2  -7  -6   59.83    6.99
  -2  -7  -6   49.30    5.93
   2   7   6   55.05    7.02
   2   7   6   63.56    7.00
  -3  -7  -6   43.23    6.73
  -3  -7  -6   51.92    6.67
   3   7   6   41.49    6.05
  -4  -7  -6    3.05    3.91
  -4  -7  -6   10.52    5.45
   4   7   6    6.17    5.49
  -5  -7  -6   -2.20    5.67
  -5  -7  -6    9.83    6.43
   5   7   6   -2.18    5.82
  -6   8   6    2.61    4.70
   5  -8  -6    1.76    3.70
  -5   8   6    1.82    4.16
   4  -8  -6    1.22    3.46
  -4   8   6    6.00    3.91
   3  -8  -6   16.35    3.18
   3  -8  -6   10.98    3.95
  -3   8   6   19.05    4.28
  -3   8   6   15.45    4.02
   2  -8  -6   34.82    5.28
   2  -8  -6   39.88    5.17
  -2   8   6   37.82    5.07
  -2   8   6   29.99    4.12
  -2   8   6   34.50    5.10
   1  -8  -6   15.79    4.19
   1  -8  -6    8.19    3.17
  -1   8   6   12.42    3.59
  -1   8   6   13.99    4.24
  -1   8   6   17.93    3.36
   0  -8  -6   22.81    4.50
   0  -8  -6   24.22    4.71
   0   8   6   20.27    4.36
   0   8   6   19.68    4.17
   0   8   6   20.89    4.64
  -1  -8  -6   70.38    7.17
  -1  -8  -6   63.20    6.67
   1   8   6   51.70    6.49
   1   8   6   58.39    6.65
  -2  -8  -6    2.32    3.27
  -2  -8  -6    5.91    3.14
   2   8   6    2.80    3.35
   2   8   6   -3.03    4.31
  -3  -8  -6    6.95    3.82
  -3  -8  -6    6.84    4.63
   3   8   6    0.18    3.79
   3   8   6   10.93    5.69
  -4  -8  -6    7.81    4.38
  -4  -8  -6   -4.66    4.77
   4   8   6   -0.83    4.01
   4   8   6   -1.85    4.15
  -5   9   6   -4.32    4.34
   4  -9  -6   -1.41    3.68
  -4   9   6   -2.65    2.92
   3  -9  -6    4.78    3.81
  -3   9   6    3.63    2.91
  -3   9   6    7.39    3.03
   2  -9  -6   19.50    4.65
   2  -9  -6   23.66    4.09
  -2   9   6   20.80    3.79
  -2   9   6   28.30    4.71
  -2   9   6   26.33    4.97
   1  -9  -6   10.25    4.07
   1  -9  -6    5.19    3.55
  -1   9   6    7.50    3.60
  -1   9   6    6.98    3.64
  -1   9   6    4.21    4.06
   0  -9  -6   37.18    5.72
   0  -9  -6   44.77    5.40
   0   9   6   36.00    5.13
   0   9   6   38.42    5.83
  -1  -9  -6    5.26    3.91
  -1  -9  -6   11.23    4.57
   1   9   6    1.98    4.25
   1   9   6    5.69    3.41
  -2  -9  -6    8.94    4.77
  -2  -9  -6    1.12    3.70
   2   9   6   -3.48    4.75
   2   9   6    1.57    4.82
  -3  -9  -6    9.28    5.22
  -3  -9  -6   -1.66    4.43
   3   9   6    2.18    5.33
   3   9   6   -6.99    5.01
  -4  -9  -6    2.90    5.25
  -4  -9  -6    3.60    5.58
   4   9   6  -13.50    5.48
   4   9   6   -1.93    4.20
  -5  10   6    4.60    4.89
   4 -10  -6    5.89    4.22
   3 -10  -6    2.32    4.04
  -3  10   6    6.49    3.14
  -3  10   6    8.04    4.45
   2 -10  -6    6.91    4.29
   2 -10  -6    5.30    4.19
  -2  10   6    2.51    3.45
  -2  10   6    6.44    4.32
   1 -10  -6   22.35    4.93
   1 -10  -6   24.13    5.16
  -1  10   6   23.15    4.30
  -1  10   6   22.37    5.09
   0 -10  -6    7.50    3.86
   0 -10  -6    6.85    4.50
   0  10   6    7.12    3.86
   0  10   6    3.88    3.58
  -1 -10  -6    2.18    3.76
  -1 -10  -6   -0.71    4.36
   1  10   6    2.64    4.35
   1  10   6    0.44    4.39
  -2 -10  -6   11.19    4.20
  -2 -10  -6    8.57    5.11
   2  10   6    2.38    5.30
   2  10   6    0.00    5.06
  -3 -10  -6    9.79    5.75
  -3 -10  -6    7.61    4.88
   3  10   6    4.43    4.65
   3  10   6   -3.36    5.48
   3 -11  -6   -0.12    4.00
  -3  11   6    5.23    4.60
   2 -11  -6   -0.49    4.04
   2 -11  -6   -3.33    4.18
  -2  11   6   -3.00    3.02
  -2  11   6    1.37    3.69
   1 -11  -6   -0.44    3.58
   1 -11  -6    9.62    4.84
  -1  11   6   -0.68    3.33
  -1  11   6   -0.42    4.38
   0 -11  -6   -4.32    4.35
   0 -11  -6    3.75    3.81
   0  11   6   -0.40    4.92
   0  11   6    0.20    3.94
  -1 -11  -6    4.15    3.76
  -1 -11  -6    1.73    5.05
   1  11   6    6.66    4.77
   1  11   6   -6.44    4.81
  -2 -11  -6    4.48    4.18
  -2 -11  -6    4.48    4.65
   2  11   6   -1.49    5.12
   2  11   6   -5.35    5.21
  -3  12   6    5.60    5.05
   2 -12  -6    6.33    4.62
   2 -12  -6    4.93    4.36
  -2  12   6    4.30    5.03
  -2  12   6    1.35    3.88
   1 -12  -6    2.98    3.98
   1 -12  -6    5.57    4.83
  -1  12   6   -2.03    4.86
  -1  12   6    3.17    4.08
   0 -12  -6    3.52    4.14
   0 -12  -6   -5.37    4.81
   0  12   6    2.04    4.30
   0  12   6    3.25    5.40
  -1 -12  -6    2.60    4.00
  -1 -12  -6    5.55    4.56
   1  12   6    5.19    4.29
   1  12   6    3.81    5.10
   0  13  -7   -2.48    5.23
   0  13  -7   -1.98    5.44
   0 -13   7   -2.31    5.92
  -1  13  -7    9.79    4.58
  -1  13  -7    6.64    5.71
   1 -13   7   -3.59    4.24
  -2  13  -7    5.86    5.76
  -2  13  -7    4.87    4.25
   2 -13   7    6.07    6.13
   2  12  -7    2.33    6.03
   2  12  -7    9.52    4.97
  -2 -12   7    7.21    6.24
   1  12  -7    7.43    5.68
   1  12  -7    5.53    4.19
  -1 -12   7   18.09    6.31
   0  12  -7   -1.22    5.16
   0  12  -7    1.26    5.10
   0 -12   7    5.89    5.94
  -1  12  -7    3.75    5.07
  -1  12  -7    1.73    5.14
   1 -12   7   -1.43    5.49
  -2  12  -7    1.53    5.24
  -2  12  -7    2.54    3.89
   2 -12   7    1.53    4.29
  -3  12  -7    3.74    5.45
   3 -12   7    6.03    6.04
   3  11  -7    2.60    4.38
   3  11  -7   -1.08    4.28
  -3 -11   7    1.83    5.75
   2  11  -7   12.40    5.78
   2  11  -7  -10.73    5.16
  -2 -11   7    2.92    4.16
   1  11  -7    4.57    4.87
   1  11  -7    5.65    5.19
  -1 -11   7    6.97    5.47
   0  11  -7   29.31    5.93
   0  11  -7   17.38    4.68
   0 -11   7   21.89    5.28
  -1  11  -7   37.22    6.28
  -1  11  -7   22.47    5.93
   1 -11   7   25.80    6.31
  -2  11  -7   19.21    4.49
  -2  11  -7   15.50    4.46
   2 -11   7    6.83    4.37
  -3  11  -7    3.00    5.14
   3 -11   7    5.48    4.32
  -4  11  -7    5.76    4.29
   4 -11   7    1.48    5.56
   4  10  -7   -1.58    5.50
   4  10  -7   -4.83    4.24
  -4 -10   7    4.61    5.78
   3  10  -7    4.54    4.26
   3  10  -7   -3.42    4.91
  -3 -10   7    6.14    5.79
   2  10  -7    6.74    5.34
   2  10  -7    1.90    4.97
  -2 -10   7   -5.97    4.92
   1  10  -7    5.93    4.66
   1  10  -7   -1.83    4.47
  -1 -10   7    2.38    4.82
   0  10  -7    0.36    4.53
   0  10  -7    2.70    4.50
   0 -10   7   -0.26    4.60
  -1  10  -7   -2.56    4.34
  -1  10  -7   -8.86    4.18
   1 -10   7   -0.75    4.80
  -2  10  -7   25.52    5.44
  -2  10  -7   14.42    4.21
   2 -10   7   17.22    5.76
  -3  10  -7   16.25    5.13
   3 -10   7   15.84    5.59
  -4  10  -7    7.94    5.40
   4 -10   7    0.07    3.87
  -5  10  -7    5.92    4.52
   5 -10   7   12.93    6.47
   4   9  -7   -0.03    5.16
   4   9  -7    8.73    5.78
  -4  -9   7    9.04    5.52
   3   9  -7    0.53    3.53
   3   9  -7    0.11    5.02
  -3  -9   7   -2.96    4.80
   2   9  -7    9.59    5.12
   2   9  -7   -6.00    4.18
  -2  -9   7    3.08    4.75
   1   9  -7   -0.96    3.15
   1   9  -7    1.44    4.43
  -1  -9   7   -1.21    4.38
   0   9  -7    7.38    4.56
   0   9  -7   -2.74    4.09
   0  -9   7    4.33    4.39
  -1   9  -7   20.06    5.13
  -1   9  -7   18.06    4.83
   1  -9   7   20.17    5.17
  -2   9  -7    1.02    4.41
  -2   9  -7    7.90    3.35
   2  -9   7    6.95    3.57
  -3   9  -7    8.56    3.66
  -3   9  -7    4.85    3.48
   3  -9   7    6.36    4.69
  -4   9  -7    2.24    4.76
   4  -9   7    9.46    4.24
  -5   9  -7   -4.15    3.49
   5  -9   7   -4.49    5.52
   5   8  -7   18.26    5.09
   5   8  -7   17.48    6.41
  -5  -8   7   13.28    6.11
   4   8  -7    3.51    5.19
   4   8  -7   13.78    5.76
  -4  -8   7    7.45    5.11
   3   8  -7    5.32    4.85
   3   8  -7    0.09    4.47
  -3  -8   7   -4.39    4.21
   2   8  -7    9.39    4.82
   2   8  -7   21.04    4.06
  -2  -8   7   14.85    4.79
  -2  -8   7   11.42    2.29
   1   8  -7   12.40    4.63
   1   8  -7    9.73    4.45
  -1  -8   7   10.07    4.34
  -1  -8   7    7.59    4.51
   0   8  -7    1.87    4.00
   0   8  -7    0.00    4.10
   0  -8   7   -1.02    3.76
   0  -8   7   -5.06    3.85
  -1   8  -7    7.83    3.20
  -1   8  -7    3.06    4.02
   1  -8   7    8.15    4.40
  -2   8  -7    1.12    2.86
  -2   8  -7    6.81    4.37
   2  -8   7    3.78    4.25
  -3   8  -7    3.71    4.21
   3  -8   7   -0.91    4.38
  -4   8  -7    0.13    4.21
   4  -8   7    3.09    4.88
  -5   8  -7   -1.74    4.75
   5  -8   7    3.62    4.26
  -6   8  -7    2.89    5.54
   6  -8   7   -0.61    4.43
   5   7  -7   10.40    4.33
   5   7  -7    2.60    5.44
  -5  -7   7   16.70    5.89
   4   7  -7   21.98    3.57
   4   7  -7   15.80    5.26
   4   7  -7   16.56    5.38
  -4  -7   7   16.31    4.49
   3   7  -7   -5.99    4.41
   3   7  -7    2.84    4.21
  -3  -7   7   -2.86    3.89
   2   7  -7    5.17    4.34
   2   7  -7   -0.69    3.78
  -2  -7   7   -3.43    2.84
  -2  -7   7    1.43    3.70
   1   7  -7   61.52    7.02
   1   7  -7   74.95    7.06
  -1  -7   7   80.31    7.26
  -1  -7   7   49.69    6.59
   0   7  -7    7.91    3.78
   0   7  -7    6.21    3.80
   0  -7   7    6.47    3.75
   0  -7   7   12.43    3.04
  -1   7  -7    8.58    3.63
  -1   7  -7    9.22    3.87
   1  -7   7    0.21    2.58
   1  -7   7   13.14    3.96
  -2   7  -7    1.22    2.78
   2  -7   7   -0.78    3.72
   2  -7   7   -1.83    2.56
  -3   7  -7    3.49    3.05
   3  -7   7    6.53    3.26
  -4   7  -7    4.58    3.32
   4  -7   7    0.56    3.34
  -5   7  -7    6.30    3.75
   5  -7   7   -1.01    5.16
  -6   7  -7   10.36    4.19
  -6   7  -7    6.04    4.22
   6  -7   7   -3.98    5.70
   6   6  -7    1.16    5.39
  -6  -6   7    2.31    5.56
   5   6  -7   21.25    5.94
   5   6  -7   29.57    6.15
  -5  -6   7   33.20    5.42
   4   6  -7    9.47    4.73
   4   6  -7   12.08    4.65
   4   6  -7   11.69    2.74
  -4  -6   7    4.26    4.51
   3   6  -7   10.33    4.71
   3   6  -7   21.98    4.82
  -3  -6   7   15.02    4.66
  -3  -6   7   15.56    4.26
   2   6  -7    0.59    2.85
   2   6  -7    4.52    3.52
  -2  -6   7    1.58    3.36
  -2  -6   7    3.41    3.39
   1   6  -7   26.71    4.06
   1   6  -7   33.32    4.67
  -1  -6   7   41.05    4.79
  -1  -6   7   29.26    4.62
   0   6  -7   -1.32    2.75
   0   6  -7   -1.29    3.11
   0  -6   7    3.94    3.15
   0  -6   7    2.80    2.96
  -1   6  -7   -5.53    2.79
  -1   6  -7   -0.26    2.36
  -1   6  -7    0.67    0.63
   1  -6   7    0.75    3.08
   1  -6   7    1.60    3.09
  -2   6  -7   -1.12    3.54
   2  -6   7   -4.55    3.06
   2  -6   7    2.21    2.62
  -3   6  -7    7.81    3.10
   3  -6   7   14.27    3.60
  -4   6  -7    8.51    3.51
   4  -6   7   12.94    3.97
  -5   6  -7    3.07    3.54
  -5   6  -7    5.56    3.86
   5  -6   7   -1.06    5.12
  -6   6  -7    6.43    3.70
  -6   6  -7    8.76    5.44
   6  -6   7   14.63    6.35
   6   5  -7   -8.64    4.56
  -6  -5   7    6.30    5.14
   5   5  -7   23.57    5.63
   5   5  -7   14.43    5.04
  -5  -5   7   22.60    5.48
   4   5  -7   27.96    5.80
   4   5  -7   49.25    4.69
   4   5  -7   47.89    6.13
  -4  -5   7   33.67    5.61
  -4  -5   7   51.79    5.82
   3   5  -7   23.13    4.01
   3   5  -7   18.02    4.49
   3   5  -7   23.28    3.80
  -3  -5   7   22.58    3.76
  -3  -5   7   23.89    4.33
   2   5  -7   -0.73    3.00
   2   5  -7   -1.22    3.23
  -2  -5   7    6.83    3.07
  -2  -5   7   -0.10    2.15
   1   5  -7   37.47    4.18
   1   5  -7   39.67    4.26
   1   5  -7   46.58    4.63
  -1  -5   7   29.25    4.27
  -1  -5   7   41.57    4.52
  -1  -5   7   37.40    4.72
   0   5  -7   -0.41    2.13
   0   5  -7    0.01    2.38
   0   5  -7   -1.43    2.68
   0  -5   7    3.29    2.14
   0  -5   7   -0.28    2.37
   0  -5   7   -0.58    2.56
  -1   5  -7    8.98    2.26
  -1   5  -7    3.19    2.02
  -1   5  -7    6.48    3.03
  -1   5  -7    8.25    1.41
   1  -5   7    8.28    2.94
   1  -5   7    1.43    2.91
   1  -5   7    2.86    2.72
  -2   5  -7   -2.01    2.11
   2  -5   7    0.98    2.40
   2  -5   7   -0.24    3.02
  -3   5  -7   18.63    4.14
   3  -5   7   16.45    4.39
   3  -5   7   12.22    4.05
  -4   5  -7    2.90    3.59
  -4   5  -7   -1.28    3.88
   4  -5   7    5.61    4.49
  -5   5  -7    2.84    3.18
  -5   5  -7    1.36    3.25
   5  -5   7    0.74    5.19
  -6   5  -7    0.45    4.88
   6  -5   7    2.47    4.35
   6   4  -7   14.66    5.23
   6   4  -7   13.51    5.07
  -6  -4   7   11.98    5.39
   5   4  -7    0.32    4.20
   5   4  -7   -5.30    3.79
  -5  -4   7   -1.22    4.15
   4   4  -7   57.78    6.63
   4   4  -7   60.22    5.50
   4   4  -7   62.29    6.98
  -4  -4   7   73.61    7.02
  -4  -4   7   63.59    6.80
   3   4  -7    8.77    3.70
   3   4  -7    6.76    2.60
   3   4  -7    1.30    3.34
  -3  -4   7    3.57    3.07
  -3  -4   7    2.04    3.02
   2   4  -7    4.58    2.97
   2   4  -7   -0.09    1.97
   2   4  -7    0.88    2.87
   2   4  -7   -1.45    2.55
  -2  -4   7    2.07    2.61
  -2  -4   7   -2.69    2.40
   1   4  -7    9.80    2.92
   1   4  -7   14.16    2.45
   1   4  -7   11.30    2.59
  -1  -4   7   14.71    3.05
  -1  -4   7   16.57    2.78
  -1  -4   7   11.76    2.66
   0   4  -7   21.68    1.95
   0   4  -7   23.59    2.97
   0   4  -7   24.04    3.04
   0   4  -7   23.72    2.97
   0  -4   7   19.84    3.13
   0  -4   7   26.14    3.33
   0  -4   7   23.78    3.42
  -1   4  -7   16.43    1.94
  -1   4  -7   16.32    2.59
  -1   4  -7   10.07    2.68
   1  -4   7   12.43    2.79
   1  -4   7   12.68    2.57
   1  -4   7   12.71    2.80
  -2   4  -7   12.21    3.25
  -2   4  -7    7.77    2.87
   2  -4   7   16.02    2.97
   2  -4   7   10.50    2.62
   2  -4   7   10.91    3.17
  -3   4  -7   54.67    6.40
  -3   4  -7   59.05    5.86
   3  -4   7   64.26    6.37
   3  -4   7   64.28    6.70
  -4   4  -7   -1.04    2.95
  -4   4  -7   -1.57    2.69
   4  -4   7   -2.89    3.21
  -5   4  -7   13.47    3.60
  -5   4  -7    7.43    4.65
   5  -4   7   14.84    4.54
  -6   4  -7    3.15    5.02
   6  -4   7   -1.64    4.32
   6   3  -7    5.98    4.48
   6   3  -7   -2.63    4.07
  -6  -3   7    5.40    4.69
   5   3  -7   -1.56    3.76
   5   3  -7    7.58    4.20
  -5  -3   7   13.32    4.34
   4   3  -7    8.60    3.79
   4   3  -7   13.44    3.88
   4   3  -7    4.02    2.12
  -4  -3   7    7.32    3.66
  -4  -3   7    7.28    3.66
   3   3  -7   10.53    2.56
   3   3  -7   10.91    3.40
   3   3  -7    6.93    3.44
  -3  -3   7   14.70    3.18
  -3  -3   7    9.23    3.18
   2   3  -7    0.55    1.83
   2   3  -7    1.11    2.27
   2   3  -7   -0.03    2.35
   2   3  -7   -0.53    2.30
  -2  -3   7   -1.77    1.94
  -2  -3   7   -2.70    2.02
   1   3  -7   55.18    5.63
   1   3  -7   57.27    5.07
   1   3  -7   56.84    4.90
   1   3  -7   59.07    4.74
  -1  -3   7   56.68    4.83
  -1  -3   7   62.87    5.05
  -1  -3   7   59.00    4.73
   0   3  -7    1.08    2.25
   0   3  -7   -1.20    1.24
   0   3  -7    3.04    1.74
   0   3  -7    0.01    1.54
   0   3  -7   -1.10    2.01
   0  -3   7   -0.90    1.61
   0  -3   7    1.08    1.70
   0  -3   7   -0.59    2.06
  -1   3  -7   64.04    5.56
  -1   3  -7   57.23    5.24
  -1   3  -7   62.25    5.29
  -1   3  -7   67.02    6.27
  -1   3  -7   61.08    4.63
   1  -3   7   62.68    5.30
   1  -3   7   69.05    5.18
   1  -3   7   55.44    5.20
  -2   3  -7   20.90    3.47
  -2   3  -7   20.99    3.27
  -2   3  -7   25.77    3.55
   2  -3   7   26.60    3.34
   2  -3   7   24.54    3.61
   2  -3   7   21.22    3.44
  -3   3  -7   14.76    3.33
  -3   3  -7    5.40    3.32
   3  -3   7   15.80    4.10
  -4   3  -7    4.37    2.95
  -4   3  -7    5.16    2.87
   4  -3   7    1.93    3.36
  -5   3  -7    2.99    3.30
  -5   3  -7    6.95    2.97
   5  -3   7    5.05    5.15
  -6   3  -7   -4.18    3.40
   6  -3   7    0.13    5.72
   6   2  -7   -6.54    3.57
   6   2  -7    0.84    4.05
  -6  -2   7   -4.23    3.75
   5   2  -7   -0.52    3.61
   5   2  -7   -2.11    3.55
  -5  -2   7   -2.59    3.61
   4   2  -7  100.15    9.14
   4   2  -7  114.64    8.79
  -4  -2   7   96.10    8.98
  -4  -2   7  136.30    9.28
   3   2  -7   57.77    5.63
   3   2  -7   62.16    5.30
   3   2  -7   62.87    5.63
   3   2  -7   61.85    5.51
  -3  -2   7   62.46    5.98
  -3  -2   7   69.95    5.77
   2   2  -7    1.60    2.18
   2   2  -7    2.08    1.94
   2   2  -7    2.53    2.29
   2   2  -7    1.03    1.53
  -2  -2   7    6.01    2.14
  -2  -2   7    0.22    1.93
   1   2  -7  154.54   11.68
   1   2  -7  152.78   10.19
   1   2  -7  161.61   10.50
   1   2  -7  158.03   10.43
  -1  -2   7  153.04   10.63
  -1  -2   7  159.64   10.65
  -1  -2   7  160.85   10.47
   0   2  -7   59.49    4.31
   0   2  -7   56.75    4.76
   0   2  -7   58.33    5.19
   0   2  -7   62.04    4.50
   0  -2   7   52.57    4.53
   0  -2   7   63.74    4.57
   0  -2   7   59.36    4.79
  -1   2  -7    8.17    3.00
  -1   2  -7   11.16    2.01
  -1   2  -7    9.97    2.18
  -1   2  -7    7.38    2.24
   1  -2   7   11.64    2.14
   1  -2   7   14.83    2.35
   1  -2   7    9.59    2.20
  -2   2  -7   44.87    4.47
  -2   2  -7   40.45    3.99
  -2   2  -7   40.16    4.76
   2  -2   7   46.68    4.45
   2  -2   7   40.43    4.23
   2  -2   7   43.92    4.71
  -3   2  -7   12.29    3.33
  -3   2  -7   11.39    3.33
   3  -2   7    9.77    3.33
   3  -2   7    5.33    3.69
  -4   2  -7   24.67    3.66
  -4   2  -7   24.05    4.65
   4  -2   7   14.41    3.91
  -5   2  -7    3.68    2.83
  -5   2  -7   -1.02    2.98
   5  -2   7    1.43    3.63
  -6   2  -7   -4.07    4.57
   6  -2   7    7.14    6.26
   7   1  -7   -9.85    3.85
  -7  -1   7    3.81    5.05
   6   1  -7    4.32    3.97
  -6  -1   7   10.42    4.56
   5   1  -7    9.78    3.70
  -5  -1   7    9.41    3.83
  -5  -1   7    6.44    3.55
   4   1  -7   -1.17    2.55
   4   1  -7    7.42    3.13
   4   1  -7    3.37    2.34
  -4  -1   7    3.78    2.98
  -4  -1   7    0.79    2.83
   3   1  -7   21.76    3.10
   3   1  -7   18.81    2.62
   3   1  -7   19.20    3.26
   3   1  -7   21.24    3.05
  -3  -1   7   20.70    3.17
  -3  -1   7   22.16    3.23
   2   1  -7  105.60    6.95
   2   1  -7  104.59    6.94
   2   1  -7   92.79    7.76
  -2  -1   7  104.86    7.14
  -2  -1   7   90.09    7.10
   1   1  -7  118.78    7.65
   1   1  -7  120.51    8.99
   1   1  -7  116.65    7.89
   1   1  -7  113.92    7.76
   1   1  -7  112.55    7.63
  -1  -1   7  120.36    7.85
  -1  -1   7  122.16    7.81
  -1  -1   7  110.54    7.81
   0   1  -7    6.73    2.03
   0   1  -7    6.72    1.24
   0   1  -7    8.74    2.74
   0  -1   7    5.22    1.35
   0  -1   7    6.21    1.32
   0  -1   7    9.73    1.92
  -1   1  -7   17.82    2.80
  -1   1  -7   15.98    2.24
  -1   1  -7   22.42    2.59
  -1   1  -7   21.19    3.36
   1  -1   7   16.11    2.65
   1  -1   7   20.87    2.43
   1  -1   7   23.52    3.04
  -2   1  -7   40.38    3.92
  -2   1  -7   44.08    4.14
  -2   1  -7   41.51    3.88
  -2   1  -7   33.16    4.19
   2  -1   7   27.69    3.80
   2  -1   7   29.22    3.93
  -3   1  -7    4.03    2.34
  -3   1  -7    2.68    2.65
   3  -1   7    5.69    2.46
   3  -1   7    1.53    2.48
  -4   1  -7   10.68    3.24
  -4   1  -7   18.90    3.53
   4  -1   7    5.35    4.52
  -5   1  -7    3.73    2.58
  -5   1  -7    0.76    3.11
   5  -1   7   -2.55    3.59
  -6   1  -7   15.06    5.55
   6  -1   7   27.35    5.80
  -7   0   7    8.68    5.06
   6   0  -7    0.44    3.42
  -6   0   7   -0.89    3.90
   5   0  -7   63.97    6.88
  -5   0   7   60.80    6.87
  -5   0   7   81.58    7.21
   4   0  -7    2.39    2.77
  -4   0   7    2.17    2.79
  -4   0   7    1.86    2.73
   3   0  -7  145.78    9.55
   3   0  -7  119.89    9.57
   3   0  -7  140.77    9.15
   3   0  -7  134.50   10.28
  -3   0   7  145.54    9.82
  -3   0   7  127.27    9.59
   2   0  -7    4.43    2.31
   2   0  -7    4.61    1.34
   2   0  -7    2.32    1.16
  -2   0   7    2.99    1.47
  -2   0   7    2.82    1.47
   1   0  -7   31.08    2.53
   1   0  -7   35.47    3.15
   1   0  -7   31.33    3.47
  -1   0   7   31.61    2.57
  -1   0   7   28.49    2.06
  -1   0   7   29.39    2.06
   0   0  -7   56.05    3.94
   0   0  -7   52.15    4.97
   0   0  -7   54.74    4.73
   0   0  -7   56.70    3.90
   0   0   7   61.02    4.30
   0   0   7   56.60    4.11
   0   0   7   58.05    4.05
  -1   0  -7   39.45    4.34
  -1   0  -7   41.91    4.03
  -1   0  -7   34.65    3.27
  -1   0  -7   34.06    3.33
   1   0   7   32.60    3.25
   1   0   7   35.33    3.38
  -2   0  -7   21.24    3.65
  -2   0  -7   21.51    3.10
  -2   0  -7   25.64    3.13
  -2   0  -7   24.66    3.62
   2   0   7   27.40    3.41
   2   0   7   24.72    3.57
  -3   0  -7   31.05    4.14
  -3   0  -7   30.93    4.37
   3   0   7   39.22    4.71
   3   0   7   37.96    5.16
  -4   0  -7   12.10    3.43
  -4   0  -7   15.90    4.25
   4   0   7   17.19    4.17
  -5   0  -7    2.73    4.29
  -5   0  -7   -1.15    2.80
   5   0   7    5.88    5.16
  -6   0  -7    9.81    5.30
   6   0   7   16.89    6.48
  -7   1   7   10.80    5.30
   6  -1  -7    4.15    3.65
  -6   1   7   -1.53    3.87
   5  -1  -7    4.96    3.20
  -5   1   7    2.35    3.56
  -5   1   7    3.54    3.78
   4  -1  -7   52.08    5.36
  -4   1   7   52.44    5.38
  -4   1   7   53.91    5.39
   3  -1  -7    8.20    2.33
   3  -1  -7    8.42    1.78
   3  -1  -7    6.03    2.97
  -3   1   7    9.08    2.37
  -3   1   7    9.77    2.43
   2  -1  -7   10.04    2.85
   2  -1  -7    6.36    2.64
   2  -1  -7    2.00    1.21
  -2   1   7    4.81    1.49
  -2   1   7    7.24    1.50
   1  -1  -7    6.30    2.87
   1  -1  -7    4.79    1.94
  -1   1   7    7.80    0.92
  -1   1   7    5.45    0.88
   0  -1  -7    2.03    1.07
   0  -1  -7    1.49    2.70
   0  -1  -7    3.39    1.92
   0   1   7    0.82    1.10
   0   1   7    4.57    1.34
  -1  -1  -7   97.83    6.88
  -1  -1  -7   92.53    7.80
  -1  -1  -7  106.24    7.10
  -1  -1  -7   79.59    6.71
   1   1   7  101.99    7.17
   1   1   7   91.19    6.87
  -2  -1  -7   23.63    3.33
  -2  -1  -7   24.49    3.24
  -2  -1  -7   21.46    3.63
  -2  -1  -7   27.08    3.58
   2   1   7   18.39    3.39
   2   1   7   18.67    3.22
  -3  -1  -7   57.74    5.66
  -3  -1  -7   51.10    6.04
  -3  -1  -7   52.82    5.70
   3   1   7   56.91    5.56
   3   1   7   53.06    6.01
  -4  -1  -7   15.28    3.60
  -4  -1  -7   19.68    3.70
   4   1   7   14.40    4.96
  -5  -1  -7    3.63    4.40
   5   1   7    0.92    5.02
  -6  -1  -7    3.12    3.80
   6   1   7    2.12    4.56
  -7   2   7   14.46    5.16
   6  -2  -7   10.71    3.75
  -6   2   7   -1.98    3.78
   5  -2  -7   10.08    3.58
  -5   2   7    6.04    3.51
  -5   2   7   10.36    3.85
   4  -2  -7  100.25    7.80
  -4   2   7   92.46    7.94
  -4   2   7  100.85    7.96
   3  -2  -7    5.70    2.01
   3  -2  -7    2.36    2.12
  -3   2   7    4.06    2.28
  -3   2   7    4.45    2.03
   2  -2  -7   -3.96    2.65
   2  -2  -7    0.19    1.38
   2  -2  -7    4.57    2.82
  -2   2   7    1.85    1.47
  -2   2   7   -0.68    1.43
   1  -2  -7    5.48    1.19
   1  -2  -7    4.27    1.08
   1  -2  -7    7.69    3.15
   1  -2  -7   -1.28    2.49
  -1   2   7    5.30    0.75
  -1   2   7    4.72    1.38
  -1   2   7    5.99    1.32
   0  -2  -7   73.93    6.49
   0  -2  -7   74.09    5.52
   0  -2  -7   70.76    6.12
   0   2   7   74.76    5.70
   0   2   7   81.94    5.58
  -1  -2  -7  141.05    9.71
  -1  -2  -7  134.11   10.78
  -1  -2  -7  144.70    9.97
  -1  -2  -7  127.96    9.53
   1   2   7  145.02    9.90
   1   2   7  134.95    9.85
  -2  -2  -7    2.83    2.97
  -2  -2  -7   -0.73    2.27
  -2  -2  -7    0.24    2.49
  -2  -2  -7    4.38    2.43
   2   2   7    1.50    1.89
   2   2   7   -2.17    2.59
  -3  -2  -7   65.21    5.99
  -3  -2  -7   60.38    6.26
  -3  -2  -7   60.12    6.14
   3   2   7   75.79    6.86
   3   2   7   58.65    6.58
  -4  -2  -7   50.49    6.07
  -4  -2  -7   41.30    5.28
  -4  -2  -7   46.51    5.65
   4   2   7   36.10    5.37
  -5  -2  -7   -0.10    4.60
   5   2   7    4.64    5.19
  -6  -2  -7    8.43    5.65
   6   2   7   -2.23    5.43
  -7   3   7   10.22    5.18
   6  -3  -7    8.12    3.82
  -6   3   7   24.06    4.94
   5  -3  -7    3.07    2.22
   5  -3  -7    2.64    2.97
  -5   3   7    2.08    3.36
   4  -3  -7    0.74    1.62
   4  -3  -7    2.03    2.48
  -4   3   7   -1.49    2.70
  -4   3   7   -0.44    2.64
   3  -3  -7    9.22    1.23
   3  -3  -7   11.06    2.42
   3  -3  -7    9.43    2.44
  -3   3   7    6.94    2.63
  -3   3   7    7.15    2.66
   2  -3  -7   22.86    3.54
   2  -3  -7   33.16    3.14
  -2   3   7   32.50    3.29
   1  -3  -7   54.68    6.02
   1  -3  -7   54.28    4.81
   1  -3  -7   58.02    4.43
  -1   3   7   58.27    3.88
  -1   3   7   50.77    4.45
  -1   3   7   54.64    4.57
   0  -3  -7   67.93    5.25
   0  -3  -7   62.98    6.06
   0  -3  -7   63.43    5.82
   0  -3  -7   66.28    5.30
   0   3   7   64.51    5.24
   0   3   7   66.64    5.30
  -1  -3  -7   -3.87    2.90
  -1  -3  -7   -1.56    2.09
  -1  -3  -7    6.50    3.43
  -1  -3  -7    0.54    2.01
   1   3   7    3.74    2.21
   1   3   7    1.06    2.31
  -2  -3  -7   75.62    6.96
  -2  -3  -7   75.54    6.67
  -2  -3  -7   72.51    7.25
   2   3   7   75.01    6.71
   2   3   7   71.09    6.99
  -3  -3  -7    2.75    3.43
  -3  -3  -7    8.43    3.38
   3   3   7    5.79    3.63
   3   3   7   -0.06    3.79
  -4  -3  -7   73.19    7.75
  -4  -3  -7   74.23    8.11
   4   3   7   89.27    7.91
  -5  -3  -7   -8.51    4.44
  -5  -3  -7   -8.28    5.15
   5   3   7    2.05    4.90
  -6  -3  -7    4.21    4.22
  -6  -3  -7   -3.27    5.98
   6   3   7    1.00    5.57
  -7   4   7   -7.05    4.36
  -6   4   7    9.69    4.47
   5  -4  -7   24.15    3.00
   5  -4  -7   20.11    4.25
  -5   4   7   30.43    4.75
   4  -4  -7    4.85    1.69
   4  -4  -7    5.62    2.71
  -4   4   7   -1.57    2.91
  -4   4   7   -1.52    2.75
   3  -4  -7   -0.76    2.45
   3  -4  -7   -0.18    1.04
   3  -4  -7    2.55    2.43
  -3   4   7    1.61    2.66
  -3   4   7   -1.03    2.27
   2  -4  -7   11.25    2.97
   2  -4  -7   11.41    2.23
   2  -4  -7   14.10    2.61
  -2   4   7   18.34    2.69
  -2   4   7    9.93    2.28
   1  -4  -7   -0.18    1.67
   1  -4  -7    5.23    2.13
   1  -4  -7    2.68    2.30
  -1   4   7    3.20    1.48
  -1   4   7    3.73    2.05
  -1   4   7    0.34    1.95
   0  -4  -7   75.30    6.59
   0  -4  -7   76.91    6.29
   0  -4  -7   83.68    6.16
   0   4   7   76.48    6.28
   0   4   7   68.63    6.21
  -1  -4  -7  122.75    9.04
  -1  -4  -7  110.23    9.07
  -1  -4  -7  114.76    8.75
   1   4   7  129.81    9.34
   1   4   7  122.09    9.10
  -2  -4  -7    4.53    3.95
  -2  -4  -7    0.13    3.04
   2   4   7    2.00    3.04
   2   4   7    3.69    3.45
  -3  -4  -7   13.73    5.07
  -3  -4  -7   25.71    4.54
   3   4   7   20.59    4.84
   3   4   7    8.54    4.07
  -4  -4  -7    5.13    4.32
  -4  -4  -7    1.14    5.19
   4   4   7   -0.50    4.44
  -5  -4  -7    4.43    5.94
  -5  -4  -7    1.90    4.80
   5   4   7    0.82    3.84
  -6  -4  -7   -7.62    4.46
  -6  -4  -7   12.24    6.07
   6   4   7    3.85    6.21
  -6   5   7   16.04    4.76
   5  -5  -7    8.80    3.69
  -5   5   7   11.22    3.95
   4  -5  -7   43.13    5.28
   4  -5  -7   50.13    4.11
  -4   5   7   44.09    5.62
  -4   5   7   50.23    5.55
   3  -5  -7   15.96    1.97
   3  -5  -7   18.70    3.49
  -3   5   7   13.90    3.29
  -3   5   7   12.77    3.19
   2  -5  -7    0.39    2.49
   2  -5  -7    0.10    3.44
   2  -5  -7    4.07    2.25
  -2   5   7    3.55    2.32
  -2   5   7    0.01    2.24
  -2   5   7    2.36    1.36
   1  -5  -7   10.59    2.95
   1  -5  -7   10.75    2.93
   1  -5  -7   17.36    2.85
  -1   5   7    9.63    2.20
  -1   5   7   13.65    2.72
  -1   5   7    9.78    2.84
   0  -5  -7    0.57    3.29
   0  -5  -7    3.04    2.55
   0  -5  -7    1.20    2.52
   0   5   7    6.16    2.43
   0   5   7    9.47    2.62
   0   5   7    4.06    3.03
  -1  -5  -7   -2.22    3.49
  -1  -5  -7   -1.22    2.57
   1   5   7    4.58    2.77
   1   5   7   -2.87    3.00
  -2  -5  -7    9.58    4.22
  -2  -5  -7   -2.57    3.35
   2   5   7    2.64    2.85
   2   5   7   10.93    3.62
  -3  -5  -7   16.72    4.63
  -3  -5  -7    1.87    4.73
   3   5   7    9.61    4.76
  -4  -5  -7    7.75    4.80
  -4  -5  -7    8.97    5.63
   4   5   7   17.47    5.12
  -5  -5  -7    7.80    4.25
  -5  -5  -7   -5.08    3.94
   5   5   7   -2.97    5.17
  -6   6   7    6.66    4.47
   5  -6  -7    0.74    3.17
  -5   6   7    2.61    4.01
   4  -6  -7   18.17    2.72
   4  -6  -7   30.62    4.24
  -4   6   7   29.74    4.39
  -4   6   7   22.19    4.18
   3  -6  -7    1.35    1.75
   3  -6  -7    0.38    2.93
   3  -6  -7   -4.12    2.92
  -3   6   7    2.35    3.21
   2  -6  -7   22.70    4.68
   2  -6  -7   16.31    3.61
  -2   6   7   18.73    2.50
  -2   6   7   15.82    3.59
  -2   6   7   20.49    3.55
   1  -6  -7    5.56    3.61
   1  -6  -7    6.67    2.88
  -1   6   7    2.22    3.09
  -1   6   7    5.20    2.42
  -1   6   7    4.48    2.67
   0  -6  -7    0.02    2.76
   0  -6  -7   -1.38    3.47
   0   6   7   -0.57    2.57
   0   6   7    2.27    2.92
   0   6   7   -0.47    2.76
  -1  -6  -7   -4.85    2.64
  -1  -6  -7    3.86    3.28
   1   6   7    0.98    3.05
   1   6   7    0.46    3.53
   1   6   7    2.97    3.27
  -2  -6  -7    4.67    4.00
  -2  -6  -7   -1.66    3.00
   2   6   7   -0.56    2.53
   2   6   7    1.18    2.90
  -3  -6  -7   36.40    6.04
  -3  -6  -7   34.60    5.64
   3   6   7   22.78    5.54
  -4  -6  -7    5.56    4.80
  -4  -6  -7    5.66    5.29
   4   6   7   -1.66    3.61
  -5  -6  -7   -2.24    4.32
  -5  -6  -7    0.34    5.45
   5   6   7    5.35    5.81
  -6   7   7   -5.26    4.11
   5  -7  -7   12.46    4.24
  -5   7   7   12.34    4.40
   4  -7  -7    3.53    3.27
  -4   7   7    2.13    3.81
   3  -7  -7   -0.62    2.92
   3  -7  -7    3.22    4.24
   3  -7  -7   -0.58    2.07
  -3   7   7    2.89    3.04
  -3   7   7    1.60    2.92
   2  -7  -7   -6.55    3.78
   2  -7  -7    0.51    2.97
  -2   7   7   -0.70    3.12
  -2   7   7   -0.38    2.14
  -2   7   7    0.42    2.82
   1  -7  -7    7.72    3.46
   1  -7  -7    4.09    3.07
  -1   7   7   12.24    3.40
  -1   7   7   10.62    3.51
  -1   7   7    5.03    2.84
   0  -7  -7   31.55    4.93
   0  -7  -7   31.41    4.86
   0   7   7   31.88    4.38
   0   7   7   36.95    4.77
   0   7   7   26.12    4.78
  -1  -7  -7   39.66    5.68
  -1  -7  -7   41.12    5.69
   1   7   7   51.18    5.70
   1   7   7   41.38    5.42
   1   7   7   40.10    5.76
  -2  -7  -7   -1.57    2.81
  -2  -7  -7    6.81    4.11
   2   7   7    0.65    4.35
   2   7   7   -2.96    4.04
  -3  -7  -7   52.70    6.94
  -3  -7  -7   48.50    6.16
   3   7   7   34.44    5.87
  -4  -7  -7    8.26    5.40
  -4  -7  -7    4.31    3.93
   4   7   7    5.49    5.58
  -6   8   7    8.01    4.83
  -5   8   7    6.64    4.13
   4  -8  -7    9.47    3.86
  -4   8   7   12.57    4.26
   3  -8  -7    4.35    3.72
   3  -8  -7    0.53    4.18
  -3   8   7    2.97    3.34
   2  -8  -7    2.60    3.94
   2  -8  -7   -3.50    3.12
  -2   8   7   -3.32    2.80
  -2   8   7    4.35    2.63
  -2   8   7   -2.84    3.31
   1  -8  -7   -3.91    3.66
   1  -8  -7    2.59    3.50
  -1   8   7    0.18    3.66
  -1   8   7    1.68    3.21
  -1   8   7    2.42    2.68
   0  -8  -7    4.54    3.88
   0  -8  -7    3.48    3.67
   0   8   7   -0.13    3.32
   0   8   7    7.77    3.98
   0   8   7    9.98    3.45
  -1  -8  -7   51.39    6.30
  -1  -8  -7   43.96    5.75
   1   8   7   46.45    5.87
   1   8   7   42.55    5.84
  -2  -8  -7    7.36    4.39
  -2  -8  -7    7.03    4.32
   2   8   7    0.13    4.45
   2   8   7   -2.12    4.17
  -3  -8  -7   10.36    5.00
  -3  -8  -7    0.70    4.62
   3   8   7   -2.53    5.03
   3   8   7   -7.85    4.86
  -4  -8  -7   17.27    4.97
  -4  -8  -7   14.39    5.86
   4   8   7   17.14    5.10
   4   8   7   12.13    6.35
  -5   9   7   -0.40    4.31
   4  -9  -7   -1.39    3.82
  -4   9   7    2.54    3.95
   3  -9  -7   -2.67    4.04
   3  -9  -7   -1.37    3.32
  -3   9   7    1.82    3.45
  -3   9   7    7.84    2.86
   2  -9  -7   24.18    4.70
   2  -9  -7   21.15    4.94
  -2   9   7   17.03    4.60
  -2   9   7   25.70    3.79
   1  -9  -7   11.49    4.21
   1  -9  -7   19.48    4.53
  -1   9   7   14.72    4.54
  -1   9   7   14.83    3.47
   0  -9  -7   37.84    5.83
   0  -9  -7   34.64    5.32
   0   9   7   38.32    6.00
   0   9   7   36.66    5.12
  -1  -9  -7    3.74    4.33
  -1  -9  -7    0.36    3.86
   1   9   7    8.45    3.59
   1   9   7   -0.27    3.87
  -2  -9  -7    1.76    4.53
  -2  -9  -7    8.72    4.44
   2   9   7   -2.15    3.45
   2   9   7    4.16    4.96
  -3  -9  -7    2.33    4.92
  -3  -9  -7    1.00    4.63
   3   9   7   -2.80    5.12
   3   9   7   -6.19    3.59
  -5  10   7    7.75    4.99
   3 -10  -7   17.35    4.56
  -3  10   7   18.40    4.90
   2 -10  -7    2.65    3.88
   2 -10  -7    5.08    3.35
  -2  10   7    0.99    3.17
  -2  10   7    3.56    4.15
   1 -10  -7    8.60    4.31
   1 -10  -7   -1.79    3.87
  -1  10   7    1.41    3.18
  -1  10   7    1.42    3.53
   0 -10  -7    9.84    4.47
   0 -10  -7    2.50    4.00
   0  10   7    6.07    3.91
   0  10   7    8.08    3.70
  -1 -10  -7    5.73    4.36
  -1 -10  -7    3.52    4.12
   1  10   7    4.85    4.45
   1  10   7    9.78    5.01
  -2 -10  -7   11.91    5.32
  -2 -10  -7   11.41    4.72
   2  10   7    7.62    5.53
   2  10   7    2.04    5.14
  -3 -10  -7    9.22    5.02
  -3 -10  -7   12.25    5.88
   3  10   7   -5.39    5.62
   3  10   7    4.18    4.74
  -3  11   7    3.21    4.52
   2 -11  -7    7.41    4.38
   2 -11  -7    8.22    4.61
  -2  11   7   10.14    3.85
  -2  11   7   13.92    4.07
   1 -11  -7   -0.03    3.99
   1 -11  -7   11.13    4.75
  -1  11   7   -1.65    3.66
  -1  11   7   -1.23    4.46
   0 -11  -7    0.77    4.40
   0 -11  -7   11.92    4.53
   0  11   7   11.49    4.44
   0  11   7   10.12    5.24
  -1 -11  -7    2.78    4.73
  -1 -11  -7   -0.62    3.89
   1  11   7    9.24    5.63
   1  11   7   -0.86    4.59
  -2 -11  -7    2.90    4.58
  -2 -11  -7    1.96    4.96
   2  11   7   -2.39    5.34
   2  11   7   -0.15    5.51
   2 -12  -7   -2.44    4.39
  -2  12   7    7.93    5.15
   1 -12  -7    8.01    4.65
  -1  12   7   -0.66    3.69
  -1  12   7    0.63    4.91
   0 -12  -7   -0.46    3.53
   0 -12  -7   10.85    4.60
   0  12   7    9.75    4.60
   0  12   7    2.86    5.44
   0  13  -8    2.25    4.30
   0  13  -8    0.55    5.51
   0 -13   8    3.85    4.67
  -1  13  -8    7.62    4.42
  -1  13  -8   12.86    6.33
   1 -13   8    3.73    6.25
  -2  13  -8   13.18    5.99
  -2  13  -8    3.67    5.93
   2 -13   8    7.65    6.35
   2  12  -8   10.83    6.46
   2  12  -8   23.76    6.61
  -2 -12   8   15.77    5.36
   1  12  -8   17.15    6.14
   1  12  -8   18.57    5.09
  -1 -12   8   20.67    6.77
   0  12  -8    2.48    5.45
   0  12  -8    9.17    5.44
   0 -12   8   -0.33    5.34
  -1  12  -8    2.81    5.17
  -1  12  -8   11.63    5.63
   1 -12   8    3.37    5.60
  -2  12  -8   -1.26    5.04
  -2  12  -8   -4.02    5.24
   2 -12   8   -0.71    5.48
  -3  12  -8   -3.25    5.29
   3 -12   8   10.33    4.65
   3  11  -8    3.60    4.81
   3  11  -8   13.20    5.77
  -3 -11   8    3.40    5.76
   2  11  -8    2.05    5.38
   2  11  -8    5.20    5.84
  -2 -11   8   11.63    5.65
   1  11  -8    7.50    5.56
   1  11  -8   16.84    5.57
  -1 -11   8    9.46    5.73
   0  11  -8   10.26    5.11
   0  11  -8    4.40    3.83
   0 -11   8    1.95    5.21
  -1  11  -8   -3.56    3.41
  -1  11  -8    9.45    5.06
   1 -11   8   -5.48    3.50
  -2  11  -8    9.14    5.32
  -2  11  -8   11.53    4.17
   2 -11   8   11.52    5.66
  -3  11  -8   -1.90    4.93
   3 -11   8    5.87    5.58
  -4  11  -8   16.68    6.22
   4 -11   8    3.64    4.26
   3  10  -8   -1.63    4.96
   3  10  -8    0.09    4.03
  -3 -10   8   -2.24    5.15
   2  10  -8   14.56    5.42
   2  10  -8   13.85    5.67
  -2 -10   8   13.77    5.57
   1  10  -8   -3.43    4.66
   1  10  -8   -0.54    3.61
  -1 -10   8    5.82    4.94
   0  10  -8    2.40    3.42
   0  10  -8    4.25    3.54
   0 -10   8   -2.92    3.25
  -1  10  -8   12.17    5.05
  -1  10  -8   13.42    4.98
   1 -10   8   10.16    4.11
  -2  10  -8    5.67    3.70
  -2  10  -8    3.85    4.48
   2 -10   8   -1.06    3.58
  -3  10  -8    1.63    4.72
  -3  10  -8   -1.96    3.47
   3 -10   8    6.28    3.95
  -4  10  -8   -3.21    4.93
   4 -10   8    5.67    5.44
  -5  10  -8    0.88    5.47
   5 -10   8   -7.23    4.05
   4   9  -8   -1.24    4.94
   4   9  -8    5.45    3.19
   4   9  -8   -4.13    3.93
  -4  -9   8    1.22    3.90
   3   9  -8   24.93    4.79
   3   9  -8   21.80    5.05
  -3  -9   8   19.32    5.89
   2   9  -8   -0.71    4.41
   2   9  -8   -2.30    4.48
  -2  -9   8    8.08    3.89
   1   9  -8   -5.34    4.50
   1   9  -8   -0.78    4.16
  -1  -9   8    0.89    4.34
   0   9  -8   13.47    4.81
   0   9  -8   19.38    4.97
   0  -9   8   16.58    5.01
  -1   9  -8    4.81    3.25
  -1   9  -8    2.74    4.52
   1  -9   8    2.27    4.24
  -2   9  -8   56.85    6.95
  -2   9  -8   59.55    7.16
   2  -9   8   54.17    7.17
  -3   9  -8   -0.21    3.22
   3  -9   8   -2.01    3.23
  -4   9  -8   -3.73    4.52
   4  -9   8   -3.38    4.96
  -5   9  -8    6.62    5.48
   5  -9   8   14.62    5.02
   5   8  -8    8.51    5.89
  -5  -8   8   10.18    5.81
   4   8  -8   -4.19    4.78
   4   8  -8    5.14    4.88
   4   8  -8   12.66    3.32
  -4  -8   8    0.72    3.76
   3   8  -8    5.05    4.44
   3   8  -8   -0.69    3.43
  -3  -8   8    4.21    4.52
   2   8  -8    4.79    4.06
   2   8  -8    6.64    3.59
  -2  -8   8    4.68    4.27
   1   8  -8    1.24    3.91
   1   8  -8    9.67    3.62
  -1  -8   8   -1.53    4.00
  -1  -8   8    0.31    2.94
   0   8  -8   20.06    4.04
   0   8  -8   11.05    4.31
   0  -8   8   10.53    4.44
   0  -8   8   15.10    4.38
  -1   8  -8   12.37    4.14
  -1   8  -8    1.80    3.08
   1  -8   8    1.81    2.89
   1  -8   8    4.39    4.20
  -2   8  -8   -2.96    1.54
  -2   8  -8   -0.92    4.25
   2  -8   8    1.84    4.24
  -3   8  -8   -0.26    4.07
   3  -8   8    3.81    3.30
  -4   8  -8    4.89    3.47
   4  -8   8   -1.26    3.46
  -5   8  -8    8.62    4.12
   5  -8   8   -6.01    5.21
   5   7  -8    6.95    5.04
   5   7  -8    0.86    4.94
  -5  -7   8    1.76    4.94
   4   7  -8   21.53    5.28
   4   7  -8   20.87    5.69
   4   7  -8   19.63    3.58
  -4  -7   8   16.37    5.14
   3   7  -8   49.90    6.32
   3   7  -8   42.01    5.72
  -3  -7   8   48.61    6.22
  -3  -7   8   55.43    6.70
   2   7  -8    0.44    4.27
   2   7  -8    6.66    3.87
  -2  -7   8    3.35    3.81
  -2  -7   8   -1.96    3.63
   1   7  -8   62.66    6.70
   1   7  -8   63.87    6.34
  -1  -7   8   56.33    6.60
  -1  -7   8   66.34    6.76
   0   7  -8    5.01    3.46
   0   7  -8    2.11    2.85
   0  -7   8    0.80    3.36
   0  -7   8    6.85    3.90
  -1   7  -8    0.00    2.77
  -1   7  -8    6.50    3.58
   1  -7   8    4.97    3.72
   1  -7   8    5.59    3.56
  -2   7  -8    6.53    3.98
   2  -7   8   10.41    3.20
   2  -7   8   13.24    3.57
  -3   7  -8    5.48    3.16
   3  -7   8    2.37    4.11
  -4   7  -8    2.31    4.23
   4  -7   8   -2.94    4.60
  -5   7  -8    9.29    4.94
  -5   7  -8   -2.31    4.44
   5  -7   8   -2.10    3.77
  -6   7  -8   12.00    4.39
  -6   7  -8   -4.36    5.13
   6  -7   8   -0.64    4.51
   5   6  -8   -1.90    4.84
   5   6  -8    1.83    4.59
  -5  -6   8    3.17    4.82
   4   6  -8   17.02    4.97
   4   6  -8   24.81    5.50
   4   6  -8   26.07    3.78
  -4  -6   8   23.44    5.21
   3   6  -8   63.34    6.56
   3   6  -8   65.56    6.77
   3   6  -8   79.84    7.42
  -3  -6   8   61.42    7.14
  -3  -6   8   72.95    7.19
   2   6  -8   -1.46    3.05
   2   6  -8   -5.03    3.51
  -2  -6   8    4.28    3.64
  -2  -6   8   -2.03    3.09
   1   6  -8  143.29   10.13
   1   6  -8  118.21   10.47
  -1  -6   8  152.78   10.76
  -1  -6   8  133.48   10.56
   0   6  -8   37.91    4.17
   0   6  -8   30.40    4.24
   0  -6   8   34.34    4.67
   0  -6   8   40.04    4.28
  -1   6  -8    3.57    3.00
  -1   6  -8    2.63    0.87
  -1   6  -8   -0.43    2.48
   1  -6   8    2.82    2.42
   1  -6   8    2.29    3.15
  -2   6  -8    7.32    3.42
  -2   6  -8    5.52    3.78
   2  -6   8    7.53    2.94
   2  -6   8    1.51    3.35
  -3   6  -8   15.74    4.16
   3  -6   8    4.74    4.13
  -4   6  -8    5.72    4.18
  -4   6  -8    6.89    4.30
   4  -6   8   -1.28    4.47
  -5   6  -8    5.39    3.79
  -5   6  -8    0.69    4.56
   5  -6   8    7.78    5.40
  -6   6  -8   -6.42    4.74
  -6   6  -8    6.86    3.60
   6  -6   8    0.88    6.10
   6   5  -8    8.27    5.01
  -6  -5   8    2.08    5.06
   5   5  -8    2.38    4.23
   5   5  -8   -9.06    4.12
  -5  -5   8    3.70    4.46
   4   5  -8   23.99    5.29
   4   5  -8   39.22    4.19
   4   5  -8   31.19    5.25
  -4  -5   8   35.08    5.34
  -4  -5   8   31.96    5.14
   3   5  -8    4.57    2.84
   3   5  -8    3.08    3.57
   3   5  -8   10.07    3.91
  -3  -5   8    6.91    3.53
  -3  -5   8    6.09    3.66
   2   5  -8   21.33    3.99
   2   5  -8   23.17    3.73
   2   5  -8   24.06    4.24
  -2  -5   8   23.50    4.02
  -2  -5   8    9.44    3.59
   1   5  -8    2.58    2.25
   1   5  -8    0.01    3.02
   1   5  -8    3.27    2.65
  -1  -5   8   -1.98    2.54
  -1  -5   8   -1.95    3.01
  -1  -5   8    3.81    2.79
   0   5  -8   61.10    5.60
   0   5  -8   72.66    5.58
   0   5  -8   68.94    5.51
   0  -5   8   62.49    5.61
   0  -5   8   39.93    5.31
   0  -5   8   68.15    5.93
  -1   5  -8    0.55    2.47
  -1   5  -8   -0.02    2.17
  -1   5  -8    2.17    2.47
  -1   5  -8    2.43    1.43
   1  -5   8    0.72    2.72
   1  -5   8    3.34    2.71
   1  -5   8    0.57    2.27
  -2   5  -8    7.75    3.20
   2  -5   8   -0.69    3.03
   2  -5   8    0.73    2.31
  -3   5  -8    3.64    2.67
  -3   5  -8    2.23    4.08
   3  -5   8    1.57    3.51
   3  -5   8    1.17    2.94
  -4   5  -8    5.87    3.76
  -4   5  -8   -5.66    3.61
   4  -5   8   -1.93    3.06
  -5   5  -8    8.37    3.44
  -5   5  -8    7.14    3.58
   5  -5   8    8.17    4.21
  -6   5  -8   12.11    4.46
   6  -5   8   18.90    6.64
   6   4  -8   14.15    5.01
  -6  -4   8    7.41    4.96
   5   4  -8    2.66    4.12
   5   4  -8    1.51    3.99
  -5  -4   8    3.64    4.24
   4   4  -8    2.59    2.17
   4   4  -8    2.43    3.53
   4   4  -8   -2.00    3.36
  -4  -4   8    0.32    3.50
  -4  -4   8   -0.23    3.20
   3   4  -8   62.45    6.00
   3   4  -8   52.92    5.72
   3   4  -8   45.51    5.11
  -3  -4   8   49.00    5.41
  -3  -4   8   50.73    5.61
   2   4  -8   -0.56    2.18
   2   4  -8    2.42    2.48
   2   4  -8    0.87    2.82
   2   4  -8    3.00    2.94
  -2  -4   8    3.39    3.00
  -2  -4   8    3.62    2.49
  -2  -4   8    1.14    2.62
   1   4  -8   27.07    3.37
   1   4  -8   20.49    4.06
   1   4  -8   20.12    3.07
   1   4  -8   26.05    3.15
  -1  -4   8   20.69    3.11
  -1  -4   8   22.50    3.23
  -1  -4   8   29.92    3.68
   0   4  -8    5.95    3.48
   0   4  -8    4.45    2.20
   0   4  -8   10.85    2.18
   0   4  -8    7.21    1.40
   0   4  -8    8.05    2.34
   0  -4   8    5.79    2.48
   0  -4   8    1.62    2.12
   0  -4   8   10.62    2.79
  -1   4  -8    8.55    3.12
  -1   4  -8   13.48    2.73
  -1   4  -8   13.48    2.64
  -1   4  -8   11.78    2.09
  -1   4  -8    9.09    3.75
   1  -4   8   16.36    2.50
   1  -4   8    9.29    2.57
   1  -4   8   13.91    2.83
  -2   4  -8   -2.14    3.62
  -2   4  -8    5.12    2.10
  -2   4  -8    2.71    2.19
   2  -4   8   -0.01    2.79
   2  -4   8    2.34    2.92
  -3   4  -8    4.14    3.63
  -3   4  -8    2.89    2.51
   3  -4   8   -2.05    2.62
   3  -4   8   -1.72    3.18
  -4   4  -8   67.46    7.38
  -4   4  -8   81.37    7.07
   4  -4   8   68.80    7.89
  -5   4  -8    2.54    3.27
  -5   4  -8   -1.06    4.14
   5  -4   8   -8.45    4.47
  -6   4  -8   23.49    5.89
   6  -4   8   15.36    6.75
   6   3  -8    2.63    4.58
  -6  -3   8    6.46    4.66
   5   3  -8    4.85    3.95
   5   3  -8    2.74    3.66
  -5  -3   8    4.25    3.79
   4   3  -8    0.96    3.35
   4   3  -8    4.72    3.59
   4   3  -8    3.01    2.35
  -4  -3   8    6.22    3.32
  -4  -3   8   -6.13    2.96
   3   3  -8   53.70    5.14
   3   3  -8   52.60    5.23
   3   3  -8   53.95    5.15
  -3  -3   8   40.88    5.16
  -3  -3   8   46.53    5.29
   2   3  -8   30.15    3.69
   2   3  -8   31.88    3.20
   2   3  -8   29.71    4.00
   2   3  -8   28.42    3.56
  -2  -3   8   30.80    3.67
  -2  -3   8   34.57    3.60
  -2  -3   8   26.57    3.34
   1   3  -8   75.06    6.17
   1   3  -8   79.58    5.92
   1   3  -8   77.83    6.96
   1   3  -8   71.66    5.76
  -1  -3   8   85.51    6.25
  -1  -3   8   81.56    6.11
  -1  -3   8   76.59    6.07
   0   3  -8   30.82    2.64
   0   3  -8   25.28    4.13
   0   3  -8   27.83    2.94
   0   3  -8   22.42    2.60
   0   3  -8   21.30    3.22
   0  -3   8   26.28    2.99
   0  -3   8   24.93    3.28
   0  -3   8   27.47    3.07
  -1   3  -8   24.95    2.92
  -1   3  -8   27.54    3.20
  -1   3  -8   27.52    3.00
  -1   3  -8   30.83    3.94
   1  -3   8   22.04    3.18
   1  -3   8   23.76    3.17
   1  -3   8   23.25    3.14
  -2   3  -8   13.96    2.88
  -2   3  -8   12.64    2.95
  -2   3  -8    5.99    2.53
  -2   3  -8    9.20    2.86
   2  -3   8   11.50    3.29
   2  -3   8    8.38    2.91
   2  -3   8   12.19    3.39
  -3   3  -8    1.46    2.94
  -3   3  -8   -4.36    2.95
   3  -3   8    2.34    3.50
  -4   3  -8    1.79    2.87
  -4   3  -8   -6.69    3.13
   4  -3   8   -1.20    4.30
  -5   3  -8   -1.77    3.02
  -5   3  -8    0.27    3.09
   5  -3   8    2.02    4.98
  -6   3  -8    5.22    4.92
   6  -3   8   -0.99    6.10
   6   2  -8   -4.69    3.50
  -6  -2   8    0.09    4.03
   5   2  -8   30.00    4.77
   5   2  -8   52.29    6.03
  -5  -2   8   35.10    5.27
   4   2  -8    4.65    3.06
   4   2  -8    0.28    2.98
   4   2  -8    3.53    2.54
  -4  -2   8    7.38    3.38
  -4  -2   8    1.97    2.95
   3   2  -8   13.64    2.39
   3   2  -8   19.72    3.24
   3   2  -8   14.91    2.97
   3   2  -8   15.35    2.98
  -3  -2   8   16.35    2.95
  -3  -2   8   13.86    3.15
   2   2  -8   17.03    3.12
   2   2  -8   18.74    2.88
   2   2  -8   24.21    2.32
  -2  -2   8   14.49    2.48
  -2  -2   8   18.83    2.62
   1   2  -8   31.27    4.21
   1   2  -8   31.27    3.24
   1   2  -8   32.36    2.75
   1   2  -8   35.54    3.28
  -1  -2   8   30.74    2.98
  -1  -2   8   36.79    3.36
  -1  -2   8   32.37    3.05
   0   2  -8  114.90    7.31
   0   2  -8   99.88    7.36
   0   2  -8  105.78    8.38
   0   2  -8  109.29    7.51
   0  -2   8  113.63    7.57
   0  -2   8  100.95    7.42
   0  -2   8  102.60    7.41
  -1   2  -8   87.07    8.10
  -1   2  -8   93.36    6.79
  -1   2  -8   98.62    7.05
  -1   2  -8  100.15    7.03
   1  -2   8   95.11    7.04
   1  -2   8   99.79    7.32
   1  -2   8   89.94    7.11
  -2   2  -8    9.85    2.21
  -2   2  -8    4.26    2.43
  -2   2  -8    8.44    2.71
  -2   2  -8    4.90    3.16
   2  -2   8   10.42    2.67
   2  -2   8    8.32    2.53
   2  -2   8    7.48    2.26
  -3   2  -8    9.62    3.27
  -3   2  -8   11.55    3.44
   3  -2   8    7.01    3.69
   3  -2   8   10.98    3.48
  -4   2  -8   39.84    4.90
  -4   2  -8   41.09    5.43
   4  -2   8   27.42    5.76
  -5   2  -8   12.64    3.40
  -5   2  -8    5.27    4.39
   5  -2   8    7.10    5.40
  -6   2  -8    1.65    3.46
   6  -2   8    6.75    4.74
   6   1  -8   -1.70    3.67
  -6  -1   8    3.11    3.98
   5   1  -8   23.10    4.59
   5   1  -8   19.70    3.98
  -5  -1   8   24.71    4.49
   4   1  -8   42.92    4.92
   4   1  -8   37.23    4.46
   4   1  -8   40.18    4.35
  -4  -1   8   42.87    5.01
  -4  -1   8   27.91    4.35
   3   1  -8   70.33    5.55
   3   1  -8   73.94    5.74
   3   1  -8   65.01    6.23
   3   1  -8   68.25    5.90
  -3  -1   8   67.25    5.70
  -3  -1   8   71.75    5.94
   2   1  -8  115.52    7.74
   2   1  -8  113.98    7.72
   2   1  -8  118.15    8.86
  -2  -1   8  105.64    7.92
  -2  -1   8  114.77    7.91
   1   1  -8    8.39    1.84
   1   1  -8   10.29    2.91
   1   1  -8   10.13    2.34
  -1  -1   8   10.33    1.97
  -1  -1   8    9.76    1.30
  -1  -1   8   10.63    1.33
   0   1  -8   46.64    3.43
   0   1  -8   48.52    3.99
   0   1  -8   45.30    4.51
   0  -1   8   46.89    3.94
   0  -1   8   40.14    3.50
   0  -1   8   45.67    3.57
  -1   1  -8   12.47    3.23
  -1   1  -8   13.66    2.37
  -1   1  -8   11.09    1.90
  -1   1  -8   12.31    2.01
   1  -1   8    9.36    2.62
   1  -1   8   10.71    2.15
   1  -1   8    8.76    2.17
  -2   1  -8    6.76    3.05
  -2   1  -8   12.27    2.69
  -2   1  -8    9.75    2.51
  -2   1  -8   10.09    3.12
   2  -1   8    7.19    2.82
   2  -1   8   10.35    2.56
  -3   1  -8    9.41    3.31
  -3   1  -8   19.86    3.57
   3  -1   8    6.09    3.76
   3  -1   8    6.65    3.36
  -4   1  -8   65.57    6.50
  -4   1  -8   59.37    6.73
   4  -1   8   64.29    7.03
  -5   1  -8    7.43    4.38
  -5   1  -8    8.64    3.14
   5  -1   8    9.51    5.22
  -6   1  -8   -2.43    4.63
   6  -1   8    2.00    5.84
  -7   0   8   -3.19    4.66
   6   0  -8   -0.10    3.08
  -6   0   8   -4.97    4.18
   5   0  -8    5.81    3.13
   5   0  -8    5.23    3.22
  -5   0   8   10.45    3.65
   4   0  -8   13.30    2.80
   4   0  -8    4.89    3.03
   4   0  -8   10.61    2.92
  -4   0   8   10.43    3.06
  -4   0   8   19.47    3.37
   3   0  -8   22.06    2.76
   3   0  -8   24.80    3.92
   3   0  -8   25.19    2.87
   3   0  -8   25.82    3.14
  -3   0   8   28.70    3.27
  -3   0   8   25.63    3.20
   2   0  -8    5.95    1.39
   2   0  -8    4.63    1.18
   2   0  -8    3.88    2.55
   2   0  -8   -1.66    2.46
  -2   0   8    5.29    1.45
  -2   0   8    2.52    1.40
   1   0  -8   12.38    3.17
   1   0  -8   10.64    2.29
  -1   0   8   13.26    1.68
   0   0  -8   37.85    2.88
   0   0  -8   40.49    2.95
   0   0  -8   41.96    4.74
   0   0  -8   39.89    3.77
   0   0   8   39.16    3.21
   0   0   8   38.77    3.44
   0   0   8   44.50    3.14
  -1   0  -8  103.14    8.27
  -1   0  -8  118.02    9.23
  -1   0  -8  134.60    8.69
  -1   0  -8  121.64    8.50
   1   0   8  125.04    8.65
   1   0   8  125.83    8.54
  -2   0  -8   63.30    5.72
  -2   0  -8   64.87    5.85
  -2   0  -8   67.50    5.45
  -2   0  -8   59.56    5.58
   2   0   8   56.36    5.54
   2   0   8   62.02    5.83
  -3   0  -8   12.25    3.59
  -3   0  -8   13.15    3.43
  -3   0  -8    9.06    3.96
   3   0   8   12.94    3.68
   3   0   8   17.46    4.10
  -4   0  -8  123.24    9.84
  -4   0  -8  113.78   10.02
   4   0   8  140.76   11.09
  -5   0  -8   21.12    5.13
  -5   0  -8   19.04    3.67
   5   0   8   16.16    4.58
  -6   0  -8   -4.68    4.54
   6   0   8    2.26    4.34
  -7   1   8    3.63    4.58
  -6   1   8    2.33    4.33
   5  -1  -8    8.54    3.57
  -5   1   8    4.65    3.30
   4  -1  -8   84.26    6.46
   4  -1  -8   88.66    7.27
  -4   1   8   77.38    7.09
  -4   1   8   93.58    7.24
   3  -1  -8    8.24    1.64
   3  -1  -8   11.91    2.11
   3  -1  -8    4.68    3.03
  -3   1   8   12.22    2.51
  -3   1   8   14.98    2.47
   2  -1  -8   44.24    3.22
   2  -1  -8   42.46    3.24
   2  -1  -8   46.66    4.54
   2  -1  -8   39.39    4.32
  -2   1   8   43.43    3.54
  -2   1   8   43.90    3.49
   1  -1  -8   -3.12    2.43
   1  -1  -8   -2.75    2.16
  -1   1   8    4.01    0.67
  -1   1   8    3.27    0.97
   0  -1  -8    4.18    2.41
   0  -1  -8    7.13    2.84
   0  -1  -8    7.45    1.24
   0  -1  -8    7.87    1.24
   0   1   8    7.19    1.55
   0   1   8   10.28    1.49
  -1  -1  -8    3.68    1.59
  -1  -1  -8    1.43    2.94
  -1  -1  -8    1.73    2.90
  -1  -1  -8    2.56    2.01
   1   1   8    4.00    2.01
   1   1   8    4.48    2.00
  -2  -1  -8   -1.54    2.20
  -2  -1  -8    1.61    2.52
  -2  -1  -8   -1.08    2.28
  -2  -1  -8    1.61    3.06
   2   1   8    5.07    2.78
   2   1   8    1.04    2.44
  -3  -1  -8   24.34    4.24
  -3  -1  -8   24.55    4.99
  -3  -1  -8   21.73    4.09
   3   1   8   25.39    4.36
   3   1   8   35.71    4.34
  -4  -1  -8    4.50    4.00
  -4  -1  -8    0.57    3.57
  -4  -1  -8    2.53    3.00
   4   1   8    1.23    4.36
  -5  -1  -8    6.23    4.47
   5   1   8    3.77    3.91
  -6  -1  -8   -8.72    4.38
   6   1   8    0.35    5.97
  -7   2   8    5.95    4.75
  -6   2   8    7.36    4.45
   5  -2  -8   42.83    4.88
  -5   2   8   35.87    5.41
   4  -2  -8    7.84    3.02
  -4   2   8   17.43    3.39
  -4   2   8   15.02    3.16
   3  -2  -8   15.76    2.44
   3  -2  -8   14.96    1.36
  -3   2   8   17.20    2.75
  -3   2   8   14.87    2.60
   2  -2  -8   15.06    1.81
   2  -2  -8   16.81    3.80
   2  -2  -8   13.04    3.44
   2  -2  -8   15.25    1.82
  -2   2   8   15.02    2.07
  -2   2   8   17.12    2.04
   1  -2  -8    0.51    2.77
   1  -2  -8    2.55    0.82
   1  -2  -8    0.89    2.40
   1  -2  -8    1.69    0.85
  -1   2   8    1.58    1.20
  -1   2   8    2.86    1.23
  -1   2   8    2.65    0.76
   0  -2  -8   26.09    2.63
   0  -2  -8   25.94    3.40
   0  -2  -8   22.37    4.23
   0   2   8   27.38    2.74
   0   2   8   27.08    2.64
  -1  -2  -8   13.93    2.55
  -1  -2  -8   16.63    3.57
  -1  -2  -8   12.43    2.53
  -1  -2  -8   15.59    3.18
   1   2   8   14.39    2.65
   1   2   8   19.21    2.61
  -2  -2  -8   44.52    4.72
  -2  -2  -8   45.21    5.57
  -2  -2  -8   45.76    5.47
   2   2   8   40.37    4.64
   2   2   8   57.17    5.08
  -3  -2  -8   -0.24    3.29
  -3  -2  -8   -0.17    3.25
  -3  -2  -8    2.92    3.23
   3   2   8    5.64    3.49
   3   2   8    1.12    2.63
  -4  -2  -8  144.16   11.35
  -4  -2  -8  125.33   10.95
  -4  -2  -8  132.54   10.70
   4   2   8  140.64   10.97
  -5  -2  -8   12.68    4.12
  -5  -2  -8   20.42    6.01
   5   2   8   12.39    5.44
  -6  -2  -8   -1.34    5.08
  -6  -2  -8   -5.65    5.77
   6   2   8   -0.69    3.95
  -6   3   8   -1.21    4.04
   5  -3  -8    3.14    1.91
   5  -3  -8    5.70    3.15
  -5   3   8   -4.79    3.05
   4  -3  -8   19.92    2.23
   4  -3  -8   23.35    3.51
  -4   3   8   28.12    4.05
  -4   3   8   26.16    3.94
   3  -3  -8   39.80    3.70
   3  -3  -8   28.96    3.42
  -3   3   8   26.41    3.44
  -3   3   8   36.05    3.83
   2  -3  -8   18.33    2.33
   2  -3  -8   16.83    3.22
  -2   3   8   17.14    2.41
   1  -3  -8   40.69    3.67
   1  -3  -8   41.92    4.98
   1  -3  -8   39.30    4.48
  -1   3   8   43.24    3.98
  -1   3   8   44.77    3.84
  -1   3   8   44.66    3.18
   0  -3  -8   20.62    2.69
   0  -3  -8   20.30    3.83
   0  -3  -8   25.38    2.81
   0  -3  -8   21.70    3.24
   0   3   8   28.22    2.92
   0   3   8   25.57    3.04
  -1  -3  -8    4.44    3.71
  -1  -3  -8    0.14    2.02
  -1  -3  -8   -2.45    3.06
  -1  -3  -8    2.10    2.59
   1   3   8    5.23    2.44
   1   3   8    4.16    2.18
  -2  -3  -8  103.53    8.28
  -2  -3  -8  110.26    8.14
  -2  -3  -8  106.11    9.35
   2   3   8  116.58    8.64
   2   3   8   89.00    8.69
  -3  -3  -8   10.67    3.80
  -3  -3  -8   13.56    4.81
  -3  -3  -8   11.45    4.42
   3   3   8   12.16    4.31
   3   3   8   13.58    4.05
  -4  -3  -8   15.91    3.89
  -4  -3  -8   16.66    5.36
   4   3   8   20.01    5.04
  -5  -3  -8    7.76    3.89
  -5  -3  -8    2.17    4.07
   5   3   8    4.79    5.18
  -6  -3  -8  -13.18    4.66
  -6  -3  -8    6.25    6.43
   6   3   8   -5.20    5.55
  -6   4   8    3.58    3.95
   5  -4  -8   19.07    3.66
  -5   4   8   19.70    4.45
   4  -4  -8    4.34    2.76
   4  -4  -8    0.98    1.29
  -4   4   8    3.32    2.75
  -4   4   8    6.74    3.36
   3  -4  -8    1.86    2.11
  -3   4   8    1.46    2.27
  -3   4   8   -0.20    2.53
   2  -4  -8   -3.97    3.34
   2  -4  -8    0.44    2.12
   2  -4  -8   -1.53    1.79
  -2   4   8    1.18    2.05
  -2   4   8   -0.38    1.96
   1  -4  -8    8.20    2.18
   1  -4  -8    6.68    2.09
   1  -4  -8   12.09    3.69
  -1   4   8   11.22    2.35
  -1   4   8    6.39    1.67
  -1   4   8   13.05    2.37
   0  -4  -8   72.11    6.26
   0  -4  -8   72.41    6.01
   0  -4  -8   79.28    6.31
   0   4   8   81.99    6.32
   0   4   8   74.18    6.27
  -1  -4  -8  103.58    8.25
  -1  -4  -8   96.46    8.12
   1   4   8  106.00    8.28
   1   4   8  119.40    8.62
  -2  -4  -8   -2.71    3.93
  -2  -4  -8    3.83    3.11
   2   4   8   -1.66    2.92
   2   4   8    1.92    3.42
  -3  -4  -8   -0.09    3.63
  -3  -4  -8    2.83    3.54
   3   4   8    3.07    2.82
   3   4   8   -1.53    3.98
  -4  -4  -8   -5.09    3.99
  -4  -4  -8   -0.15    3.81
   4   4   8    1.64    4.50
  -5  -4  -8   14.25    6.17
  -5  -4  -8   17.40    5.62
   5   4   8   19.38    5.99
  -6   5   8    3.31    4.14
   5  -5  -8    6.82    3.38
  -5   5   8   -1.23    3.69
   4  -5  -8   18.41    3.56
   4  -5  -8   16.44    1.87
  -4   5   8   11.88    3.52
  -4   5   8   16.42    3.84
   3  -5  -8   10.94    2.97
   3  -5  -8   15.38    4.85
  -3   5   8   10.16    3.03
  -3   5   8   12.10    3.21
   2  -5  -8    5.13    2.61
   2  -5  -8   -0.04    2.67
   2  -5  -8   -0.39    1.98
  -2   5   8    2.03    2.22
  -2   5   8   -1.65    1.04
  -2   5   8   -2.44    2.49
   1  -5  -8    8.02    2.37
   1  -5  -8    1.82    3.62
   1  -5  -8    2.91    2.34
  -1   5   8    4.43    1.97
  -1   5   8    5.42    2.42
  -1   5   8    8.07    2.70
   0  -5  -8    4.45    2.83
   0  -5  -8    9.76    3.73
   0   5   8    3.12    2.51
   0   5   8    3.68    2.72
   0   5   8    1.21    2.65
  -1  -5  -8   -5.06    2.62
  -1  -5  -8   -3.24    3.59
   1   5   8   -0.80    3.19
   1   5   8    0.29    2.60
  -2  -5  -8   52.59    5.42
  -2  -5  -8   42.89    6.26
   2   5   8   43.34    5.35
   2   5   8   57.99    5.96
  -3  -5  -8    0.73    3.55
  -3  -5  -8   -1.40    3.81
   3   5   8    4.54    4.34
  -4  -5  -8   -4.10    3.12
  -4  -5  -8    1.15    5.52
   4   5   8    7.24    5.00
  -5  -5  -8   -2.42    5.01
  -5  -5  -8  -13.86    5.61
   5   5   8    2.18    4.20
  -6   6   8    4.23    4.32
   5  -6  -8    7.54    3.31
  -5   6   8    6.77    3.81
   4  -6  -8    2.61    3.10
   4  -6  -8    2.27    1.49
  -4   6   8    1.10    3.12
   3  -6  -8   -0.52    3.13
   3  -6  -8    3.09    2.97
  -3   6   8    9.68    3.09
   2  -6  -8   -0.37    2.72
   2  -6  -8    0.58    2.86
  -2   6   8   -0.50    1.69
  -2   6   8    5.17    2.93
  -2   6   8    7.25    2.88
   1  -6  -8   54.66    5.37
   1  -6  -8   44.53    5.37
  -1   6   8   47.96    4.49
  -1   6   8   51.83    5.29
  -1   6   8   48.50    5.32
   0  -6  -8   19.64    3.53
   0  -6  -8    9.00    4.06
   0   6   8   12.68    3.35
   0   6   8   14.44    3.57
   0   6   8   17.44    3.63
  -1  -6  -8    7.59    4.05
  -1  -6  -8   -2.08    2.88
   1   6   8   -2.26    2.90
   1   6   8    6.41    3.81
   1   6   8    0.60    3.45
  -2  -6  -8   -3.90    2.90
  -2  -6  -8    0.96    3.54
   2   6   8   -3.09    2.77
   2   6   8    2.14    3.37
  -3  -6  -8   25.99    5.80
  -3  -6  -8   25.10    5.09
   3   6   8   23.20    5.67
  -4  -6  -8   -1.60    5.33
  -4  -6  -8   14.00    5.13
   4   6   8    4.24    3.90
  -5  -6  -8   17.15    6.14
  -5  -6  -8   10.04    5.14
   5   6   8   14.46    6.63
  -6   7   8    8.71    4.72
  -5   7   8    0.66    3.65
   4  -7  -8    3.49    3.06
  -4   7   8    3.52    3.37
   3  -7  -8   67.88    6.71
   3  -7  -8   72.62    7.37
  -3   7   8   72.73    7.09
  -3   7   8   80.39    7.02
   2  -7  -8    9.57    3.46
   2  -7  -8   11.77    3.28
  -2   7   8    7.68    2.32
  -2   7   8    8.49    3.39
  -2   7   8   13.72    3.27
   1  -7  -8   26.69    5.17
   1  -7  -8   37.14    4.64
  -1   7   8   31.61    3.97
  -1   7   8   24.43    4.96
  -1   7   8   43.36    4.76
   0  -7  -8    8.46    4.39
   0  -7  -8   10.26    3.79
   0   7   8   22.15    3.81
   0   7   8   21.55    3.92
   0   7   8   13.72    4.00
  -1  -7  -8   -1.33    3.06
  -1  -7  -8    6.40    3.53
   1   7   8    6.01    3.44
   1   7   8   -0.22    3.73
   1   7   8    2.61    3.81
  -2  -7  -8    7.34    4.61
  -2  -7  -8    4.11    3.89
   2   7   8    2.76    4.34
   2   7   8    3.07    4.35
  -3  -7  -8   -1.23    4.87
  -3  -7  -8    4.04    4.32
   3   7   8    3.66    3.55
  -4  -7  -8    4.30    4.91
  -4  -7  -8   -2.14    5.39
   4   7   8    0.35    5.40
  -5   8   8   -2.88    3.82
   4  -8  -8   14.81    3.91
  -4   8   8   13.56    4.31
   3  -8  -8    7.51    4.47
   3  -8  -8   12.03    3.56
  -3   8   8    5.18    3.86
   2  -8  -8   -2.03    3.94
   2  -8  -8   -0.42    2.96
  -2   8   8    0.69    3.31
  -2   8   8    1.14    2.34
  -2   8   8    1.26    3.07
   1  -8  -8    3.17    3.33
   1  -8  -8   -5.61    3.77
  -1   8   8   -2.61    3.37
  -1   8   8   -2.43    2.77
  -1   8   8    2.44    3.10
   0  -8  -8   14.83    4.36
   0  -8  -8   14.13    4.04
   0   8   8   11.97    3.52
   0   8   8    9.86    4.10
   0   8   8   17.32    4.00
  -1  -8  -8   14.27    4.50
  -1  -8  -8   10.16    3.36
   1   8   8    7.84    3.98
   1   8   8    7.20    3.44
  -2  -8  -8    3.51    4.25
  -2  -8  -8    1.18    4.25
   2   8   8    5.57    3.57
   2   8   8   -0.19    4.29
  -3  -8  -8    9.49    4.93
  -3  -8  -8    3.21    4.78
   3   8   8   -5.71    4.76
   3   8   8    6.86    5.22
  -4  -8  -8   25.74    5.63
  -4  -8  -8   45.41    7.16
   4   8   8   26.39    6.01
   4   8   8   14.57    6.90
  -5   9   8   16.14    5.40
  -4   9   8   -0.79    3.82
   3  -9  -8   39.75    5.72
   3  -9  -8   41.76    5.55
  -3   9   8   54.58    6.12
   2  -9  -8    0.23    3.41
   2  -9  -8    2.61    4.20
  -2   9   8    6.97    3.89
  -2   9   8    2.06    2.75
   1  -9  -8    0.72    4.03
   1  -9  -8   -0.74    3.45
  -1   9   8    5.59    4.01
  -1   9   8   -1.52    2.67
   0  -9  -8    4.22    3.14
   0  -9  -8    4.49    3.87
   0   9   8    9.80    3.69
   0   9   8    0.28    4.09
  -1  -9  -8    1.09    4.00
  -1  -9  -8    2.78    4.00
   1   9   8   10.27    4.52
   1   9   8    2.86    3.33
  -2  -9  -8   10.70    4.57
  -2  -9  -8    6.39    4.50
   2   9   8   14.47    5.27
   2   9   8   19.49    5.56
  -3  -9  -8   13.76    5.41
  -3  -9  -8    0.24    4.51
   3   9   8    4.55    5.68
   3   9   8   -1.11    5.38
   3 -10  -8    6.09    4.97
  -3  10   8    0.16    3.83
   2 -10  -8    7.93    4.15
   2 -10  -8   10.37    4.70
  -2  10   8    1.06    3.11
  -2  10   8    3.36    4.14
   1 -10  -8    3.13    3.97
   1 -10  -8   -4.79    3.73
  -1  10   8   -0.95    3.25
  -1  10   8    3.29    4.10
   0 -10  -8    1.47    3.84
   0 -10  -8    7.05    4.40
   0  10   8    6.19    3.92
   0  10   8    7.45    3.62
  -1 -10  -8    3.95    4.22
  -1 -10  -8   15.83    4.94
   1  10   8    3.99    4.94
   1  10   8    0.55    4.64
  -2 -10  -8    9.49    4.92
  -2 -10  -8    2.18    4.17
   2  10   8    0.92    5.40
   2  10   8    5.75    5.02
  -3  11   8    8.85    4.67
   2 -11  -8    3.52    4.67
  -2  11   8    5.61    4.45
   1 -11  -8    2.82    4.50
   1 -11  -8    5.70    4.51
  -1  11   8    6.14    3.92
  -1  11   8   -0.53    4.29
   0 -11  -8   25.36    5.57
   0 -11  -8   34.66    6.00
   0  11   8   24.26    5.07
   0  11   8   29.38    6.31
  -1 -11  -8    4.88    4.54
  -1 -11  -8    6.89    3.65
   1  11   8   -4.57    4.99
   1  11   8   -2.08    4.22
   2 -12  -8    3.31    4.87
  -2  12   8    2.36    4.99
   1 -12  -8   10.15    5.02
  -1  12   8    9.96    5.43
  -1  13  -9    6.98    5.69
  -1  13  -9    8.72    6.26
   1 -13   9   18.50    6.82
   1  12  -9    3.05    4.17
   1  12  -9    8.62    4.59
  -1 -12   9    1.02    4.33
   0  12  -9   23.93    6.37
   0  12  -9   14.13    5.76
   0 -12   9   18.44    5.35
  -1  12  -9    4.17    4.12
  -1  12  -9   -3.04    4.94
   1 -12   9   -4.03    3.97
  -2  12  -9   12.82    5.62
  -2  12  -9   21.50    5.20
   2 -12   9    5.30    5.86
  -3  12  -9    4.05    6.01
   3 -12   9    8.25    6.24
   3  11  -9    5.37    6.06
   3  11  -9    7.95    5.52
  -3 -11   9    3.26    5.80
   2  11  -9   -1.07    5.08
   2  11  -9   -6.52    5.48
  -2 -11   9    3.14    5.55
   1  11  -9    8.95    6.07
   1  11  -9    6.41    5.08
  -1 -11   9    7.43    5.33
   0  11  -9   33.75    5.76
   0  11  -9   44.10    6.86
   0 -11   9   49.52    7.41
  -1  11  -9    1.51    4.74
  -1  11  -9    7.28    3.96
   1 -11   9   -0.84    3.84
  -2  11  -9   -3.52    4.96
  -2  11  -9   -2.91    3.21
   2 -11   9    4.93    5.36
  -3  11  -9   -1.23    5.00
  -3  11  -9    0.17    5.29
   3 -11   9   -0.65    3.84
  -4  11  -9   -6.56    5.14
   4 -11   9    1.97    5.75
   3  10  -9   28.39    6.37
   3  10  -9   25.02    6.53
  -3 -10   9   25.41    5.47
   2  10  -9   13.58    5.34
   2  10  -9    5.84    4.23
  -2 -10   9   21.24    5.68
   1  10  -9   -1.43    3.60
   1  10  -9    1.01    4.46
  -1 -10   9    0.77    4.70
   0  10  -9    1.58    3.44
   0  10  -9   -1.34    3.08
   0 -10   9   -0.37    3.47
  -1  10  -9   11.20    4.67
  -1  10  -9   -3.28    4.50
   1 -10   9    5.31    3.68
  -2  10  -9   10.86    4.84
  -2  10  -9   15.21    5.13
   2 -10   9   14.47    4.39
  -3  10  -9    2.28    3.57
   3 -10   9    1.52    4.96
  -4  10  -9   -2.38    4.83
   4 -10   9   -1.06    5.07
   4   9  -9    6.07    3.07
   4   9  -9   -0.55    5.35
  -4  -9   9    8.28    5.44
   3   9  -9    7.03    4.68
   3   9  -9   -3.18    5.03
  -3  -9   9    0.85    4.92
   2   9  -9    6.20    4.49
   2   9  -9    6.24    3.80
  -2  -9   9    2.17    3.46
   1   9  -9    2.41    3.92
   1   9  -9   -3.18    4.32
  -1  -9   9    1.96    4.31
   0   9  -9   25.09    4.37
   0   9  -9   27.13    4.65
   0  -9   9   29.66    5.65
  -1   9  -9    9.40    4.68
  -1   9  -9    7.55    4.14
   1  -9   9    5.19    3.48
  -2   9  -9    1.32    4.42
   2  -9   9    7.77    4.57
  -3   9  -9    1.78    3.42
   3  -9   9    8.13    4.90
  -4   9  -9    6.01    4.97
   4  -9   9    6.17    5.15
  -5   9  -9   12.62    5.74
   5  -9   9    7.44    6.10
   4   8  -9   -6.71    4.00
   4   8  -9    3.74    5.21
   4   8  -9    6.66    3.29
  -4  -8   9    2.03    4.68
   3   8  -9    3.98    4.19
   3   8  -9    4.84    4.95
  -3  -8   9    0.65    4.37
   2   8  -9    1.75    4.58
   2   8  -9    4.10    4.12
  -2  -8   9    3.25    4.16
  -2  -8   9    7.58    4.41
   1   8  -9   16.85    4.88
   1   8  -9   12.17    4.27
  -1  -8   9   14.46    4.50
  -1  -8   9   10.64    4.22
   0   8  -9   16.91    3.94
   0   8  -9   13.98    4.26
   0  -8   9   24.89    4.86
   0  -8   9   15.81    3.62
  -1   8  -9    0.01    2.68
  -1   8  -9    4.06    3.18
   1  -8   9    8.29    4.21
   1  -8   9    0.42    3.69
  -2   8  -9    5.31    4.40
   2  -8   9    3.40    4.07
  -3   8  -9    1.74    4.12
   3  -8   9    2.60    4.32
  -4   8  -9    3.01    3.41
   4  -8   9    7.14    5.20
  -5   8  -9    3.82    3.74
  -5   8  -9    4.61    4.69
   5  -8   9    9.52    4.48
   5   7  -9    1.60    5.05
  -5  -7   9    1.68    4.75
   4   7  -9    4.83    4.77
   4   7  -9    7.05    3.12
   4   7  -9   -2.69    4.25
  -4  -7   9    3.71    4.41
   3   7  -9    1.98    4.41
   3   7  -9    1.26    3.83
   3   7  -9   -0.83    3.08
  -3  -7   9   -2.78    3.64
   2   7  -9    5.82    3.74
   2   7  -9    2.51    3.17
  -2  -7   9    1.67    3.92
  -2  -7   9    2.13    3.69
   1   7  -9   22.54    5.08
   1   7  -9   25.27    4.54
  -1  -7   9   24.43    4.56
  -1  -7   9   26.67    4.54
   0   7  -9   -3.91    3.85
   0   7  -9    1.33    3.16
   0  -7   9    1.25    3.32
   0  -7   9   -0.42    3.53
  -1   7  -9   14.46    3.72
  -1   7  -9    5.06    3.04
   1  -7   9    1.64    3.73
   1  -7   9    4.09    3.54
  -2   7  -9    7.18    3.03
  -2   7  -9    2.41    1.89
  -2   7  -9    9.05    4.20
   2  -7   9    3.39    3.67
   2  -7   9    1.83    2.86
  -3   7  -9    1.04    3.78
   3  -7   9    4.27    4.15
  -4   7  -9    7.43    4.42
  -4   7  -9   -0.45    3.42
   4  -7   9   -0.34    4.64
  -5   7  -9    2.36    4.36
  -5   7  -9   -0.56    4.74
   5  -7   9    5.80    5.54
  -6   7  -9    9.05    4.16
  -6   7  -9    4.38    4.14
   6  -7   9   -4.02    5.81
   5   6  -9    5.80    4.85
  -5  -6   9   10.18    4.90
   4   6  -9   12.89    3.27
   4   6  -9   14.94    4.85
   4   6  -9   14.19    4.74
  -4  -6   9   11.11    4.67
   3   6  -9   18.29    4.11
   3   6  -9   24.30    4.79
   3   6  -9   32.42    4.64
  -3  -6   9   12.40    4.23
  -3  -6   9   16.29    4.10
   2   6  -9    4.43    3.75
   2   6  -9    7.16    4.12
   2   6  -9    6.26    3.87
  -2  -6   9    8.69    3.77
  -2  -6   9    8.36    3.39
   1   6  -9   26.39    4.02
   1   6  -9   19.10    4.40
  -1  -6   9   25.11    4.23
  -1  -6   9   20.71    4.04
   0   6  -9  106.03    8.68
   0   6  -9   80.37    8.39
   0  -6   9  116.28    8.69
   0  -6   9  107.14    8.52
  -1   6  -9    2.49    1.05
  -1   6  -9   -1.08    3.48
  -1   6  -9   -0.98    2.75
   1  -6   9    0.61    3.01
   1  -6   9   -3.46    2.97
  -2   6  -9   10.80    2.41
  -2   6  -9   17.20    3.84
   2  -6   9    8.53    3.78
   2  -6   9    9.73    3.15
  -3   6  -9   -5.95    3.50
   3  -6   9   -1.97    3.83
  -4   6  -9    1.20    3.93
  -4   6  -9    0.08    4.08
   4  -6   9    2.72    4.53
  -5   6  -9    0.69    4.54
  -5   6  -9    8.99    4.45
   5  -6   9    4.96    5.43
  -6   6  -9   -3.68    4.85
  -6   6  -9    3.55    4.17
   6  -6   9   -1.88    4.35
   6   5  -9   -5.70    4.54
  -6  -5   9    7.31    5.29
   5   5  -9   10.33    4.66
   5   5  -9    7.49    4.30
  -5  -5   9   11.30    4.69
   4   5  -9   -0.96    3.80
   4   5  -9   -1.56    3.58
   4   5  -9    1.08    2.39
  -4  -5   9    1.87    3.65
   3   5  -9    6.46    3.05
   3   5  -9    2.93    3.69
   3   5  -9    1.88    3.32
  -3  -5   9   -0.30    3.21
  -3  -5   9    2.06    3.44
   2   5  -9   36.32    5.12
   2   5  -9   39.89    4.89
   2   5  -9   32.59    4.96
  -2  -5   9   41.12    4.78
  -2  -5   9   44.13    4.86
   1   5  -9   15.62    2.82
   1   5  -9   18.65    3.60
   1   5  -9   12.87    3.33
   1   5  -9   10.15    3.55
  -1  -5   9   10.91    3.07
  -1  -5   9   10.24    3.33
  -1  -5   9    6.42    3.48
   0   5  -9  167.11   11.80
   0   5  -9  156.93   11.65
   0   5  -9  164.53   12.72
   0   5  -9  156.34   11.66
   0  -5   9  158.71   11.75
   0  -5   9  167.72   11.74
   0  -5   9  178.38   11.89
  -1   5  -9   -2.27    2.96
  -1   5  -9    0.93    1.65
  -1   5  -9    2.06    3.19
   1  -5   9    3.79    2.79
   1  -5   9   -0.14    2.63
  -2   5  -9   23.07    2.99
  -2   5  -9   13.22    2.94
  -2   5  -9   17.66    4.96
   2  -5   9   21.08    4.08
   2  -5   9   16.40    3.76
  -3   5  -9    2.08    4.30
  -3   5  -9    0.91    2.61
   3  -5   9   -0.11    3.69
   3  -5   9    5.19    4.04
  -4   5  -9   18.00    3.95
  -4   5  -9   20.05    4.74
   4  -5   9   18.45    5.41
  -5   5  -9    1.58    4.59
  -5   5  -9    2.93    3.88
   5  -5   9   -2.86    4.85
  -6   5  -9   -2.41    4.98
  -6   5  -9    6.97    4.18
   6  -5   9    9.24    6.26
   6   4  -9   -1.78    4.25
  -6  -4   9    6.31    5.28
   5   4  -9    1.05    3.74
   5   4  -9    2.38    4.21
  -5  -4   9    3.94    4.12
   4   4  -9   19.71    4.37
   4   4  -9   10.41    4.00
   4   4  -9   15.15    3.03
  -4  -4   9   13.33    4.11
  -4  -4   9   16.24    4.08
   3   4  -9   95.88    6.97
   3   4  -9   64.10    6.81
   3   4  -9   65.73    6.74
  -3  -4   9   67.94    6.83
  -3  -4   9   71.75    6.97
   2   4  -9    2.88    3.03
   2   4  -9    1.70    2.64
   2   4  -9    5.55    2.05
   2   4  -9    2.04    3.13
  -2  -4   9    2.17    2.77
  -2  -4   9    2.45    3.04
  -2  -4   9    2.93    2.50
   1   4  -9   24.57    3.82
   1   4  -9   34.11    3.49
   1   4  -9   21.66    2.96
   1   4  -9   33.49    4.19
  -1  -4   9   27.24    3.61
  -1  -4   9   20.97    3.42
  -1  -4   9   27.68    3.84
   0   4  -9    2.12    2.17
   0   4  -9    6.51    3.62
   0   4  -9    1.89    2.73
   0   4  -9    4.07    2.17
   0   4  -9    2.88    1.50
   0  -4   9    0.43    2.55
   0  -4   9    3.81    2.17
   0  -4   9    1.91    2.04
  -1   4  -9    1.85    3.83
  -1   4  -9    4.62    2.29
  -1   4  -9    1.64    2.31
  -1   4  -9   -0.82    1.91
  -1   4  -9    5.28    2.33
   1  -4   9    2.55    2.68
   1  -4   9    0.55    2.92
   1  -4   9    2.61    2.30
  -2   4  -9   -0.95    2.67
  -2   4  -9    0.17    3.91
  -2   4  -9    0.03    2.25
   2  -4   9    0.17    3.16
   2  -4   9    1.85    2.88
  -3   4  -9    2.92    3.79
  -3   4  -9    8.54    2.79
   3  -4   9   10.11    4.02
   3  -4   9    6.79    3.55
  -4   4  -9  100.47    9.31
  -4   4  -9  104.22    9.23
   4  -4   9  105.03    9.18
  -5   4  -9   -0.68    3.09
  -5   4  -9    1.23    3.43
   5  -4   9    2.34    5.16
  -6   4  -9   -2.39    4.74
   6  -4   9    7.42    4.76
   6   3  -9    0.23    4.41
  -6  -3   9    4.77    4.54
   5   3  -9   22.21    4.90
   5   3  -9   26.84    4.75
  -5  -3   9   31.34    5.10
   4   3  -9   -2.13    3.09
   4   3  -9   -6.40    2.75
   4   3  -9    3.25    2.46
  -4  -3   9   -2.35    3.33
  -4  -3   9   -0.18    3.08
   3   3  -9    4.47    2.61
   3   3  -9    7.58    2.95
   3   3  -9    7.88    3.05
  -3  -3   9   10.15    3.06
  -3  -3   9    4.70    2.72
   2   3  -9   54.67    4.52
   2   3  -9   62.69    5.82
   2   3  -9   56.57    5.05
   2   3  -9   49.58    4.94
  -2  -3   9   52.20    5.06
  -2  -3   9   47.88    4.73
  -2  -3   9   57.61    5.09
   1   3  -9    0.75    1.52
   1   3  -9   -0.71    2.18
   1   3  -9    0.07    1.82
   1   3  -9   -6.40    2.84
  -1  -3   9    1.79    2.25
  -1  -3   9    0.41    1.83
  -1  -3   9   -0.42    1.79
   0   3  -9   42.59    4.41
   0   3  -9   55.28    4.15
   0   3  -9   55.91    4.93
   0   3  -9   62.33    6.16
   0  -3   9   53.79    4.61
   0  -3   9   43.93    4.30
   0  -3   9   57.39    4.89
  -1   3  -9   50.02    4.21
  -1   3  -9   42.86    5.08
  -1   3  -9   42.74    4.23
  -1   3  -9   35.81    3.99
   1  -3   9   49.27    4.50
   1  -3   9   48.88    4.39
   1  -3   9   46.37    4.46
  -2   3  -9    7.32    3.05
  -2   3  -9   16.30    2.94
  -2   3  -9   14.19    2.89
   2  -3   9   12.17    3.03
   2  -3   9    8.70    3.16
  -3   3  -9   39.87    4.97
  -3   3  -9   38.78    5.46
   3  -3   9   44.98    5.63
  -4   3  -9    6.08    3.96
  -4   3  -9    6.99    3.45
   4  -3   9    8.20    3.66
  -5   3  -9   43.98    5.34
  -5   3  -9   31.83    5.96
   5  -3   9   36.15    5.94
  -6   3  -9    8.26    4.00
   6  -3   9   11.05    5.09
   6   2  -9   -1.17    3.47
  -6  -2   9    3.18    4.21
   5   2  -9   14.43    3.88
   5   2  -9   17.70    4.13
  -5  -2   9   16.51    4.13
   4   2  -9    3.11    3.16
   4   2  -9   -2.13    2.53
   4   2  -9    1.08    2.78
  -4  -2   9   -3.01    2.59
  -4  -2   9    2.31    2.95
   3   2  -9    2.12    2.47
   3   2  -9    0.35    2.38
   3   2  -9   -3.60    2.53
   3   2  -9   -1.88    1.84
  -3  -2   9    0.81    2.46
  -3  -2   9   -1.04    2.46
   2   2  -9   17.11    2.75
   2   2  -9   18.88    3.50
   2   2  -9   28.35    2.47
  -2  -2   9   22.89    2.90
  -2  -2   9   21.86    2.75
  -2  -2   9   16.03    2.68
   1   2  -9   82.37    6.08
   1   2  -9   82.92    5.66
   1   2  -9   80.93    5.97
   1   2  -9   81.81    5.60
   1   2  -9   79.65    6.82
  -1  -2   9   79.59    5.87
  -1  -2   9   80.40    6.26
  -1  -2   9   81.86    5.90
   0   2  -9    1.16    1.85
   0   2  -9    6.22    2.19
   0   2  -9    2.18    3.27
   0   2  -9    5.16    1.46
   0  -2   9    7.13    2.22
   0  -2   9    2.66    1.52
   0  -2   9    3.90    1.63
  -1   2  -9   28.40    3.16
  -1   2  -9   28.51    2.98
  -1   2  -9   21.06    4.29
  -1   2  -9   30.21    3.45
   1  -2   9   31.43    3.34
   1  -2   9   30.08    3.31
   1  -2   9   30.35    3.41
  -2   2  -9    5.65    2.41
  -2   2  -9    2.88    2.41
  -2   2  -9    1.27    2.51
  -2   2  -9    8.28    2.82
   2  -2   9    5.52    2.27
   2  -2   9    5.77    2.49
   2  -2   9    5.06    2.44
  -3   2  -9    0.23    3.54
  -3   2  -9   -2.01    2.95
  -3   2  -9   -4.00    2.90
   3  -2   9   -0.87    2.31
   3  -2   9    1.22    2.67
  -4   2  -9   16.89    3.52
  -4   2  -9    9.10    3.44
   4  -2   9   13.14    3.82
  -5   2  -9   18.56    4.99
  -5   2  -9   20.13    4.03
   5  -2   9   32.65    6.29
  -6   2  -9    3.31    4.86
   6  -2   9    0.11    5.99
   6   1  -9    6.07    3.46
  -6  -1   9    5.43    4.03
   5   1  -9   -2.81    2.91
   5   1  -9   -1.52    2.58
  -5  -1   9   -3.00    3.02
   4   1  -9   54.07    5.35
   4   1  -9   65.42    6.04
   4   1  -9   64.66    5.94
  -4  -1   9   68.89    6.20
  -4  -1   9   48.06    5.60
   3   1  -9   12.38    3.02
   3   1  -9    8.50    2.36
   3   1  -9    7.47    2.11
  -3  -1   9    6.69    2.35
  -3  -1   9    6.78    2.33
   2   1  -9  200.05   14.29
   2   1  -9  197.79   12.75
   2   1  -9  192.16   12.58
   2   1  -9  190.04   12.69
  -2  -1   9  186.44   12.91
  -2  -1   9  196.73   12.94
   1   1  -9   53.80    4.88
   1   1  -9   62.08    4.52
   1   1  -9   59.52    5.86
  -1  -1   9   57.60    4.07
  -1  -1   9   61.17    4.60
  -1  -1   9   54.90    4.05
   0   1  -9   80.64    5.42
   0   1  -9   84.09    7.24
   0   1  -9   71.56    6.01
   0   1  -9   78.33    5.46
   0  -1   9   77.84    5.64
   0  -1   9   81.65    5.62
   0  -1   9   79.23    6.05
  -1   1  -9  126.26    8.63
  -1   1  -9  122.91    8.68
  -1   1  -9  111.82    8.41
  -1   1  -9  126.42    9.62
   1  -1   9  127.48    8.76
   1  -1   9  129.43    8.84
   1  -1   9  115.18    8.79
  -2   1  -9    6.15    3.08
  -2   1  -9    3.40    3.32
  -2   1  -9    7.78    2.55
  -2   1  -9    9.20    2.67
   2  -1   9   10.44    2.66
   2  -1   9    7.06    2.80
  -3   1  -9   -0.04    2.94
  -3   1  -9    0.21    3.14
  -3   1  -9    3.57    3.92
   3  -1   9    1.79    2.54
   3  -1   9    3.24    2.43
  -4   1  -9    5.07    3.93
  -4   1  -9    7.35    3.31
   4  -1   9   16.13    4.82
  -5   1  -9    2.73    3.17
  -5   1  -9    4.33    3.26
   5  -1   9   -1.21    4.85
  -6   1  -9   -2.15    4.67
   6  -1   9   -1.46    5.78
   6   0  -9   -2.62    3.12
  -6   0   9    6.12    4.01
   5   0  -9    2.91    3.17
   5   0  -9   -0.17    2.58
  -5   0   9    0.71    3.10
   4   0  -9    7.34    2.89
   4   0  -9    6.95    2.53
   4   0  -9    3.88    3.17
  -4   0   9    8.10    3.10
  -4   0   9    9.64    3.09
   3   0  -9   29.35    2.86
   3   0  -9   30.70    4.55
  -3   0   9   25.94    3.30
  -3   0   9   28.53    3.23
   2   0  -9    2.65    2.10
   2   0  -9   -3.80    2.70
   2   0  -9   -0.15    1.21
  -2   0   9    0.73    1.20
  -2   0   9   -0.27    1.17
   1   0  -9   50.54    5.00
   1   0  -9   60.78    5.87
  -1   0   9   55.79    4.16
   0   0  -9   -0.77    2.35
   0   0  -9    1.59    0.74
   0   0  -9    4.95    2.53
   0   0  -9    1.48    0.76
   0   0   9    1.95    1.12
   0   0   9    3.18    1.71
   0   0   9    0.28    1.21
  -1   0  -9    1.81    1.76
  -1   0  -9    0.29    1.56
  -1   0  -9    5.50    2.83
  -1   0  -9   -0.34    2.19
   1   0   9   -0.76    1.74
   1   0   9   -0.14    2.03
  -2   0  -9   18.23    3.25
  -2   0  -9   17.41    3.91
  -2   0  -9   15.00    2.89
  -2   0  -9   20.04    3.90
   2   0   9   18.19    3.45
   2   0   9   21.56    3.24
  -3   0  -9    2.66    4.03
  -3   0  -9    4.85    3.31
  -3   0  -9    5.51    2.54
   3   0   9    1.62    3.70
   3   0   9    5.97    2.61
  -4   0  -9    9.02    4.77
  -4   0  -9   15.25    4.28
  -4   0  -9    5.31    3.57
   4   0   9   12.36    4.74
  -5   0  -9   -0.48    3.27
  -5   0  -9    1.28    3.14
   5   0   9    1.25    5.10
  -6   0  -9   -1.35    4.80
   6   0   9    2.07    4.45
   6  -1  -9    2.82    3.00
  -6   1   9    9.96    4.05
   5  -1  -9   17.07    3.57
   5  -1  -9    9.90    2.76
  -5   1   9   16.69    3.94
   4  -1  -9   30.38    3.72
   4  -1  -9   23.29    2.97
  -4   1   9   28.55    3.99
  -4   1   9   28.67    3.86
   3  -1  -9   -0.45    1.09
   3  -1  -9   -1.12    3.12
   3  -1  -9    0.76    1.61
  -3   1   9   -2.10    1.79
  -3   1   9    4.08    2.01
   2  -1  -9    5.73    3.41
   2  -1  -9    2.49    2.43
  -2   1   9    2.10    1.24
  -2   1   9    1.64    1.22
   1  -1  -9    1.31    3.21
   1  -1  -9    3.42    2.25
  -1   1   9    2.71    1.07
   0  -1  -9   46.44    3.44
   0  -1  -9   55.05    4.96
   0  -1  -9   46.01    5.09
   0  -1  -9   47.04    3.44
   0   1   9   45.53    3.63
   0   1   9   43.71    3.81
  -1  -1  -9    8.34    2.77
  -1  -1  -9   12.35    2.19
  -1  -1  -9   14.30    2.24
  -1  -1  -9   10.60    3.53
   1   1   9   14.12    2.66
   1   1   9   13.71    2.23
  -2  -1  -9   14.67    3.94
  -2  -1  -9    9.65    3.08
  -2  -1  -9   12.97    2.87
   2   1   9   15.44    3.12
   2   1   9   18.58    3.40
  -3  -1  -9   34.87    4.90
  -3  -1  -9   45.19    5.07
  -3  -1  -9   40.29    5.16
   3   1   9   37.49    5.05
   3   1   9   29.13    5.09
  -4  -1  -9    6.89    3.63
  -4  -1  -9    6.37    3.75
  -4  -1  -9   -0.27    3.48
   4   1   9   -3.91    2.91
  -5  -1  -9   36.74    6.70
  -5  -1  -9   26.94    5.61
  -5  -1  -9   24.94    4.72
   5   1   9   40.71    6.79
  -6  -1  -9    8.84    5.30
  -6  -1  -9   11.66    6.58
   6   1   9   12.54    6.14
  -6   2   9    7.75    3.90
   5  -2  -9   -2.80    1.98
   5  -2  -9    3.32    2.96
  -5   2   9    4.87    3.49
   4  -2  -9    5.44    2.42
   4  -2  -9    1.96    1.40
  -4   2   9    1.66    2.83
  -4   2   9    2.20    2.65
   3  -2  -9    1.65    1.77
   3  -2  -9    0.94    3.63
  -3   2   9   -1.46    2.01
  -3   2   9    1.13    1.97
   2  -2  -9    4.93    1.02
   2  -2  -9    1.52    3.57
   2  -2  -9    3.35    1.01
   2  -2  -9    2.00    3.31
  -2   2   9    3.37    1.49
  -2   2   9    5.45    1.54
   1  -2  -9   13.20    3.88
   1  -2  -9   11.74    2.82
  -1   2   9   14.57    1.68
  -1   2   9   11.67    1.36
  -1   2   9   13.46    1.64
   0  -2  -9   57.38    5.63
   0  -2  -9   53.55    4.18
   0  -2  -9   52.18    5.44
   0   2   9   52.03    4.30
   0   2   9   53.25    4.49
  -1  -2  -9    3.81    2.11
  -1  -2  -9    4.72    2.61
  -1  -2  -9    7.94    3.93
  -1  -2  -9    8.29    2.25
   1   2   9    6.94    2.14
   1   2   9    8.39    2.36
  -2  -2  -9    0.15    2.50
  -2  -2  -9    0.32    3.87
  -2  -2  -9   -1.30    3.51
   2   2   9    1.69    3.02
   2   2   9    3.76    2.68
  -3  -2  -9   49.60    5.76
  -3  -2  -9   50.02    6.37
  -3  -2  -9   42.24    6.55
   3   2   9   62.94    6.16
   3   2   9   55.66    6.41
  -4  -2  -9   -6.22    3.54
  -4  -2  -9   -0.26    4.95
  -4  -2  -9    1.47    3.97
   4   2   9   -0.75    4.03
  -5  -2  -9   -5.30    3.91
  -5  -2  -9    0.51    4.53
   5   2   9   -3.49    3.49
  -6  -2  -9    1.32    6.32
  -6  -2  -9    3.04    5.46
   6   2   9    9.43    4.80
  -6   3   9    3.41    3.83
   5  -3  -9    0.79    2.87
  -5   3   9   13.46    3.47
   4  -3  -9   14.89    3.00
   4  -3  -9   14.29    1.33
  -4   3   9   17.73    3.52
  -4   3   9   17.00    3.12
   3  -3  -9    6.40    2.29
  -3   3   9    7.48    2.41
  -3   3   9    7.78    2.52
   2  -3  -9   33.20    2.97
   2  -3  -9   28.52    2.81
   2  -3  -9   25.38    4.72
   2  -3  -9   34.38    5.34
  -2   3   9   27.86    3.04
   1  -3  -9    0.97    3.28
   1  -3  -9    0.88    1.49
   1  -3  -9   10.24    4.08
   1  -3  -9    2.13    1.46
  -1   3   9    1.24    1.58
  -1   3   9    0.84    1.74
  -1   3   9    2.86    1.16
   0  -3  -9   58.25    5.45
   0  -3  -9   47.08    5.92
   0  -3  -9   65.65    4.89
   0  -3  -9   61.33    4.77
   0   3   9   55.49    4.82
   0   3   9   55.87    5.08
  -1  -3  -9   13.79    3.35
  -1  -3  -9   16.17    2.98
  -1  -3  -9   15.36    2.71
  -1  -3  -9   13.77    3.57
   1   3   9   20.31    3.16
   1   3   9   17.77    3.46
  -2  -3  -9    2.88    4.10
  -2  -3  -9   -2.39    2.66
  -2  -3  -9    1.12    4.16
   2   3   9   -5.39    2.63
   2   3   9    2.06    3.21
  -3  -3  -9   -1.22    3.32
  -3  -3  -9   11.83    3.89
  -3  -3  -9    5.25    4.05
   3   3   9    1.62    3.56
   3   3   9    8.99    3.18
  -4  -3  -9    2.79    5.13
  -4  -3  -9   17.92    4.77
   4   3   9   15.69    4.78
  -5  -3  -9   10.98    5.23
  -5  -3  -9   18.89    6.39
   5   3   9   18.35    5.67
  -6   4   9    4.73    4.44
   5  -4  -9    1.90    2.92
  -5   4   9    2.75    3.67
   4  -4  -9    3.92    2.34
  -4   4   9    1.19    2.66
  -4   4   9    4.59    2.64
   3  -4  -9   -0.26    3.95
   3  -4  -9    2.11    2.12
  -3   4   9    0.41    2.40
  -3   4   9    1.43    2.44
   2  -4  -9   11.39    3.38
   2  -4  -9   18.92    2.70
  -2   4   9   19.02    2.72
  -2   4   9   19.91    2.75
   1  -4  -9    0.56    3.63
   1  -4  -9    1.25    2.03
  -1   4   9    0.04    2.32
  -1   4   9   -0.58    1.90
  -1   4   9    1.57    1.51
   0  -4  -9   19.62    4.30
   0  -4  -9   17.65    4.12
   0  -4  -9   16.10    2.96
   0  -4  -9   17.66    2.84
   0   4   9   14.17    2.98
   0   4   9   18.92    2.72
  -1  -4  -9   68.32    7.82
  -1  -4  -9   74.43    6.45
  -1  -4  -9   66.34    6.41
   1   4   9   70.55    6.25
   1   4   9   73.17    6.60
  -2  -4  -9   18.53    4.00
  -2  -4  -9   17.48    3.81
   2   4   9   24.03    4.43
   2   4   9   27.56    3.68
  -3  -4  -9   25.75    5.66
  -3  -4  -9   34.50    5.09
   3   4   9   25.43    4.22
   3   4   9   26.16    5.36
  -4  -4  -9    3.51    5.24
  -4  -4  -9   -3.05    4.06
   4   4   9   -9.20    4.16
  -5  -4  -9    6.04    4.70
  -5  -4  -9    7.90    3.98
   5   4   9    6.64    5.52
  -6   5   9   -3.08    3.58
  -5   5   9    3.50    3.42
   4  -5  -9    0.74    2.23
  -4   5   9   -0.35    3.14
   3  -5  -9   -1.28    2.26
   3  -5  -9   -3.14    4.36
  -3   5   9    0.72    2.69
  -3   5   9    0.62    2.64
   2  -5  -9    3.31    4.02
   2  -5  -9   -0.42    2.16
  -2   5   9    0.77    2.40
  -2   5   9   -2.40    2.42
   1  -5  -9   18.32    3.01
   1  -5  -9   23.05    3.25
   1  -5  -9   22.16    4.70
  -1   5   9   18.94    3.24
  -1   5   9   18.74    2.58
  -1   5   9   16.46    3.12
   0  -5  -9   19.96    3.30
   0  -5  -9   21.38    3.85
   0   5   9   26.85    3.56
   0   5   9   19.93    3.89
   0   5   9   24.22    3.41
  -1  -5  -9   -3.42    2.75
  -1  -5  -9   -0.40    3.04
   1   5   9    1.10    2.78
   1   5   9    2.26    3.25
  -2  -5  -9    4.85    3.42
  -2  -5  -9    9.31    4.76
   2   5   9    3.00    3.84
   2   5   9    3.73    3.31
  -3  -5  -9    4.28    3.95
  -3  -5  -9   11.22    4.24
   3   5   9    5.95    4.23
  -4  -5  -9    5.34    4.25
  -4  -5  -9   -3.99    4.36
   4   5   9    0.15    4.62
  -5  -5  -9   -5.37    6.27
  -5  -5  -9   -1.69    5.16
   5   5   9   -1.61    3.86
  -6   6   9   -0.26    4.61
  -5   6   9    1.35    3.88
   4  -6  -9    5.89    3.19
  -4   6   9   10.61    3.65
   3  -6  -9   13.15    3.25
   3  -6  -9   18.84    5.17
  -3   6   9   14.14    3.26
   2  -6  -9   76.87    6.47
   2  -6  -9   65.83    7.36
  -2   6   9   74.75    6.72
  -2   6   9   69.77    5.18
  -2   6   9   76.12    6.57
   1  -6  -9   20.03    4.01
   1  -6  -9   21.37    3.33
  -1   6   9   14.61    3.64
  -1   6   9   17.70    3.58
  -1   6   9   19.55    2.90
   0  -6  -9    2.34    3.02
   0  -6  -9    0.95    3.19
   0   6   9   -0.42    2.64
   0   6   9    1.71    3.45
   0   6   9   -2.24    2.96
  -1  -6  -9   11.68    3.53
  -1  -6  -9   13.20    4.70
   1   6   9   10.73    3.41
   1   6   9   10.87    4.00
  -2  -6  -9   28.15    4.91
  -2  -6  -9   37.18    5.14
   2   6   9   31.55    4.98
   2   6   9   36.37    5.50
  -3  -6  -9   -6.95    4.67
  -3  -6  -9    8.71    3.32
   3   6   9    8.52    4.65
  -4  -6  -9   -4.87    4.19
  -4  -6  -9    4.34    5.95
   4   6   9    3.82    3.82
  -5  -6  -9    3.78    5.07
   5   6   9   -6.98    5.66
  -6   7   9   14.13    4.78
  -5   7   9    7.46    3.98
   4  -7  -9    7.09    3.38
  -4   7   9    4.81    3.42
   3  -7  -9   -4.67    2.33
   3  -7  -9    0.96    4.36
  -3   7   9    0.75    2.90
   2  -7  -9    4.77    3.09
   2  -7  -9   -2.01    4.12
  -2   7   9    3.32    2.69
  -2   7   9    6.69    2.07
  -2   7   9   -2.78    2.87
   1  -7  -9    1.29    4.32
   1  -7  -9   -1.55    2.69
  -1   7   9    2.88    2.55
  -1   7   9   -0.49    3.57
  -1   7   9    1.33    2.79
   0  -7  -9   61.38    6.66
   0  -7  -9   72.77    6.84
   0   7   9   76.10    6.97
   0   7   9   68.88    6.49
   0   7   9   67.40    7.01
  -1  -7  -9   24.93    4.52
  -1  -7  -9   21.20    5.04
   1   7   9   25.57    4.99
   1   7   9   19.83    4.38
   1   7   9   25.45    4.40
  -2  -7  -9   -1.52    3.47
  -2  -7  -9    5.54    4.59
   2   7   9   -1.17    3.99
  -3  -7  -9    9.23    4.52
  -3  -7  -9    1.12    5.06
   3   7   9    4.23    4.55
  -4  -7  -9    1.14    4.90
  -4  -7  -9   -3.37    5.59
   4   7   9   -7.06    5.12
  -5   8   9   -2.96    4.41
  -4   8   9    2.23    4.09
   3  -8  -9    4.02    4.74
   3  -8  -9   14.73    3.57
  -3   8   9   10.06    3.59
   2  -8  -9    1.49    3.38
   2  -8  -9   -1.75    3.09
  -2   8   9   -2.86    2.14
  -2   8   9   -0.66    3.74
   1  -8  -9    8.09    3.47
   1  -8  -9    4.51    4.43
  -1   8   9    1.58    3.68
  -1   8   9    5.34    2.88
   0  -8  -9    5.92    3.38
   0  -8  -9    6.28    3.54
   0   8   9    4.23    3.50
   0   8   9    7.71    3.90
  -1  -8  -9   -3.89    3.83
  -1  -8  -9   -1.99    3.51
   1   8   9    4.22    4.14
   1   8   9    4.50    3.93
  -2  -8  -9    2.30    4.45
  -2  -8  -9   -0.31    3.62
   2   8   9    5.05    4.60
   2   8   9   -3.27    4.38
  -3  -8  -9   -1.92    3.55
  -3  -8  -9    4.55    3.42
   3   8   9   -1.23    3.60
   3   8   9   -1.21    5.08
  -4  -8  -9    4.99    4.59
   4   8   9    5.17    4.82
   4   8   9    5.32    4.57
  -5   9   9    1.83    4.27
  -4   9   9    0.56    3.83
   3  -9  -9    1.00    4.88
  -3   9   9    0.37    3.48
   2  -9  -9   29.37    4.87
   2  -9  -9   32.46    5.88
  -2   9   9   23.05    4.96
  -2   9   9   36.39    4.06
   1  -9  -9    3.96    4.24
   1  -9  -9    3.12    3.61
  -1   9   9    2.45    3.15
  -1   9   9    0.83    3.84
   0  -9  -9    1.45    3.55
   0  -9  -9   -2.75    3.81
   0   9   9   -1.63    3.63
   0   9   9    0.01    4.17
  -1  -9  -9    5.99    4.58
  -1  -9  -9   -0.92    3.74
   1   9   9    0.97    4.19
   1   9   9   -1.02    3.10
  -2  -9  -9    3.98    4.62
  -2  -9  -9    1.87    4.06
   2   9   9   -0.71    4.76
   2   9   9   -4.73    4.82
  -3  -9  -9    1.56    4.49
  -3  -9  -9    3.81    5.03
   3   9   9   -0.09    3.98
   3   9   9   -1.48    5.52
   3 -10  -9    6.38    4.87
  -3  10   9    3.35    4.45
   2 -10  -9    0.31    3.27
  -2  10   9   11.97    4.78
   1 -10  -9    4.63    4.35
   1 -10  -9    1.87    4.28
  -1  10   9    7.56    4.35
  -1  10   9    1.40    3.32
   0 -10  -9    7.73    4.30
   0 -10  -9    9.69    4.75
   0  10   9    1.60    4.36
   0  10   9    8.19    4.18
  -1 -10  -9    9.90    4.36
  -1 -10  -9    0.39    4.15
   1  10   9    6.21    4.86
   1  10   9   -1.19    4.24
  -2 -10  -9   -6.84    4.29
  -2 -10  -9    6.46    4.41
   2  10   9   -0.23    5.23
   2  10   9    2.95    5.31
   3 -11  -9   -1.80    5.12
  -3  11   9    9.35    4.67
   2 -11  -9    0.76    4.67
  -2  11   9    8.35    4.64
   1 -11  -9   -1.53    4.59
  -1  11   9    0.34    4.24
   0 -11  -9    1.53    4.63
   0  11   9   -3.50    4.83
   0  11   9   12.98    4.66
  -1 -11  -9    3.64    4.84
   1  11   9   -5.77    4.96
   1  11   9    3.85    4.59
   1  12 -10    2.05    5.58
   1  12 -10   -3.44    4.53
  -1 -12  10    1.61    4.25
   0  12 -10   13.67    6.10
   0  12 -10    9.88    5.38
   0 -12  10   11.70    6.17
  -1  12 -10    4.69    4.26
  -1  12 -10    8.23    5.09
   1 -12  10    0.30    5.62
  -2  12 -10    8.70    4.62
  -2  12 -10    0.11    5.09
   2 -12  10    7.91    4.47
   3 -12  10    5.44    6.04
   2  11 -10    3.91    5.67
   2  11 -10    0.52    3.66
  -2 -11  10   12.11    5.72
   1  11 -10    1.59    5.25
   1  11 -10    1.20    4.76
  -1 -11  10    3.67    4.09
   0  11 -10   -0.80    3.71
   0  11 -10    1.37    4.65
   0 -11  10   -6.70    4.73
  -1  11 -10   -0.93    3.68
  -1  11 -10    0.49    4.52
   1 -11  10    9.30    5.47
  -2  11 -10    0.15    3.45
  -2  11 -10    4.43    4.05
   2 -11  10   -2.90    4.92
  -3  11 -10    1.73    4.82
   3 -11  10    5.62    5.57
  -4  11 -10   -4.32    4.97
   4 -11  10    9.35    4.72
   3  10 -10    7.33    5.32
   3  10 -10    0.37    5.65
  -3 -10  10    8.94    4.26
   2  10 -10   -3.58    4.09
   2  10 -10    3.74    3.99
  -2 -10  10   -1.81    4.73
   1  10 -10   -2.07    3.04
   1  10 -10   -1.91    4.86
  -1 -10  10    8.02    5.02
   0  10 -10   26.05    5.06
   0  10 -10   32.10    5.80
   0 -10  10   30.85    5.36
  -1  10 -10   19.78    5.53
  -1  10 -10   27.36    4.72
   1 -10  10   28.74    5.88
  -2  10 -10   -3.18    4.98
   2 -10  10    5.14    4.91
  -3  10 -10    1.04    3.56
   3 -10  10   13.49    5.56
  -4  10 -10   -1.44    3.62
   4 -10  10   -0.50    5.30
   4   9 -10    8.05    3.69
   4   9 -10   20.52    6.36
  -4  -9  10    1.28    5.07
   3   9 -10   22.04    4.78
   3   9 -10   18.57    5.38
   3   9 -10   20.47    6.02
  -3  -9  10   16.83    5.59
   2   9 -10   -4.52    4.64
   2   9 -10   -0.22    4.16
  -2  -9  10    7.54    4.41
   1   9 -10    5.22    3.69
   1   9 -10   -2.53    3.77
  -1  -9  10   -1.91    4.22
   0   9 -10   -1.33    3.89
   0   9 -10    2.96    3.43
   0  -9  10    3.60    4.27
  -1   9 -10   -6.30    4.42
  -1   9 -10    0.23    3.93
   1  -9  10    5.62    3.34
  -2   9 -10    1.36    4.67
   2  -9  10    6.02    4.44
  -3   9 -10    4.52    3.52
   3  -9  10   11.39    5.10
  -4   9 -10   -2.68    4.59
   4  -9  10   -1.83    3.70
  -5   9 -10   -8.01    4.84
  -5   9 -10    9.47    5.64
   5  -9  10   -1.26    4.11
   4   8 -10   11.78    3.64
   4   8 -10   11.79    5.45
  -4  -8  10    4.78    4.81
   3   8 -10    2.92    3.67
   3   8 -10    1.66    3.54
   3   8 -10    0.88    4.08
  -3  -8  10    9.36    4.65
   2   8 -10    2.64    4.12
   2   8 -10    8.60    3.69
  -2  -8  10   12.86    4.25
   1   8 -10   11.86    4.06
   1   8 -10   14.99    3.80
  -1  -8  10    8.90    4.04
  -1  -8  10    7.31    3.31
   0   8 -10   -5.61    4.14
   0   8 -10    8.19    3.75
   0  -8  10    4.29    2.89
   0  -8  10    1.63    3.91
  -1   8 -10   12.70    4.80
  -1   8 -10    7.21    3.90
   1  -8  10   11.86    4.36
   1  -8  10   15.10    4.32
  -2   8 -10   14.57    4.68
   2  -8  10   14.75    4.71
  -3   8 -10   -3.07    2.70
  -3   8 -10   -2.05    4.04
   3  -8  10    1.59    4.45
  -4   8 -10   14.65    5.07
  -4   8 -10   16.00    4.74
   4  -8  10    4.37    5.15
  -5   8 -10    2.80    4.99
  -5   8 -10   -0.01    4.95
   5  -8  10   13.15    6.05
   5   7 -10   -0.74    4.81
  -5  -7  10    2.34    4.69
   4   7 -10   20.62    5.48
   4   7 -10   26.24    4.22
   4   7 -10   16.53    4.87
  -4  -7  10    8.00    4.63
   3   7 -10    5.26    4.45
   3   7 -10   12.69    4.09
   3   7 -10    3.51    3.57
  -3  -7  10    9.62    4.23
   2   7 -10   27.27    5.19
   2   7 -10   24.04    5.01
   2   7 -10   26.86    4.65
  -2  -7  10   24.85    4.76
  -2  -7  10   19.62    4.51
   1   7 -10    0.36    3.32
   1   7 -10    8.46    3.32
  -1  -7  10    2.82    3.31
  -1  -7  10    3.08    3.75
   0   7 -10   56.47    6.32
   0   7 -10   71.60    6.64
   0  -7  10   60.36    6.67
   0  -7  10   73.10    6.92
  -1   7 -10    1.77    3.25
  -1   7 -10   -2.34    4.00
   1  -7  10   -2.38    3.56
   1  -7  10    7.13    3.62
  -2   7 -10    0.10    1.81
  -2   7 -10    1.82    4.21
  -2   7 -10   -2.50    3.51
   2  -7  10   -3.81    3.60
   2  -7  10   -2.42    2.69
  -3   7 -10   19.13    3.73
  -3   7 -10   30.06    5.00
   3  -7  10   24.14    5.06
  -4   7 -10   -0.53    4.29
  -4   7 -10   -4.17    4.57
   4  -7  10    0.05    3.56
  -5   7 -10   -1.78    4.65
  -5   7 -10    1.84    4.45
   5  -7  10   -0.10    3.98
   5   6 -10   12.89    4.98
  -5  -6  10   10.87    5.02
   4   6 -10   -4.96    4.10
   4   6 -10    3.79    2.90
   4   6 -10    4.81    4.16
  -4  -6  10   -0.55    3.89
   3   6 -10   13.99    4.58
   3   6 -10   16.82    4.04
   3   6 -10   19.48    4.01
  -3  -6  10   16.14    4.19
   2   6 -10    6.99    3.85
   2   6 -10   10.27    4.18
   2   6 -10    9.21    4.26
  -2  -6  10   10.88    3.74
  -2  -6  10   11.88    4.05
   1   6 -10   10.35    3.19
   1   6 -10    5.48    3.88
   1   6 -10   10.66    4.55
  -1  -6  10    6.09    3.31
  -1  -6  10    0.63    3.10
   0   6 -10    6.34    3.03
   0   6 -10   16.81    3.38
   0  -6  10    9.30    3.29
   0  -6  10   12.72    3.55
  -1   6 -10   12.54    4.13
  -1   6 -10   17.28    1.83
   1  -6  10   11.09    3.63
   1  -6  10   14.01    3.69
  -2   6 -10    4.11    4.85
  -2   6 -10    4.77    3.44
  -2   6 -10    8.75    2.43
   2  -6  10    2.12    2.74
   2  -6  10    1.67    3.56
  -3   6 -10   32.87    5.32
  -3   6 -10   34.93    6.34
  -3   6 -10   36.59    4.51
   3  -6  10   35.25    5.56
  -4   6 -10    4.36    4.54
  -4   6 -10    2.59    4.15
   4  -6  10    8.04    3.72
  -5   6 -10   -0.90    3.87
  -5   6 -10    3.86    4.68
   5  -6  10    0.86    3.97
  -6   6 -10    2.47    3.86
  -6   6 -10   -6.39    4.88
   6  -6  10   10.79    6.60
   5   5 -10    2.62    4.24
  -5  -5  10    2.12    4.23
   4   5 -10   41.92    4.89
   4   5 -10   50.97    5.76
   4   5 -10   38.99    5.62
  -4  -5  10   36.95    5.60
   3   5 -10   12.00    3.39
   3   5 -10    3.62    3.68
   3   5 -10    3.24    3.21
  -3  -5  10    1.95    3.51
  -3  -5  10    7.52    3.39
   2   5 -10  109.17    9.09
   2   5 -10  128.75    9.52
   2   5 -10  123.08   10.17
  -2  -5  10  124.66    9.63
  -2  -5  10  111.55    9.63
   1   5 -10    2.73    3.31
   1   5 -10    1.33    2.58
   1   5 -10   -3.58    2.74
  -1  -5  10   -1.36    2.85
  -1  -5  10   -1.53    2.91
   0   5 -10   48.77    5.65
   0   5 -10   53.51    5.04
   0   5 -10   50.13    3.85
   0   5 -10   49.49    5.95
   0  -5  10   53.10    5.13
   0  -5  10   49.32    5.12
  -1   5 -10    3.26    1.79
  -1   5 -10   -5.83    2.87
  -1   5 -10   -0.25    2.55
  -1   5 -10    3.95    3.47
   1  -5  10    1.18    2.76
   1  -5  10    2.26    2.82
  -2   5 -10   16.36    2.89
  -2   5 -10   10.59    4.80
  -2   5 -10   10.30    3.43
   2  -5  10    9.64    3.56
   2  -5  10   15.19    3.73
  -3   5 -10   -0.47    3.15
  -3   5 -10   -5.76    3.17
  -3   5 -10   -1.91    3.30
   3  -5  10    0.16    3.97
   3  -5  10    7.51    3.91
  -4   5 -10   -0.13    2.79
  -4   5 -10    0.36    3.90
   4  -5  10   -0.81    3.26
  -5   5 -10   10.58    4.05
  -5   5 -10   -7.11    4.11
   5  -5  10   -1.15    3.74
  -6   5 -10    3.54    3.72
  -6   5 -10   -2.86    4.95
   6  -5  10   -8.95    5.40
   6   4 -10   -2.01    4.56
  -6  -4  10    2.44    5.16
   5   4 -10   13.41    4.25
  -5  -4  10   14.74    4.60
   4   4 -10    8.98    3.87
   4   4 -10    8.85    2.86
   4   4 -10   11.18    3.98
  -4  -4  10    7.55    3.59
   3   4 -10    9.56    3.28
   3   4 -10    2.34    3.26
   3   4 -10    2.93    3.59
  -3  -4  10    3.38    2.81
  -3  -4  10    5.14    3.10
   2   4 -10   17.42    3.08
   2   4 -10   16.82    2.67
   2   4 -10   14.62    3.97
   2   4 -10   17.56    3.55
  -2  -4  10   16.45    3.65
  -2  -4  10   17.76    3.15
  -2  -4  10   19.91    3.34
   1   4 -10   27.57    3.28
   1   4 -10   28.49    4.27
   1   4 -10   29.08    3.19
   1   4 -10   29.09    4.01
  -1  -4  10   25.79    3.93
  -1  -4  10   27.79    3.63
  -1  -4  10   25.29    3.35
   0   4 -10    5.10    3.12
   0   4 -10   -0.90    1.71
   0   4 -10    0.53    1.99
   0   4 -10    2.51    2.98
   0  -4  10    2.58    2.68
   0  -4  10   -1.26    2.29
   0  -4  10   -2.35    2.07
  -1   4 -10   18.81    4.80
  -1   4 -10   28.94    3.12
  -1   4 -10   21.58    3.24
  -1   4 -10   26.52    3.72
  -1   4 -10   25.40    3.57
   1  -4  10   24.44    4.13
   1  -4  10   27.47    3.82
   1  -4  10   26.44    3.64
  -2   4 -10   10.35    2.75
  -2   4 -10   12.29    3.06
  -2   4 -10    3.28    4.33
   2  -4  10   13.15    3.63
   2  -4  10    7.79    3.30
  -3   4 -10    0.35    3.26
  -3   4 -10    0.28    2.90
  -3   4 -10    2.13    3.30
   3  -4  10    3.53    2.66
   3  -4  10    8.78    4.05
  -4   4 -10    8.36    4.07
  -4   4 -10    2.08    3.78
   4  -4  10    7.53    4.69
  -5   4 -10   10.33    4.67
  -5   4 -10    1.26    3.38
   5  -4  10    4.74    5.29
  -6   4 -10    1.22    5.00
   6  -4  10    1.56    6.10
   6   3 -10    1.29    4.23
  -6  -3  10   -6.45    3.90
   5   3 -10   16.35    4.32
   5   3 -10    7.27    3.66
  -5  -3  10   11.96    4.46
   4   3 -10    4.34    3.20
   4   3 -10    0.31    3.24
   4   3 -10   -0.50    2.64
  -4  -3  10    0.03    2.99
  -4  -3  10   -5.00    2.63
   3   3 -10    4.95    2.73
   3   3 -10    3.96    3.21
   3   3 -10    1.38    2.72
  -3  -3  10    3.81    2.86
  -3  -3  10    4.17    2.68
   2   3 -10    6.09    3.25
   2   3 -10    4.39    1.69
   2   3 -10    1.43    2.54
  -2  -3  10    3.18    2.22
  -2  -3  10    2.93    2.26
  -2  -3  10   -0.10    2.51
   1   3 -10    8.76    3.85
   1   3 -10    8.69    2.52
   1   3 -10   13.40    1.89
   1   3 -10    8.51    2.72
  -1  -3  10   11.83    2.39
  -1  -3  10   11.95    2.33
  -1  -3  10   13.45    3.03
   0   3 -10   35.38    3.47
   0   3 -10   42.26    3.87
   0   3 -10   31.50    4.12
   0   3 -10   38.24    3.73
   0   3 -10   39.39    5.02
   0  -3  10   41.00    3.85
   0  -3  10   44.48    4.05
   0  -3  10   42.16    3.95
  -1   3 -10   16.64    2.80
  -1   3 -10   18.20    2.96
  -1   3 -10   20.31    2.83
  -1   3 -10   14.27    3.51
   1  -3  10   15.51    3.40
   1  -3  10   12.73    3.06
   1  -3  10   13.63    2.72
  -2   3 -10   13.00    3.06
  -2   3 -10    6.62    2.78
  -2   3 -10    2.07    4.04
   2  -3  10    9.74    3.03
   2  -3  10   10.28    3.35
  -3   3 -10    0.79    3.69
  -3   3 -10   -0.75    3.05
  -3   3 -10   -1.88    3.33
   3  -3  10   -4.41    2.51
  -4   3 -10   -1.74    3.54
  -4   3 -10    4.50    3.43
   4  -3  10   -3.42    4.34
  -5   3 -10   30.11    5.64
  -5   3 -10   30.44    5.02
   5  -3  10   26.94    6.29
  -6   3 -10   -9.81    4.42
   6  -3  10    9.20    6.33
   6   2 -10   -1.13    3.85
  -6  -2  10    5.76    4.16
   5   2 -10    3.03    3.19
   5   2 -10    3.65    3.18
  -5  -2  10    0.96    3.69
   4   2 -10   10.05    3.25
   4   2 -10    8.38    3.23
   4   2 -10    8.73    3.06
  -4  -2  10    8.44    2.85
  -4  -2  10    5.19    3.20
   3   2 -10    4.96    2.03
   3   2 -10    6.34    3.22
   3   2 -10    1.43    2.31
  -3  -2  10    7.13    2.69
  -3  -2  10    3.83    2.54
   2   2 -10    2.49    2.35
   2   2 -10    5.75    1.65
   2   2 -10    6.12    1.47
   2   2 -10    1.64    2.83
  -2  -2  10    3.84    1.97
  -2  -2  10    8.60    2.25
  -2  -2  10    5.81    1.94
   1   2 -10   58.16    6.15
   1   2 -10   50.50    4.67
   1   2 -10   56.15    4.68
   1   2 -10   54.73    3.82
  -1  -2  10   52.03    4.23
  -1  -2  10   60.52    4.75
  -1  -2  10   53.38    4.29
   0   2 -10    3.06    1.43
   0   2 -10    1.14    2.07
   0   2 -10    1.11    2.49
   0  -2  10    1.51    1.56
   0  -2  10    3.01    2.25
   0  -2  10   -0.26    1.55
  -1   2 -10   14.45    2.39
  -1   2 -10   13.70    2.38
  -1   2 -10   11.57    3.25
  -1   2 -10   18.22    3.07
   1  -2  10   16.34    2.86
   1  -2  10   14.62    3.23
   1  -2  10   13.99    2.44
  -2   2 -10   -5.25    2.21
  -2   2 -10    0.09    3.67
  -2   2 -10    3.92    2.89
   2  -2  10    0.26    2.65
   2  -2  10    0.46    2.41
  -3   2 -10   16.14    4.25
  -3   2 -10   14.56    3.60
  -3   2 -10   11.73    3.94
   3  -2  10    9.62    3.86
   3  -2  10   11.66    3.71
  -4   2 -10   21.53    3.84
  -4   2 -10   23.07    4.31
  -4   2 -10   18.87    4.91
   4  -2  10   21.78    5.25
  -5   2 -10    7.31    3.50
  -5   2 -10   16.16    4.07
   5  -2  10   15.42    5.60
  -6   2 -10    1.81    3.65
   6  -2  10   10.36    6.16
   6   1 -10   -3.20    3.40
  -6  -1  10    0.60    4.20
   5   1 -10    0.04    3.04
   5   1 -10    1.73    2.86
  -5  -1  10    5.93    3.29
   4   1 -10   52.23    6.02
   4   1 -10   66.38    5.72
   4   1 -10   60.26    5.43
  -4  -1  10   51.22    5.59
  -4  -1  10   60.18    5.74
   3   1 -10    8.60    1.90
   3   1 -10    5.52    3.11
   3   1 -10    6.93    2.26
  -3  -1  10    6.03    2.25
  -3  -1  10    7.79    2.38
   2   1 -10   26.89    4.05
   2   1 -10   18.11    2.52
   2   1 -10   21.85    3.63
  -2  -1  10   22.07    2.31
  -2  -1  10   18.77    2.23
   1   1 -10    0.46    1.78
   1   1 -10    1.53    1.78
   1   1 -10   -1.47    3.07
  -1  -1  10    2.86    1.81
  -1  -1  10    1.51    0.87
  -1  -1  10    0.18    0.84
   0   1 -10   34.63    2.57
   0   1 -10   37.20    4.82
   0   1 -10   34.59    3.89
   0   1 -10   33.00    2.65
   0  -1  10   28.39    3.37
   0  -1  10   31.05    2.92
   0  -1  10   31.39    2.97
  -1   1 -10   20.78    2.56
  -1   1 -10   18.99    2.63
  -1   1 -10   19.72    3.57
  -1   1 -10   20.29    3.53
   1  -1  10   20.31    2.83
   1  -1  10   27.26    3.45
   1  -1  10   19.69    2.71
  -2   1 -10   30.12    4.86
  -2   1 -10   35.07    4.41
  -2   1 -10   29.83    3.68
   2  -1  10   33.45    4.19
   2  -1  10   24.17    3.70
  -3   1 -10   42.57    5.54
  -3   1 -10   38.49    5.68
  -3   1 -10   46.52    5.11
   3  -1  10   38.54    5.52
   3  -1  10   41.79    5.20
  -4   1 -10    6.74    4.51
  -4   1 -10    2.59    3.63
  -4   1 -10   10.06    3.79
   4  -1  10    7.72    4.33
  -5   1 -10    5.15    4.51
  -5   1 -10   10.87    3.88
  -5   1 -10   19.27    4.87
   5  -1  10   18.57    4.70
  -6   1 -10   -2.72    4.80
   6  -1  10    1.27    4.44
   6   0 -10    2.00    3.11
  -6   0  10   -2.67    3.95
   5   0 -10   16.20    3.19
   5   0 -10   25.98    3.98
  -5   0  10   23.31    4.31
   4   0 -10    6.12    2.56
   4   0 -10    4.02    2.16
   4   0 -10   -3.63    3.30
  -4   0  10    4.78    2.50
  -4   0  10    3.16    2.37
   3   0 -10    9.69    3.60
   3   0 -10    8.24    1.87
   3   0 -10    9.18    1.94
  -3   0  10    9.16    2.26
  -3   0  10    9.84    2.30
   2   0 -10   12.36    1.66
   2   0 -10   12.54    2.89
   2   0 -10   16.34    3.73
  -2   0  10   14.72    1.60
  -2   0  10   11.30    1.50
   1   0 -10   36.65    4.91
   1   0 -10   37.22    3.85
  -1   0  10   31.86    2.98
   0   0 -10   74.55    6.50
   0   0 -10   78.12    5.30
   0   0 -10   84.24    5.29
   0   0 -10   74.72    6.96
   0   0  10   79.75    5.60
   0   0  10   77.77    5.88
   0   0  10   78.58    5.65
  -1   0 -10   52.33    4.94
  -1   0 -10   44.88    5.76
  -1   0 -10   50.58    4.18
  -1   0 -10   52.17    4.30
   1   0  10   44.86    4.21
   1   0  10   47.89    4.47
  -2   0 -10   50.36    4.70
  -2   0 -10   45.36    5.48
  -2   0 -10   40.31    5.60
   2   0  10   42.75    4.93
   2   0  10   47.51    4.78
  -3   0 -10   27.00    4.81
  -3   0 -10   35.00    4.15
  -3   0 -10   31.65    5.43
   3   0  10   39.53    5.16
   3   0  10   31.67    4.74
  -4   0 -10    1.23    3.79
  -4   0 -10    7.74    4.70
  -4   0 -10    7.12    3.53
   4   0  10   -1.99    4.17
  -5   0 -10   -4.54    4.00
  -5   0 -10   -5.18    3.27
  -5   0 -10   -6.41    3.44
   5   0  10   -2.33    4.82
  -6   0 -10    2.93    4.99
  -6   0 -10    7.74    6.45
   6   0  10    1.23    6.12
  -6   1  10   -2.15    3.46
   5  -1 -10    5.89    2.34
   5  -1 -10    7.45    3.01
  -5   1  10    0.76    3.36
   4  -1 -10    2.58    1.60
  -4   1  10    2.50    2.48
  -4   1  10    4.62    2.62
   3  -1 -10   -0.28    1.51
   3  -1 -10    1.31    0.66
   3  -1 -10   -3.07    3.36
   3  -1 -10   -1.06    1.40
  -3   1  10    2.20    1.93
  -3   1  10   -1.97    1.73
   2  -1 -10    2.57    3.51
   2  -1 -10    5.13    2.69
  -2   1  10    7.39    1.24
  -2   1  10    7.72    1.25
   1  -1 -10   13.30    4.08
   1  -1 -10   19.61    3.05
  -1   1  10   14.95    1.76
   0  -1 -10   91.98    7.03
   0  -1 -10   89.30    6.23
   0  -1 -10   95.04    8.49
   0  -1 -10   95.72    6.27
   0   1  10   94.45    6.51
   0   1  10   90.20    6.60
   0   1  10   92.99    6.57
  -1  -1 -10   16.07    3.59
  -1  -1 -10   21.15    2.59
  -1  -1 -10   16.85    3.99
  -1  -1 -10   19.11    2.74
   1   1  10   23.35    3.14
   1   1  10   23.06    2.86
  -2  -1 -10    5.12    2.54
  -2  -1 -10    4.31    3.79
  -2  -1 -10    4.55    4.03
   2   1  10    2.28    2.61
   2   1  10    9.05    3.40
  -3  -1 -10   61.37    6.95
  -3  -1 -10   56.72    6.36
  -3  -1 -10   62.04    6.29
   3   1  10   65.96    6.84
   3   1  10   69.20    6.70
  -4  -1 -10    6.87    3.78
  -4  -1 -10   -5.10    4.53
  -4  -1 -10    1.87    3.92
   4   1  10    2.28    4.37
  -5  -1 -10   -7.28    4.94
  -5  -1 -10    0.73    4.34
  -5  -1 -10   -9.93    3.43
   5   1  10   -1.79    5.19
  -6  -1 -10    5.20    5.01
  -6  -1 -10   -0.62    6.20
   6   1  10    5.78    4.55
  -6   2  10    0.93    3.50
   5  -2 -10    4.95    2.95
   5  -2 -10    5.11    1.97
  -5   2  10    3.72    3.40
   4  -2 -10   11.86    1.22
  -4   2  10   16.27    3.24
  -4   2  10   15.10    3.00
   3  -2 -10   11.90    2.02
   3  -2 -10    9.60    1.90
   3  -2 -10   16.70    4.41
  -3   2  10   11.28    2.37
  -3   2  10   10.59    2.33
   2  -2 -10    6.10    2.99
   2  -2 -10    7.22    3.20
  -2   2  10    7.13    1.52
  -2   2  10    7.33    1.51
   1  -2 -10    1.74    2.94
   1  -2 -10    0.58    2.49
  -1   2  10    3.62    1.25
  -1   2  10    2.91    1.14
  -1   2  10    2.39    1.09
   0  -2 -10   16.24    3.11
   0  -2 -10   20.03    4.69
   0  -2 -10   15.33    1.95
   0   2  10   15.21    2.13
   0   2  10   12.70    2.30
  -1  -2 -10   53.27    5.21
  -1  -2 -10   62.48    5.08
  -1  -2 -10   58.71    5.76
  -1  -2 -10   56.74    6.81
   1   2  10   57.09    5.34
   1   2  10   56.57    5.02
  -2  -2 -10   10.08    4.29
  -2  -2 -10    6.13    3.16
  -2  -2 -10    7.08    2.68
   2   2  10    2.97    2.79
   2   2  10    4.33    3.14
  -3  -2 -10   14.83    4.66
  -3  -2 -10   22.27    4.42
  -3  -2 -10   26.62    4.29
   3   2  10   26.91    4.85
   3   2  10   29.63    4.54
  -4  -2 -10   -2.82    3.85
  -4  -2 -10   -0.77    3.64
  -4  -2 -10    5.21    4.92
   4   2  10    4.76    4.24
  -5  -2 -10   -2.92    5.59
  -5  -2 -10    0.35    4.46
   5   2  10   -0.17    4.78
  -6   3  10   16.99    4.45
  -5   3  10    9.45    3.34
   4  -3 -10    8.58    2.47
  -4   3  10    4.67    2.97
  -4   3  10    7.11    2.51
   3  -3 -10    9.36    4.50
   3  -3 -10    9.72    2.12
  -3   3  10    8.64    2.38
  -3   3  10    9.13    2.32
   2  -3 -10    3.83    1.30
   2  -3 -10    6.80    3.11
   2  -3 -10    3.55    1.17
   2  -3 -10    5.48    4.50
  -2   3  10    4.04    1.79
   1  -3 -10   -4.53    3.35
   1  -3 -10    0.37    4.27
   1  -3 -10   -0.89    1.18
   1  -3 -10   -0.67    1.17
  -1   3  10   -0.38    1.57
  -1   3  10    0.40    1.13
  -1   3  10   -1.67    1.69
   0  -3 -10   22.31    5.21
   0  -3 -10   26.93    3.01
   0  -3 -10   26.89    4.55
   0   3  10   23.75    2.93
   0   3  10   25.81    3.28
  -1  -3 -10   16.14    5.13
  -1  -3 -10   29.65    3.80
  -1  -3 -10   21.40    4.10
  -1  -3 -10   30.19    3.39
   1   3  10   26.65    3.70
   1   3  10   32.04    3.75
  -2  -3 -10    5.15    3.41
  -2  -3 -10    6.82    2.95
  -2  -3 -10    0.61    3.33
   2   3  10    3.36    2.83
   2   3  10    3.83    3.24
  -3  -3 -10   28.66    5.99
  -3  -3 -10   21.17    5.19
  -3  -3 -10   29.28    4.80
   3   3  10   36.34    5.14
   3   3  10   29.92    5.16
  -4  -3 -10   -2.00    3.69
  -4  -3 -10    1.12    3.87
   4   3  10    3.58    4.30
  -5  -3 -10    4.28    4.73
  -5  -3 -10    5.74    3.78
   5   3  10   10.35    4.39
  -6   4  10   -4.74    3.45
  -5   4  10   26.81    4.55
   4  -4 -10    9.86    2.66
  -4   4  10   12.90    3.16
   3  -4 -10   -1.12    4.11
  -3   4  10   -1.11    2.31
  -3   4  10   -1.15    2.27
   2  -4 -10    0.80    1.87
   2  -4 -10    5.03    4.20
  -2   4  10   -0.18    2.06
  -2   4  10    0.61    2.01
   1  -4 -10    1.87    1.87
   1  -4 -10   -5.05    3.63
   1  -4 -10    1.64    3.52
  -1   4  10    0.54    2.15
  -1   4  10    0.18    1.43
  -1   4  10    0.30    1.92
   0  -4 -10    3.65    2.19
   0  -4 -10   10.07    3.89
   0  -4 -10    2.43    2.85
   0  -4 -10    2.05    2.28
   0   4  10    7.08    2.53
   0   4  10    6.40    2.41
  -1  -4 -10    0.72    2.63
  -1  -4 -10    4.29    3.69
  -1  -4 -10   -0.04    2.96
   1   4  10    4.46    2.60
   1   4  10    2.69    2.93
  -2  -4 -10   -1.51    3.14
  -2  -4 -10    2.16    4.34
  -2  -4 -10    1.67    4.72
   2   4  10   -2.94    2.88
   2   4  10    2.17    3.32
  -3  -4 -10    0.02    3.52
  -3  -4 -10   -1.64    3.49
   3   4  10   -2.70    2.39
   3   4  10    0.62    3.88
  -4  -4 -10   -8.37    5.12
  -4  -4 -10    3.47    4.18
   4   4  10    4.75    4.53
  -5  -4 -10   12.31    6.59
  -5  -4 -10    8.67    5.13
   5   4  10    3.02    5.45
  -6   5  10    5.99    4.60
  -5   5  10    6.71    3.46
   4  -5 -10    4.07    2.37
  -4   5  10    3.57    3.09
   3  -5 -10    8.98    3.69
   3  -5 -10    8.80    2.50
  -3   5  10    9.28    2.97
  -3   5  10    7.71    2.76
   2  -5 -10   -3.40    2.88
  -2   5  10    1.83    2.50
  -2   5  10    0.66    2.29
   1  -5 -10    0.64    2.31
   1  -5 -10   -7.84    3.92
  -1   5  10   -3.54    2.17
  -1   5  10    2.24    1.90
  -1   5  10   -2.30    2.27
   0  -5 -10    1.61    2.22
   0  -5 -10   -3.01    4.04
   0   5  10    4.99    3.21
   0   5  10   -1.39    2.28
   0   5  10   -1.31    2.30
  -1  -5 -10    9.12    3.02
  -1  -5 -10    6.75    3.35
   1   5  10   10.06    3.10
   1   5  10   -1.14    3.26
  -2  -5 -10    6.62    4.71
  -2  -5 -10   12.57    3.61
   2   5  10   12.84    3.65
   2   5  10   15.92    4.34
  -3  -5 -10    3.15    3.67
  -3  -5 -10   -1.81    4.78
   3   5  10    5.37    3.29
  -4  -5 -10   -0.31    4.07
  -4  -5 -10    4.15    3.45
   4   5  10   -6.40    4.48
  -5  -5 -10    2.00    4.86
  -5  -5 -10  -12.47    6.12
   5   5  10   -2.52    5.37
  -6   6  10    0.33    3.94
  -5   6  10    5.69    3.50
  -4   6  10    2.76    3.26
   3  -6 -10   -2.16    4.49
   3  -6 -10    3.01    2.61
   2  -6 -10   21.40    4.17
   2  -6 -10   24.27    3.48
  -2   6  10   25.83    3.72
  -2   6  10   24.57    3.78
  -2   6  10   22.39    2.07
   1  -6 -10    1.30    2.35
   1  -6 -10    5.95    3.42
  -1   6  10   -2.64    2.67
  -1   6  10   -0.31    2.18
  -1   6  10    0.07    3.28
   0  -6 -10   55.03    7.00
   0  -6 -10   65.00    6.09
   0   6  10   66.83    6.60
   0   6  10   71.42    6.02
   0   6  10   59.04    6.07
  -1  -6 -10    1.06    3.20
  -1  -6 -10   -1.58    3.15
   1   6  10    3.16    3.60
   1   6  10    0.20    3.02
  -2  -6 -10    3.17    3.44
  -2  -6 -10    0.95    3.34
   2   6  10   -1.00    3.80
   2   6  10    0.40    3.75
  -3  -6 -10    3.12    4.93
  -3  -6 -10   -0.73    3.82
   3   6  10    5.22    4.52
  -4  -6 -10   14.21    5.12
  -4  -6 -10   -0.17    6.06
   4   6  10    2.24    5.21
  -5   7  10   17.28    4.43
  -4   7  10   -2.57    3.04
   3  -7 -10    2.23    4.93
   3  -7 -10    5.16    2.77
   2  -7 -10    9.65    3.13
   2  -7 -10    5.63    4.30
  -2   7  10    8.52    3.14
  -2   7  10    7.91    1.86
   1  -7 -10   10.98    3.31
   1  -7 -10    1.38    4.45
  -1   7  10    4.35    2.84
  -1   7  10   10.02    3.51
  -1   7  10    5.58    2.52
   0  -7 -10   33.41    4.50
   0  -7 -10   23.27    5.20
   0   7  10   36.43    4.58
   0   7  10   31.24    4.80
   0   7  10   29.72    4.41
  -1  -7 -10    4.36    4.51
  -1  -7 -10    8.17    3.40
   1   7  10    4.15    3.79
   1   7  10    6.75    3.82
  -2  -7 -10    8.79    4.86
  -2  -7 -10    6.56    3.84
   2   7  10    4.67    3.44
  -3  -7 -10    8.71    5.51
  -3  -7 -10    6.10    4.13
   3   7  10   11.74    5.25
  -4  -7 -10   -0.92    5.82
  -4  -7 -10   15.35    5.08
   4   7  10    3.01    5.35
  -5   8  10   -0.01    3.90
  -4   8  10   12.60    4.06
   3  -8 -10    8.47    5.14
  -3   8  10    4.82    3.29
   2  -8 -10   57.76    7.11
   2  -8 -10   49.16    5.66
  -2   8  10   46.25    4.44
  -2   8  10   57.28    5.96
   1  -8 -10    2.05    4.27
   1  -8 -10    9.03    3.70
  -1   8  10    4.22    2.90
  -1   8  10    0.03    3.88
   0  -8 -10   -1.82    3.38
   0  -8 -10   -6.47    3.95
   0   8  10   -3.19    3.54
   0   8  10   -1.29    2.99
  -1  -8 -10    5.12    3.96
  -1  -8 -10    1.62    4.40
   1   8  10   -4.36    3.75
   1   8  10   -2.92    3.82
  -2  -8 -10    3.29    3.81
  -2  -8 -10   -1.11    3.38
   2   8  10    3.20    4.54
   2   8  10   -5.09    4.34
  -3  -8 -10    5.21    4.01
  -3  -8 -10    2.49    4.43
   3   8  10    8.57    5.25
   3   8  10   -7.53    5.21
  -4   9  10    0.84    4.31
   3  -9 -10   36.21    5.72
  -3   9  10   31.39    5.05
   2  -9 -10    7.61    3.78
  -2   9  10    8.76    3.79
   1  -9 -10   -0.49    3.15
   1  -9 -10   -0.79    3.33
  -1   9  10   -0.03    3.77
  -1   9  10    0.02    2.90
   0  -9 -10    7.03    4.14
   0  -9 -10    2.59    4.55
   0   9  10    0.44    4.02
   0   9  10   -0.41    3.70
  -1  -9 -10    6.99    3.97
  -1  -9 -10    4.14    3.73
   1   9  10    2.55    4.32
   1   9  10    4.97    4.59
  -2  -9 -10    2.79    4.21
  -2  -9 -10    4.20    4.93
   2   9  10    1.75    4.49
   2   9  10    6.42    5.12
  -3  -9 -10   -8.22    5.10
   3   9  10   11.62    5.61
   3   9  10    1.73    5.68
  -4  10  10    0.50    4.11
   3 -10 -10   -3.66    5.15
  -3  10  10    3.83    3.93
   2 -10 -10    0.72    4.92
  -2  10  10   -5.78    3.58
   1 -10 -10   13.03    4.19
  -1  10  10   27.55    5.28
   0 -10 -10   -3.14    4.35
   0  10  10   -0.03    4.05
   0  10  10    2.68    4.45
  -1 -10 -10    7.88    4.88
   1  10  10    0.09    3.55
   1  10  10   -4.93    4.18
  -2 -10 -10    2.46    4.73
   2  10  10    1.65    5.34
   2  10  10   -8.90    4.91
   2 -11 -10   22.31    6.03
  -2  11  10   11.18    4.91
   1 -11 -10    1.24    4.56
  -1  11  10    7.50    4.66
   0 -11 -10   -0.24    4.81
   0  11  10    8.27    4.50
   0  11  10    1.94    5.11
   1  12 -11   13.24    6.38
  -1 -12  11   19.03    6.44
   0  12 -11    2.83    4.89
   0  12 -11    2.20    5.90
   0 -12  11    3.14    5.66
  -1  12 -11    1.42    4.88
  -1  12 -11    3.89    4.36
   1 -12  11    5.17    5.79
  -2  12 -11   16.76    6.31
   2 -12  11   13.23    6.30
   2  11 -11    8.09    4.71
  -2 -11  11   10.77    5.79
   1  11 -11   -5.03    4.33
   1  11 -11    6.90    5.32
  -1 -11  11    7.39    4.04
   0  11 -11    2.39    4.48
   0  11 -11    7.86    5.33
   0 -11  11    2.26    4.98
  -1  11 -11   -3.21    3.67
  -1  11 -11    3.32    4.41
   1 -11  11    2.70    5.31
  -2  11 -11   -2.81    3.81
   2 -11  11    4.13    4.02
  -3  11 -11   -0.46    4.99
   3 -11  11   18.27    6.20
   3  10 -11   28.81    5.65
   3  10 -11   13.97    6.27
  -3 -10  11   31.27    5.45
   2  10 -11    8.02    4.85
   2  10 -11    7.78    5.56
  -2 -10  11   11.37    5.35
   1  10 -11   20.91    5.85
   1  10 -11   12.02    4.80
  -1 -10  11   15.99    5.56
   0  10 -11    2.97    4.10
   0  10 -11    5.76    3.79
   0 -10  11   -0.11    3.26
  -1  10 -11   23.41    5.03
  -1  10 -11   13.83    5.31
   1 -10  11    8.94    5.09
  -2  10 -11   12.20    5.42
   2 -10  11    0.47    4.70
  -3  10 -11    1.53    3.39
   3 -10  11    1.79    4.86
  -4  10 -11   12.08    4.49
   4 -10  11    8.03    5.88
   4   9 -11    9.02    4.58
   4   9 -11   14.89    4.35
  -4  -9  11   19.48    5.93
   3   9 -11    7.02    4.12
   3   9 -11    1.31    3.88
  -3  -9  11    4.22    4.80
   2   9 -11   40.75    6.08
   2   9 -11   46.33    6.32
  -2  -9  11   50.29    6.71
   1   9 -11    6.63    4.01
   1   9 -11    7.45    4.84
  -1  -9  11   12.11    4.72
   0   9 -11   -1.11    4.35
   0   9 -11   -2.87    3.46
   0  -9  11    8.20    4.37
  -1   9 -11   -1.25    4.45
  -1   9 -11    1.84    2.86
   1  -9  11    1.70    4.15
  -2   9 -11   -4.30    3.20
   2  -9  11    1.38    4.30
  -3   9 -11   -0.15    4.29
   3  -9  11    5.15    4.64
  -4   9 -11    8.62    6.09
  -4   9 -11    0.29    4.69
   4  -9  11    0.45    5.22
   4   8 -11    7.98    3.45
   4   8 -11    4.42    5.21
  -4  -8  11   14.72    5.38
   3   8 -11   12.85    4.97
   3   8 -11    7.77    4.16
   3   8 -11    9.38    5.20
  -3  -8  11   12.00    4.47
   2   8 -11   13.67    5.12
   2   8 -11    8.33    4.51
   2   8 -11   17.66    4.32
  -2  -8  11   19.64    4.70
   1   8 -11    6.19    4.37
   1   8 -11    4.25    3.44
  -1  -8  11    4.26    3.82
  -1  -8  11    9.65    4.24
   0   8 -11    3.60    4.36
   0   8 -11    3.92    3.56
   0  -8  11   10.23    3.77
   0  -8  11    8.56    3.87
  -1   8 -11    0.83    3.24
  -1   8 -11    3.65    4.42
   1  -8  11    2.17    3.71
   1  -8  11    6.08    3.69
  -2   8 -11    4.34    3.71
  -2   8 -11    1.97    3.48
   2  -8  11   -1.52    4.01
  -3   8 -11    5.39    4.13
  -3   8 -11    0.41    2.62
  -3   8 -11   -0.47    3.97
   3  -8  11    9.25    4.69
  -4   8 -11    0.80    4.54
  -4   8 -11    2.70    5.41
  -4   8 -11   -6.32    3.43
   4  -8  11    3.12    3.78
  -5   8 -11   11.56    5.18
  -5   8 -11  -11.36    4.52
   5  -8  11    1.76    4.13
   5   7 -11    0.16    5.02
  -5  -7  11    3.34    4.70
   4   7 -11   -0.80    4.55
   4   7 -11    3.03    3.05
  -4  -7  11   -2.00    3.91
   3   7 -11   -0.84    3.07
   3   7 -11    3.14    3.99
   3   7 -11   -3.60    3.34
  -3  -7  11   -2.82    3.80
   2   7 -11   34.41    5.84
   2   7 -11   28.53    4.74
   2   7 -11   32.88    5.62
  -2  -7  11   37.13    5.18
   1   7 -11   24.49    5.69
   1   7 -11   15.99    3.94
   1   7 -11   28.06    5.09
  -1  -7  11   21.71    4.26
  -1  -7  11   33.16    5.10
   0   7 -11   15.54    4.65
   0   7 -11   11.19    3.64
   0   7 -11   26.37    5.01
   0  -7  11   16.42    4.10
   0  -7  11   15.46    3.98
  -1   7 -11   28.17    5.52
   1  -7  11   42.04    4.93
   1  -7  11   42.51    5.46
  -2   7 -11   24.05    4.43
  -2   7 -11   16.54    5.86
  -2   7 -11   27.41    3.03
   2  -7  11   27.22    4.31
   2  -7  11   23.77    4.08
  -3   7 -11    1.26    2.77
  -3   7 -11   -1.50    3.75
  -3   7 -11    2.03    5.19
   3  -7  11    4.93    4.11
  -4   7 -11    3.68    5.07
  -4   7 -11    2.13    4.35
   4  -7  11    5.31    4.93
  -5   7 -11    0.77    4.69
  -5   7 -11   11.10    4.88
   5  -7  11   11.03    5.92
   5   6 -11   -0.27    4.35
  -5  -6  11    3.06    4.48
   4   6 -11   -5.50    3.88
   4   6 -11   11.11    3.45
  -4  -6  11    3.38    3.88
   3   6 -11    7.16    3.76
   3   6 -11   -2.60    3.80
   3   6 -11   -1.60    3.34
  -3  -6  11    0.77    3.51
   2   6 -11    3.18    2.91
   2   6 -11   -2.81    3.89
   2   6 -11   -1.48    3.78
  -2  -6  11    4.51    3.72
  -2  -6  11   -4.05    3.31
   1   6 -11   94.61    9.47
   1   6 -11   92.23    8.39
   1   6 -11   98.22    8.01
  -1  -6  11   79.23    7.85
  -1  -6  11   95.32    8.38
   0   6 -11   13.09    4.33
   0   6 -11   12.24    3.18
   0   6 -11   13.62    5.20
   0  -6  11   14.24    3.60
   0  -6  11   19.49    3.63
  -1   6 -11   19.86    3.87
  -1   6 -11   25.86    2.46
  -1   6 -11   21.01    5.86
   1  -6  11   26.94    4.20
   1  -6  11   15.96    3.96
  -2   6 -11    3.36    3.24
  -2   6 -11   -2.03    3.51
  -2   6 -11    2.04    2.35
   2  -6  11   -1.19    2.56
   2  -6  11    0.84    2.69
  -3   6 -11   23.55    5.70
  -3   6 -11   16.23    3.59
  -3   6 -11   20.50    4.54
   3  -6  11   17.25    4.81
  -4   6 -11   -0.91    4.43
  -4   6 -11    5.87    4.30
   4  -6  11    3.77    4.91
  -5   6 -11    6.53    4.46
  -5   6 -11   -4.01    3.19
   5  -6  11   -2.45    5.23
   5   5 -11    1.93    4.55
  -5  -5  11    1.89    4.13
   4   5 -11   69.40    6.92
   4   5 -11   81.50    7.39
   4   5 -11   68.40    7.26
  -4  -5  11   72.70    7.64
   3   5 -11   -1.70    3.48
   3   5 -11    4.45    3.12
   3   5 -11    4.37    3.64
  -3  -5  11   -4.05    2.74
  -3  -5  11    0.28    3.46
   2   5 -11   37.87    4.70
   2   5 -11   51.84    6.21
   2   5 -11   56.45    5.63
  -2  -5  11   54.39    5.48
  -2  -5  11   43.64    5.33
   1   5 -11   27.18    4.67
   1   5 -11   21.07    3.43
   1   5 -11   24.12    4.30
  -1  -5  11   26.08    3.96
  -1  -5  11   30.17    4.12
   0   5 -11   -3.18    2.46
   0   5 -11   -0.53    1.66
   0   5 -11    4.16    3.40
   0   5 -11   -3.05    2.32
   0  -5  11   -1.26    2.83
   0  -5  11    2.22    2.45
  -1   5 -11    7.09    2.15
  -1   5 -11   10.10    2.93
  -1   5 -11    3.55    4.80
  -1   5 -11   10.34    3.15
   1  -5  11   10.71    3.18
   1  -5  11    7.02    3.08
  -2   5 -11    0.93    2.49
  -2   5 -11    3.66    4.80
  -2   5 -11    0.25    3.03
   2  -5  11    5.17    3.40
   2  -5  11    3.61    3.56
  -3   5 -11   26.78    4.75
  -3   5 -11   36.51    6.05
  -3   5 -11   34.52    4.47
   3  -5  11   43.62    5.41
   3  -5  11   26.41    5.37
  -4   5 -11   -0.46    3.91
  -4   5 -11    6.96    3.25
  -4   5 -11    7.99    4.26
   4  -5  11    3.67    4.52
  -5   5 -11   17.94    4.79
  -5   5 -11   19.68    5.26
   5  -5  11   17.71    5.88
  -6   5 -11    1.50    3.70
  -6   5 -11   -0.82    4.91
   6  -5  11    7.07    6.49
   6   4 -11   -1.77    4.40
  -6  -4  11   -6.18    4.61
   5   4 -11    3.34    3.78
  -5  -4  11    3.39    4.24
   4   4 -11   82.51    7.03
   4   4 -11   64.58    6.84
   4   4 -11   72.73    7.06
  -4  -4  11   79.78    7.33
   3   4 -11   17.09    3.31
   3   4 -11   10.47    3.57
   3   4 -11   16.34    3.76
  -3  -4  11   14.62    3.37
  -3  -4  11   13.17    3.45
   2   4 -11    5.38    2.44
   2   4 -11    5.95    3.19
   2   4 -11    1.03    3.63
  -2  -4  11    5.11    2.82
  -2  -4  11    4.51    2.86
  -2  -4  11    4.90    3.40
   1   4 -11   86.19    7.20
   1   4 -11   96.17    6.72
   1   4 -11   88.86    8.66
   1   4 -11   77.82    6.51
  -1  -4  11   81.75    7.09
  -1  -4  11   85.55    6.93
  -1  -4  11   79.51    6.88
   0   4 -11    1.44    3.02
   0   4 -11    1.57    1.98
   0   4 -11    2.37    1.96
   0   4 -11    1.98    4.27
   0  -4  11    2.25    2.36
   0  -4  11   -0.54    2.37
   0  -4  11   -1.33    2.80
  -1   4 -11   14.28    2.88
  -1   4 -11   10.50    2.55
  -1   4 -11   13.92    4.91
   1  -4  11    6.90    2.79
   1  -4  11    8.09    2.83
  -2   4 -11    8.17    2.93
  -2   4 -11    5.29    3.03
  -2   4 -11    8.18    3.62
   2  -4  11    3.31    2.93
   2  -4  11   -3.40    3.15
  -3   4 -11   -0.93    4.26
  -3   4 -11   -0.34    3.27
  -3   4 -11   -1.13    3.23
   3  -4  11   -1.53    3.33
   3  -4  11    5.76    3.97
  -4   4 -11   -1.98    3.77
  -4   4 -11   -1.79    3.91
  -4   4 -11    2.48    3.90
   4  -4  11   -7.14    4.04
  -5   4 -11   -0.20    4.29
  -5   4 -11    7.04    3.76
   5  -4  11    0.63    4.94
  -6   4 -11    1.79    4.96
   6  -4  11   12.83    6.69
   6   3 -11    0.87    3.93
  -6  -3  11    1.75    4.14
   5   3 -11    3.90    3.54
  -5  -3  11   -2.63    3.21
   4   3 -11   -0.07    2.81
   4   3 -11    2.77    2.95
   4   3 -11    2.31    2.80
  -4  -3  11   -0.48    2.90
   3   3 -11   22.88    3.87
   3   3 -11   16.67    3.76
   3   3 -11   18.94    3.17
  -3  -3  11   18.39    3.55
  -3  -3  11   22.83    3.41
   2   3 -11    2.09    3.43
   2   3 -11    7.25    1.78
   2   3 -11    3.39    2.97
  -2  -3  11    8.32    3.14
  -2  -3  11    6.80    2.42
  -2  -3  11    4.79    2.32
   1   3 -11    4.15    2.62
   1   3 -11    0.06    2.72
   1   3 -11   -0.72    1.35
   1   3 -11    0.71    2.20
  -1  -3  11    2.68    1.85
  -1  -3  11    1.74    2.05
  -1  -3  11   -0.42    2.47
   0   3 -11   23.41    4.01
   0   3 -11   17.61    2.69
   0   3 -11   16.02    3.28
   0   3 -11   12.41    2.29
   0  -3  11   16.03    3.11
   0  -3  11   11.90    2.51
   0  -3  11   16.17    2.59
  -1   3 -11   -1.29    2.24
  -1   3 -11    7.31    4.48
  -1   3 -11    0.72    2.55
  -1   3 -11    3.83    2.12
   1  -3  11    1.54    3.13
   1  -3  11    2.59    2.48
   1  -3  11    1.54    2.67
  -2   3 -11   45.77    6.46
  -2   3 -11   42.47    5.08
  -2   3 -11   54.87    5.04
   2  -3  11   53.59    5.26
   2  -3  11   44.96    5.21
  -3   3 -11   33.01    4.42
  -3   3 -11   23.83    4.41
  -3   3 -11   31.67    5.42
   3  -3  11   28.61    4.80
  -4   3 -11    6.95    4.41
  -4   3 -11    8.03    4.01
  -4   3 -11    6.48    4.16
   4  -3  11    5.08    4.41
  -5   3 -11    6.04    4.08
  -5   3 -11    8.27    4.08
  -5   3 -11   14.49    3.91
   5  -3  11   16.18    5.65
  -6   3 -11   -3.18    4.77
   6  -3  11    3.79    4.57
   6   2 -11    0.20    3.23
  -6  -2  11   -1.59    4.30
   5   2 -11    1.00    3.15
  -5  -2  11   15.00    3.71
   4   2 -11   19.83    3.28
   4   2 -11   13.11    3.12
   4   2 -11    8.53    3.46
  -4  -2  11    9.32    3.36
   3   2 -11   11.73    3.58
   3   2 -11    9.00    2.09
   3   2 -11   15.07    2.96
  -3  -2  11   12.26    2.78
  -3  -2  11   10.72    2.85
   2   2 -11    6.58    2.68
   2   2 -11    4.44    1.14
   2   2 -11    7.25    2.52
   2   2 -11    5.68    1.31
  -2  -2  11    6.58    1.92
  -2  -2  11    6.34    1.86
  -2  -2  11    4.37    2.35
   1   2 -11  178.25   11.87
   1   2 -11  176.93   11.83
   1   2 -11  168.73   13.61
  -1  -2  11  179.65   11.84
  -1  -2  11  177.15   11.77
  -1  -2  11  170.77   11.73
   0   2 -11   55.45    6.41
   0   2 -11   51.67    4.15
   0   2 -11   57.78    4.89
   0   2 -11   54.27    4.08
   0  -2  11   52.56    4.46
   0  -2  11   55.08    5.00
   0  -2  11   50.90    4.43
  -1   2 -11    4.73    2.04
  -1   2 -11    2.84    2.08
  -1   2 -11   -0.25    2.89
  -1   2 -11    4.76    2.84
   1  -2  11    0.42    2.08
   1  -2  11    3.49    2.00
   1  -2  11    3.73    2.49
  -2   2 -11    7.10    4.11
  -2   2 -11   12.29    3.52
  -2   2 -11   12.24    3.11
   2  -2  11    8.53    3.15
  -3   2 -11   32.15    5.43
  -3   2 -11   31.36    5.13
  -3   2 -11   34.82    4.63
   3  -2  11   29.74    5.01
   3  -2  11   43.19    5.12
  -4   2 -11   31.34    5.04
  -4   2 -11   40.19    5.39
  -4   2 -11   43.05    5.60
   4  -2  11   41.98    6.08
  -5   2 -11    7.51    5.31
  -5   2 -11   -0.96    4.11
  -5   2 -11    1.95    3.69
   5  -2  11   10.90    5.52
  -6   2 -11   -7.38    5.62
  -6   2 -11   -4.33    4.77
   6  -2  11    4.45    4.61
  -6  -1  11    6.60    4.23
   5   1 -11    6.16    2.90
  -5  -1  11   13.26    3.86
   4   1 -11   34.68    5.01
   4   1 -11   34.37    3.84
  -4  -1  11   32.53    4.21
  -4  -1  11   42.25    4.46
   3   1 -11    8.32    3.49
   3   1 -11    2.19    1.76
   3   1 -11    1.98    2.11
  -3  -1  11    1.20    2.12
  -3  -1  11    4.45    2.05
   2   1 -11   40.95    5.00
   2   1 -11   49.47    4.25
   2   1 -11   47.90    5.28
  -2  -1  11   45.84    3.72
  -2  -1  11   46.81    3.69
  -2  -1  11   47.99    4.12
   1   1 -11    7.90    3.78
   1   1 -11    3.95    2.82
  -1  -1  11    7.93    0.97
  -1  -1  11    6.89    1.01
  -1  -1  11   10.09    2.15
   0   1 -11    0.97    0.80
   0   1 -11    1.62    3.54
   0   1 -11   -1.45    2.40
   0   1 -11   -0.29    0.80
   0  -1  11   -0.71    1.42
   0  -1  11    1.54    1.34
   0  -1  11   -0.36    2.26
  -1   1 -11    0.76    1.89
  -1   1 -11    1.59    2.96
  -1   1 -11    2.19    1.75
  -1   1 -11    1.29    2.87
   1  -1  11    0.83    2.54
   1  -1  11    0.45    2.01
   1  -1  11   -0.23    2.21
  -2   1 -11   19.55    4.16
  -2   1 -11   18.16    3.10
  -2   1 -11   18.79    4.61
   2  -1  11   22.92    3.66
   2  -1  11   19.28    3.35
  -3   1 -11   -3.67    2.73
  -3   1 -11   -3.40    3.53
  -3   1 -11    4.67    4.20
   3  -1  11   -1.05    3.62
   3  -1  11    3.61    3.31
  -4   1 -11    6.73    3.75
  -4   1 -11   14.35    4.01
  -4   1 -11    9.46    3.76
   4  -1  11    6.52    4.61
  -5   1 -11    9.24    4.61
  -5   1 -11   -1.44    5.11
  -5   1 -11   13.45    4.37
   5  -1  11   10.95    5.38
  -6   1 -11    7.92    4.05
  -6   1 -11    4.35    4.84
   6  -1  11   10.22    6.34
  -6   0  11   16.29    4.77
   5   0 -11   19.06    3.03
  -5   0  11   21.18    3.99
   4   0 -11    4.42    1.96
   4   0 -11   10.25    3.57
  -4   0  11    3.34    2.52
  -4   0  11    7.92    2.84
   3   0 -11   25.19    4.64
   3   0 -11   24.82    2.56
   3   0 -11   23.83    2.29
   3   0 -11   25.26    2.33
  -3   0  11   24.69    2.93
  -3   0  11   30.32    3.02
   2   0 -11   13.93    3.38
   2   0 -11   10.47    3.69
  -2   0  11   12.42    1.28
  -2   0  11   12.58    1.26
   1   0 -11    9.56    2.68
   1   0 -11    1.05    3.58
  -1   0  11    7.01    1.73
   0   0 -11   23.59    4.77
   0   0 -11   24.01    3.89
   0   0  11   23.65    2.44
   0   0  11   28.42    3.07
  -1   0 -11    2.24    3.28
  -1   0 -11    1.58    1.70
  -1   0 -11    2.10    1.83
  -1   0 -11    4.63    2.99
   1   0  11    3.28    2.12
   1   0  11    0.53    2.21
   1   0  11   -0.10    2.43
  -2   0 -11   13.07    4.18
  -2   0 -11    8.09    3.94
  -2   0 -11    0.20    2.32
   2   0  11    2.04    2.56
   2   0  11    5.80    2.96
  -3   0 -11   12.92    4.24
  -3   0 -11   10.39    3.32
  -3   0 -11    6.95    4.57
   3   0  11   14.00    4.16
   3   0  11   14.40    3.76
  -4   0 -11   -3.82    3.45
  -4   0 -11    2.15    3.48
  -4   0 -11   -7.25    3.09
   4   0  11    0.09    4.09
  -5   0 -11    8.97    5.75
  -5   0 -11   14.69    4.53
  -5   0 -11   18.93    4.98
   5   0  11   26.69    6.02
  -6   0 -11    4.19    4.69
  -6   0 -11    4.27    5.04
   6   0  11    1.58    6.05
  -6   1  11    7.48    4.15
   5  -1 -11    7.85    2.11
  -5   1  11   10.79    3.18
   4  -1 -11    5.42    4.32
   4  -1 -11    8.88    1.43
  -4   1  11    9.13    2.86
  -4   1  11   10.33    2.58
   3  -1 -11    1.23    0.94
   3  -1 -11    1.40    3.85
   3  -1 -11    1.26    0.78
  -3   1  11    0.50    1.66
  -3   1  11    4.04    1.89
   2  -1 -11    0.20    2.95
   2  -1 -11    5.08    3.57
  -2   1  11    2.44    0.75
  -2   1  11    1.07    0.71
   1  -1 -11    8.34    4.08
   1  -1 -11    2.80    3.35
  -1   1  11    6.26    1.52
   0  -1 -11   21.56    1.91
   0  -1 -11   21.96    4.99
   0  -1 -11   22.44    1.95
   0  -1 -11   36.58    4.59
   0   1  11   25.71    3.03
   0   1  11   22.61    2.37
   0   1  11   22.15    2.52
  -1  -1 -11   24.98    4.40
  -1  -1 -11   17.70    4.70
  -1  -1 -11   22.22    2.67
  -1  -1 -11   23.22    2.85
   1   1  11   18.60    3.10
   1   1  11   19.14    2.93
  -2  -1 -11   -5.63    3.88
  -2  -1 -11    5.02    3.98
  -2  -1 -11    2.02    2.39
   2   1  11    5.23    2.98
   2   1  11   -2.67    2.76
  -3  -1 -11   16.58    4.97
  -3  -1 -11   13.26    4.50
  -3  -1 -11    7.86    3.76
   3   1  11   15.48    3.89
   3   1  11   13.42    4.23
  -4  -1 -11   43.05    5.78
  -4  -1 -11   38.52    6.00
  -4  -1 -11   37.58    5.85
   4   1  11   45.91    5.76
  -5  -1 -11   -3.09    5.36
  -5  -1 -11   -5.31    3.74
  -5  -1 -11    4.10    3.39
   5   1  11    9.65    4.24
  -6   2  11    2.73    3.83
  -5   2  11   -5.36    2.42
  -4   2  11   18.07    3.22
  -4   2  11   26.44    3.27
   3  -2 -11   23.32    4.28
   3  -2 -11   24.48    2.31
   3  -2 -11   23.30    5.19
   3  -2 -11   24.26    2.22
  -3   2  11   20.42    2.80
  -3   2  11   28.91    3.01
   2  -2 -11   12.42    4.53
   2  -2 -11    5.60    3.91
  -2   2  11    6.47    1.36
  -2   2  11    7.68    1.38
   1  -2 -11    8.50    4.47
   1  -2 -11    6.85    2.86
  -1   2  11    4.74    1.24
  -1   2  11    5.72    1.18
  -1   2  11    6.47    1.34
   0  -2 -11   24.36    2.31
   0  -2 -11   20.67    5.06
   0  -2 -11   24.78    2.37
   0  -2 -11   19.63    4.42
   0   2  11   22.32    2.85
   0   2  11   26.15    2.69
  -1  -2 -11   87.34    6.85
  -1  -2 -11   86.60    8.87
  -1  -2 -11   78.63    7.96
  -1  -2 -11   89.15    6.72
   1   2  11   88.57    7.25
   1   2  11   87.47    6.95
  -2  -2 -11   38.78    4.37
  -2  -2 -11   39.31    5.94
  -2  -2 -11   39.00    5.04
   2   2  11   44.68    4.78
   2   2  11   32.41    4.68
  -3  -2 -11    2.18    4.04
  -3  -2 -11    5.35    4.82
  -3  -2 -11    5.72    3.25
   3   2  11    1.88    3.22
   3   2  11    6.71    3.91
  -4  -2 -11   -2.06    3.60
  -4  -2 -11   -5.30    4.85
  -4  -2 -11   -4.04    4.17
   4   2  11    0.01    4.07
  -5  -2 -11  -10.15    4.13
  -5  -2 -11    3.42    4.46
  -5  -2 -11    6.02    4.40
   5   2  11   -2.24    4.85
  -6   3  11    1.86    3.77
  -5   3  11   -0.21    2.74
  -4   3  11    5.43    2.83
   3  -3 -11   29.91    4.68
   3  -3 -11   28.33    2.69
   3  -3 -11   25.80    2.60
  -3   3  11   29.21    3.24
  -3   3  11   28.04    3.29
   2  -3 -11   -0.04    3.47
   2  -3 -11    8.44    4.11
  -2   3  11    5.48    1.67
  -2   3  11    4.62    1.73
   1  -3 -11  155.06   10.23
   1  -3 -11  161.08   10.24
   1  -3 -11  145.72   11.63
   1  -3 -11  171.15   13.26
  -1   3  11  156.26    9.98
  -1   3  11  153.72   10.70
  -1   3  11  152.22   10.60
   0  -3 -11   70.44    7.31
   0  -3 -11   64.12    6.52
   0  -3 -11   68.12    5.40
   0   3  11   71.32    5.76
   0   3  11   63.81    5.43
  -1  -3 -11    8.65    3.43
  -1  -3 -11    8.00    2.29
  -1  -3 -11   10.70    3.78
   1   3  11    3.74    2.39
   1   3  11    6.96    3.10
  -2  -3 -11   13.10    4.72
  -2  -3 -11    1.91    4.57
  -2  -3 -11    3.40    2.75
   2   3  11    3.82    3.47
   2   3  11    2.32    3.07
  -3  -3 -11    3.11    3.70
  -3  -3 -11    3.12    3.40
  -3  -3 -11    8.37    4.59
   3   3  11   13.04    4.13
   3   3  11    4.54    3.52
  -4  -3 -11    9.62    5.60
  -4  -3 -11    5.98    4.05
  -4  -3 -11  -10.85    4.05
   4   3  11    4.90    4.50
  -5  -3 -11   -0.65    4.57
  -5  -3 -11   -0.33    4.45
   5   3  11   -1.95    4.98
  -6   4  11   -5.82    3.65
  -5   4  11   -2.96    3.14
  -4   4  11   18.99    3.47
   3  -4 -11   27.71    3.06
   3  -4 -11   27.27    3.02
   3  -4 -11   20.96    4.52
  -3   4  11   25.84    3.42
  -3   4  11   33.11    3.65
   2  -4 -11   29.81    4.70
   2  -4 -11   31.95    3.04
   2  -4 -11   33.85    3.02
  -2   4  11   28.05    3.30
  -2   4  11   30.09    3.30
   1  -4 -11   65.67    8.54
   1  -4 -11   62.81    7.20
  -1   4  11   74.55    5.95
  -1   4  11   80.79    6.23
  -1   4  11   73.49    5.29
   0  -4 -11   35.39    3.90
   0  -4 -11   44.84    6.87
   0  -4 -11   34.95    5.59
   0  -4 -11   44.59    4.12
   0   4  11   34.43    3.97
   0   4  11   37.08    4.35
  -1  -4 -11    6.46    5.54
  -1  -4 -11   11.42    3.73
  -1  -4 -11   10.95    2.92
   1   4  11   10.99    3.69
   1   4  11   10.76    2.91
  -2  -4 -11   -0.36    4.79
  -2  -4 -11   10.37    4.94
  -2  -4 -11    0.81    2.73
   2   4  11   -0.46    2.91
   2   4  11    0.02    3.40
  -3  -4 -11   -3.86    3.21
  -3  -4 -11   -2.02    3.81
   3   4  11    3.35    4.17
  -4  -4 -11    1.88    4.43
  -4  -4 -11   11.16    4.47
   4   4  11   -1.64    4.55
  -5  -4 -11    5.29    4.87
  -5  -4 -11    4.21    6.61
   5   4  11    0.35    3.98
  -6   5  11   -6.69    4.09
  -5   5  11   -1.12    3.02
  -4   5  11   10.66    3.27
   3  -5 -11   39.45    6.03
  -3   5  11   41.17    4.44
  -3   5  11   35.58    4.28
   2  -5 -11   82.54    7.33
  -2   5  11   75.89    6.59
  -2   5  11   80.10    6.52
   1  -5 -11   17.80    3.99
  -1   5  11   12.50    2.88
  -1   5  11   12.09    3.18
  -1   5  11    8.29    2.06
   0  -5 -11    9.19    2.95
   0  -5 -11   10.95    3.56
   0   5  11    8.34    2.99
   0   5  11   14.96    3.31
  -1  -5 -11    2.84    3.22
  -1  -5 -11    0.33    2.52
   1   5  11   -1.80    3.08
   1   5  11   -0.73    2.64
  -2  -5 -11   -3.48    4.30
  -2  -5 -11    2.86    3.13
   2   5  11    0.60    3.14
   2   5  11    0.07    3.58
  -3  -5 -11   11.78    4.03
  -3  -5 -11    6.68    5.37
   3   5  11   17.10    4.86
  -4  -5 -11   16.83    5.08
  -4  -5 -11   13.30    6.50
   4   5  11   18.93    4.73
  -5   6  11   -1.88    3.15
  -4   6  11   49.48    5.34
   3  -6 -11   26.89    5.84
   3  -6 -11   26.37    3.53
   2  -6 -11   -0.27    2.28
   2  -6 -11   -3.26    3.01
  -2   6  11    2.67    2.84
  -2   6  11    2.50    2.58
   1  -6 -11   52.63    5.30
   1  -6 -11   56.91    6.53
  -1   6  11   75.92    6.58
  -1   6  11   51.55    5.42
  -1   6  11   60.95    5.04
   0  -6 -11   14.49    4.99
   0  -6 -11   12.57    2.96
   0   6  11   14.93    3.55
   0   6  11    6.08    2.90
   0   6  11    8.34    3.27
  -1  -6 -11    8.62    3.37
  -1  -6 -11    6.35    3.54
   1   6  11    7.73    4.11
  -2  -6 -11    7.82    3.57
  -2  -6 -11    8.45    3.79
   2   6  11    2.79    4.13
  -3  -6 -11   -0.98    3.69
  -3  -6 -11    3.85    3.69
   3   6  11    4.35    4.34
  -4  -6 -11   13.57    4.78
  -4  -6 -11   -0.57    5.97
   4   6  11    3.73    5.35
  -5   7  11   -2.87    3.81
  -4   7  11    2.77    3.54
   3  -7 -11   -1.80    4.69
   2  -7 -11   37.43    5.33
   2  -7 -11   37.31    4.39
  -2   7  11   38.13    4.86
   1  -7 -11    8.35    3.21
   1  -7 -11    8.57    4.80
  -1   7  11    5.09    3.25
  -1   7  11    9.28    2.68
   0  -7 -11   -1.72    2.65
   0  -7 -11   -2.39    4.45
   0   7  11    1.31    3.68
   0   7  11    2.71    3.21
  -1  -7 -11    6.38    3.51
  -1  -7 -11    5.24    3.26
   1   7  11    1.51    3.90
   1   7  11    5.04    3.73
  -2  -7 -11    5.16    3.92
  -2  -7 -11    6.39    5.01
   2   7  11   -7.21    3.97
  -3  -7 -11    4.40    5.49
  -3  -7 -11   12.18    4.43
   3   7  11   14.85    5.30
  -5   8  11    0.80    4.21
  -4   8  11   19.55    4.61
   3  -8 -11   -3.81    4.85
  -3   8  11    5.56    3.48
   2  -8 -11   -1.72    4.67
  -2   8  11    7.23    3.37
   1  -8 -11    9.36    4.94
   1  -8 -11    9.46    3.62
  -1   8  11   13.12    3.95
  -1   8  11    9.69    2.99
   0  -8 -11   10.73    4.89
   0  -8 -11    7.96    3.46
   0   8  11   20.44    4.03
   0   8  11   10.27    4.12
  -1  -8 -11   14.76    4.02
  -1  -8 -11    6.40    4.93
   1   8  11   13.71    4.65
   1   8  11   11.34    4.27
  -2  -8 -11   16.42    4.25
  -2  -8 -11    0.02    4.93
   2   8  11    6.94    4.90
   2   8  11   -0.57    4.49
  -3  -8 -11    3.57    5.48
   3   8  11    2.10    5.68
   3   8  11    8.62    5.22
  -4   9  11    1.05    3.79
   3  -9 -11    5.81    5.58
  -3   9  11   -0.97    3.21
   2  -9 -11    8.46    3.98
  -2   9  11   -0.90    3.35
   1  -9 -11    5.90    4.59
  -1   9  11   11.67    4.69
   0  -9 -11    0.50    4.56
   0   9  11    7.07    4.28
   0   9  11   -0.29    3.58
  -1  -9 -11    9.32    5.13
   1   9  11   -0.64    4.56
   1   9  11    9.74    4.82
  -2  -9 -11    6.48    4.99
   2   9  11   10.81    5.38
   2   9  11   -0.31    4.80
   3 -10 -11    2.76    4.23
  -3  10  11   -0.48    3.65
   2 -10 -11    5.15    5.35
  -2  10  11   -3.67    3.71
   1 -10 -11   28.27    5.19
  -1  10  11   25.75    5.59
   0 -10 -11    5.03    4.93
   0  10  11    9.36    5.04
   0  10  11    9.20    4.23
  -1 -10 -11    6.40    4.05
   1  10  11   -1.02    4.28
   1  10  11    5.77    4.85
   1 -11 -11   -5.36    4.53
  -1  11  11    6.22    4.97
   0  12 -12    6.83    6.13
   0 -12  12   15.96    6.22
  -1  12 -12   -3.23    4.51
  -1  12 -12   -0.05    5.69
   1 -12  12    6.39    5.84
   2  11 -12    1.09    4.29
  -2 -11  12   -2.23    5.30
   1  11 -12   14.21    4.83
  -1 -11  12    4.98    4.90
   0  11 -12   42.58    6.22
   0  11 -12   31.67    6.93
   0 -11  12   32.13    6.53
  -1  11 -12   26.12    5.52
  -1  11 -12   30.83    5.58
   1 -11  12   15.19    5.86
  -2  11 -12   12.82    5.89
   2 -11  12    1.54    3.74
  -3  11 -12   11.27    5.25
   3 -11  12   -3.17    5.21
   3  10 -12   13.23    4.97
   3  10 -12    9.24    4.58
  -3 -10  12    0.45    4.82
   2  10 -12    6.01    5.18
   2  10 -12   11.77    5.73
  -2 -10  12    5.01    4.94
   1  10 -12   39.91    6.96
   1  10 -12   51.35    6.37
  -1 -10  12   39.79    6.70
   0  10 -12    1.47    3.82
   0  10 -12   -2.77    4.93
   0 -10  12    4.88    3.65
  -1  10 -12    9.50    5.36
  -1  10 -12   12.05    4.49
   1 -10  12   11.23    4.94
  -2  10 -12   -5.64    2.97
  -2  10 -12   -4.00    5.07
   2 -10  12    3.12    4.80
  -3  10 -12   -3.66    4.31
   3 -10  12    6.19    4.00
  -4  10 -12   12.68    6.74
  -4  10 -12    1.31    3.90
   4 -10  12    1.04    5.52
   3   9 -12    8.25    5.30
   3   9 -12    5.74    4.66
  -3  -9  12    0.94    4.51
   2   9 -12    1.85    4.63
   2   9 -12   -0.57    4.76
   2   9 -12    4.91    4.07
  -2  -9  12    6.63    4.54
   1   9 -12   -5.79    4.43
   1   9 -12    2.04    3.67
  -1  -9  12    1.80    4.07
   0   9 -12   10.93    5.07
   0   9 -12    8.32    4.02
   0  -9  12   16.99    4.65
  -1   9 -12    4.48    3.90
  -1   9 -12   -0.33    4.49
   1  -9  12    5.89    4.23
  -2   9 -12    6.56    3.37
  -2   9 -12   21.99    4.67
   2  -9  12   11.56    4.70
  -3   9 -12   -6.19    3.97
  -3   9 -12    2.07    5.82
   3  -9  12    5.65    3.66
  -4   9 -12   -1.11    4.70
  -4   9 -12    6.48    5.76
   4  -9  12    0.11    5.36
   4   8 -12   19.31    4.57
   4   8 -12    9.66    5.36
  -4  -8  12   16.08    5.16
   3   8 -12    5.14    4.38
   3   8 -12   10.41    4.16
  -3  -8  12    3.51    4.21
   2   8 -12   -4.14    4.18
   2   8 -12    2.35    4.04
   2   8 -12    1.80    4.41
  -2  -8  12    2.44    3.98
   1   8 -12    1.84    3.26
   1   8 -12   -2.39    3.59
   1   8 -12   10.82    3.98
  -1  -8  12   11.81    4.09
   0   8 -12    3.25    3.33
   0   8 -12    8.47    4.35
   0   8 -12   -0.28    3.13
   0  -8  12    0.37    3.73
  -1   8 -12    2.75    4.18
  -1   8 -12    6.60    4.59
   1  -8  12    9.67    4.00
  -2   8 -12    0.11    3.35
  -2   8 -12    6.19    3.84
  -2   8 -12    4.94    5.77
   2  -8  12    1.69    4.08
  -3   8 -12    7.33    5.68
  -3   8 -12    4.66    4.15
   3  -8  12   -5.31    4.18
  -4   8 -12    1.49    4.48
  -4   8 -12    2.23    5.46
  -4   8 -12    2.59    3.55
   4  -8  12   -3.04    4.89
  -5   8 -12   -8.91    4.80
  -5   8 -12  -12.91    4.65
  -5   8 -12    9.96    5.76
   5  -8  12   -1.11    5.74
   4   7 -12    7.90    4.69
   4   7 -12   13.01    4.01
  -4  -7  12    5.68    4.29
   3   7 -12   11.90    4.56
   3   7 -12   15.98    4.79
   3   7 -12   15.43    4.56
  -3  -7  12   13.89    4.80
   2   7 -12   11.60    4.64
   2   7 -12    3.15    4.07
   2   7 -12    2.19    3.43
  -2  -7  12    3.76    3.63
   1   7 -12   -3.33    4.58
   1   7 -12   -6.98    3.67
   1   7 -12    3.31    3.02
  -1  -7  12    4.15    3.51
  -1  -7  12   -0.22    3.11
   0   7 -12   -3.81    4.87
   0   7 -12    2.84    3.12
   0   7 -12    0.01    2.92
   0  -7  12    1.08    3.20
   0  -7  12   -1.31    3.10
  -1   7 -12    2.44    5.33
  -1   7 -12    7.26    4.35
   1  -7  12    8.91    3.68
   1  -7  12    3.14    3.63
  -2   7 -12   32.52    5.03
  -2   7 -12   34.16    3.47
  -2   7 -12   40.77    6.22
   2  -7  12   31.83    5.12
   2  -7  12   27.47    5.14
  -3   7 -12   -1.37    5.00
  -3   7 -12   -1.29    3.70
  -3   7 -12   -2.91    2.68
   3  -7  12    3.28    3.23
  -4   7 -12   -1.92    3.79
  -4   7 -12    3.56    3.95
  -4   7 -12    8.67    4.53
   4  -7  12    2.00    4.76
  -5   7 -12    5.61    3.87
  -5   7 -12   -2.62    4.84
  -5   7 -12   -3.74    4.66
   5  -7  12    1.45    5.65
   5   6 -12   -0.12    4.36
  -5  -6  12   -1.05    4.67
   4   6 -12   -2.55    3.02
   4   6 -12    0.37    4.07
  -4  -6  12    0.45    3.64
   3   6 -12   31.61    4.63
   3   6 -12   34.28    5.53
   3   6 -12   23.46    4.88
  -3  -6  12   16.56    4.32
   2   6 -12   -3.80    3.88
   2   6 -12    9.27    3.99
   2   6 -12    2.06    3.02
  -2  -6  12    1.70    3.50
  -2  -6  12   -0.61    2.93
   1   6 -12  194.29   14.02
   1   6 -12  182.07   13.73
   1   6 -12  200.25   15.94
  -1  -6  12  220.51   14.34
  -1  -6  12  185.31   14.35
   0   6 -12   -6.53    4.80
   0   6 -12   -0.03    2.62
   0   6 -12    6.39    3.13
   0  -6  12    5.72    3.19
   0  -6  12    0.87    2.91
  -1   6 -12    0.25    1.71
  -1   6 -12    1.73    2.92
  -1   6 -12   -1.47    3.73
  -1   6 -12   -4.88    4.91
   1  -6  12   -0.19    2.92
   1  -6  12   -1.25    2.94
  -2   6 -12    4.23    2.59
  -2   6 -12    4.50    3.33
  -2   6 -12    2.95    4.03
   2  -6  12    3.81    3.57
   2  -6  12    5.31    3.61
  -3   6 -12   14.77    4.29
  -3   6 -12    5.55    3.26
  -3   6 -12    5.51    3.72
   3  -6  12    6.10    4.26
  -4   6 -12   -4.74    3.87
  -4   6 -12   -5.83    3.55
  -4   6 -12    0.86    3.47
   4  -6  12    6.95    4.76
  -5   6 -12   -4.94    4.68
  -5   6 -12    7.72    4.92
  -5   6 -12    8.60    3.94
   5  -6  12    5.10    4.24
   5   5 -12    8.65    4.53
  -5  -5  12   -6.50    4.15
   4   5 -12   23.04    4.02
   4   5 -12   11.70    4.20
  -4  -5  12    6.35    3.76
   3   5 -12   22.46    4.43
   3   5 -12   17.91    4.09
   3   5 -12   18.37    3.51
  -3  -5  12   14.90    3.93
   2   5 -12   -5.93    3.93
   2   5 -12    0.81    3.23
   2   5 -12    2.57    2.75
  -2  -5  12   -1.51    2.55
  -2  -5  12    1.80    3.07
   1   5 -12   -3.50    4.34
   1   5 -12   -5.70    3.34
   1   5 -12    1.35    2.40
  -1  -5  12    4.40    2.61
  -1  -5  12    2.62    2.59
   0   5 -12   83.84    6.12
   0   5 -12   84.94    9.39
   0   5 -12   83.25    7.77
   0  -5  12   94.84    7.52
   0  -5  12   81.34    7.32
  -1   5 -12   21.54    3.70
  -1   5 -12   17.46    2.78
  -1   5 -12   12.64    3.41
  -1   5 -12   12.35    5.43
   1  -5  12   20.84    3.69
   1  -5  12   16.95    3.52
  -2   5 -12   19.83    4.75
  -2   5 -12   16.08    3.63
  -2   5 -12   14.59    3.33
   2  -5  12   12.97    3.89
   2  -5  12   20.38    4.03
  -3   5 -12   17.30    4.12
  -3   5 -12   24.26    5.78
  -3   5 -12   25.00    4.29
   3  -5  12   22.64    4.57
   3  -5  12   20.33    4.70
  -4   5 -12    5.29    4.73
  -4   5 -12    1.67    3.90
  -4   5 -12    5.05    4.11
   4  -5  12    6.58    4.75
  -5   5 -12   -0.84    4.76
  -5   5 -12   -1.31    4.17
  -5   5 -12   10.91    4.78
   5  -5  12    1.50    4.98
   5   4 -12   -1.20    3.41
  -5  -4  12   10.46    3.92
   4   4 -12    3.09    3.33
   4   4 -12   -1.13    3.04
  -4  -4  12   -4.06    3.35
   3   4 -12   30.00    4.56
   3   4 -12   36.37    3.99
   3   4 -12   29.40    4.76
  -3  -4  12   33.01    4.38
  -3  -4  12   29.91    4.20
   2   4 -12    2.53    3.90
   2   4 -12   -2.08    2.86
  -2  -4  12   -0.80    3.00
  -2  -4  12    1.70    2.69
  -2  -4  12    0.19    2.52
   1   4 -12   18.04    3.54
   1   4 -12   14.90    2.30
   1   4 -12    9.67    4.79
   1   4 -12   14.34    2.88
  -1  -4  12   17.41    3.05
  -1  -4  12    9.39    2.76
  -1  -4  12   17.13    3.59
   0   4 -12    8.84    2.73
   0   4 -12    6.03    2.15
   0   4 -12    3.48    4.56
   0   4 -12    5.42    2.25
   0   4 -12    3.89    2.25
   0  -4  12    0.80    2.43
   0  -4  12   -1.09    2.27
  -1   4 -12   37.04    4.28
  -1   4 -12   49.25    4.55
  -1   4 -12   39.01    5.70
   1  -4  12   43.77    4.80
   1  -4  12   41.99    4.62
  -2   4 -12    2.18    2.80
  -2   4 -12    5.95    2.94
  -2   4 -12    4.95    4.84
   2  -4  12    1.43    3.10
   2  -4  12    2.14    3.07
  -3   4 -12    7.62    3.71
  -3   4 -12    6.45    3.34
  -3   4 -12    5.23    3.73
   3  -4  12    7.88    3.61
   3  -4  12    5.44    4.01
  -4   4 -12   13.00    4.56
  -4   4 -12    4.99    4.33
  -4   4 -12    8.93    4.05
   4  -4  12   16.70    4.90
  -5   4 -12    8.66    4.64
  -5   4 -12    9.48    4.60
  -5   4 -12    0.27    4.91
   5  -4  12   -1.10    5.00
  -6  -3  12    3.10    4.46
   5   3 -12   -3.28    3.20
  -5  -3  12   -0.15    3.65
   4   3 -12   -1.02    2.75
   4   3 -12   -3.76    2.53
   4   3 -12    0.45    2.75
  -4  -3  12    0.48    2.66
   3   3 -12   30.33    4.58
   3   3 -12   30.00    4.09
  -3  -3  12   26.06    3.62
  -3  -3  12   24.44    3.66
   2   3 -12    2.29    1.50
   2   3 -12   -5.29    2.78
   2   3 -12    7.39    1.78
   2   3 -12    2.75    3.80
  -2  -3  12    4.02    2.27
  -2  -3  12   -0.56    2.59
  -2  -3  12    3.40    2.21
   1   3 -12    2.88    2.70
   1   3 -12   -0.16    2.33
   1   3 -12   -4.35    3.95
   1   3 -12   -1.59    1.20
  -1  -3  12   -2.22    1.91
  -1  -3  12   -2.61    1.85
  -1  -3  12    2.87    2.86
   0   3 -12   59.42    4.80
   0   3 -12   56.82    5.21
   0   3 -12   54.54    7.03
   0  -3  12   59.75    5.46
   0  -3  12   58.26    5.02
   0  -3  12   52.06    5.10
  -1   3 -12   16.80    3.18
  -1   3 -12   11.67    3.97
  -1   3 -12   18.45    3.02
  -1   3 -12   15.48    2.72
   1  -3  12   16.78    2.90
   1  -3  12   16.97    3.30
  -2   3 -12    1.70    2.92
  -2   3 -12   -4.56    4.33
  -2   3 -12    1.11    2.99
   2  -3  12    6.63    2.99
   2  -3  12    1.59    3.44
  -3   3 -12    1.19    3.10
  -3   3 -12    2.23    3.51
  -3   3 -12   10.44    3.48
   3  -3  12    1.28    3.66
  -4   3 -12   13.04    4.36
  -4   3 -12    7.05    4.01
  -4   3 -12    6.17    4.53
   4  -3  12   14.00    3.76
  -5   3 -12   12.05    3.83
  -5   3 -12    1.08    5.13
  -5   3 -12    9.63    4.33
   5  -3  12   12.90    5.50
  -6  -2  12   -1.73    4.02
   5   2 -12   10.40    3.34
  -5  -2  12   12.73    3.88
   4   2 -12    4.42    2.68
   4   2 -12    4.88    3.46
  -4  -2  12    2.72    2.86
   3   2 -12   -1.96    1.48
   3   2 -12    1.99    2.54
   3   2 -12   -0.03    1.60
   3   2 -12   -0.53    3.30
  -3  -2  12    1.48    1.99
  -3  -2  12    0.88    2.40
   2   2 -12   21.19    3.19
   2   2 -12   20.26    3.82
  -2  -2  12   20.39    2.45
  -2  -2  12   22.45    3.18
  -2  -2  12   18.28    2.47
   1   2 -12   52.08    4.92
   1   2 -12   56.10    6.59
   1   2 -12   63.64    5.39
  -1  -2  12   54.88    4.32
  -1  -2  12   55.17    4.33
  -1  -2  12   53.64    4.96
   0   2 -12   17.33    4.77
   0   2 -12   16.42    3.32
   0   2 -12   13.34    1.71
   0   2 -12   12.54    1.67
   0  -2  12   11.05    2.15
   0  -2  12   13.03    3.16
   0  -2  12   11.43    2.20
  -1   2 -12   19.26    3.42
  -1   2 -12   17.55    2.77
  -1   2 -12   14.80    5.00
  -1   2 -12   14.42    2.51
   1  -2  12   22.36    3.80
   1  -2  12   15.28    2.88
   1  -2  12   17.25    2.96
  -2   2 -12   23.89    3.58
  -2   2 -12   32.45    4.80
  -2   2 -12   31.46    4.50
   2  -2  12   26.24    3.98
  -3   2 -12    1.36    3.86
  -3   2 -12    1.28    4.08
  -3   2 -12    4.51    3.03
   3  -2  12   -3.54    3.00
   3  -2  12    3.69    3.56
  -4   2 -12   18.82    4.40
  -4   2 -12   19.86    4.36
  -4   2 -12   22.69    4.77
   4  -2  12   15.08    4.11
  -5   2 -12   -4.34    3.95
  -5   2 -12   -7.13    5.05
  -5   2 -12   -5.03    3.30
   5  -2  12   -4.64    4.77
  -6  -1  12    6.40    3.65
   5   1 -12   -7.55    3.20
   5   1 -12    3.56    2.60
  -5  -1  12   -1.42    3.01
   4   1 -12   14.49    2.63
   4   1 -12   10.31    3.75
  -4  -1  12   10.31    3.05
   3   1 -12    3.29    3.46
   3   1 -12   -2.18    1.96
   3   1 -12   -0.58    0.85
   3   1 -12    0.43    1.05
  -3  -1  12    1.40    2.00
  -3  -1  12   -1.87    1.83
   2   1 -12   10.93    4.16
   2   1 -12   16.51    3.84
   2   1 -12   17.98    2.50
  -2  -1  12   18.73    1.72
  -2  -1  12   15.13    1.73
  -2  -1  12   16.53    2.53
   1   1 -12   21.19    4.78
   1   1 -12   23.55    3.84
  -1  -1  12   22.53    1.65
  -1  -1  12   23.94    1.69
  -1  -1  12   23.77    3.06
   0   1 -12   32.51    5.61
   0   1 -12   29.45    4.25
   0   1 -12   31.60    2.26
   0   1 -12   32.12    2.26
   0  -1  12   33.45    3.11
   0  -1  12   30.47    3.66
   0  -1  12   35.40    3.03
  -1   1 -12   32.78    4.45
  -1   1 -12   28.68    4.75
  -1   1 -12   30.71    3.20
   1  -1  12   28.93    4.02
   1  -1  12   23.14    3.35
  -2   1 -12    2.62    4.35
  -2   1 -12    6.84    3.88
  -2   1 -12    7.01    2.89
   2  -1  12    6.37    2.75
   2  -1  12   10.42    3.19
  -3   1 -12    8.83    4.38
  -3   1 -12    2.45    3.05
  -3   1 -12   10.79    3.27
   3  -1  12    7.56    3.37
   3  -1  12    4.98    3.68
  -4   1 -12    7.11    4.92
  -4   1 -12    7.85    3.59
  -4   1 -12    1.34    3.63
   4  -1  12   -1.35    3.87
  -5   1 -12   11.97    5.71
  -5   1 -12   -6.85    3.75
  -5   1 -12   -1.43    3.49
   5  -1  12    1.68    3.68
  -6   0  12    1.77    3.39
  -5   0  12    2.72    3.05
   4   0 -12    5.09    4.15
   4   0 -12    7.03    2.09
   4   0 -12    6.83    1.86
  -4   0  12    6.46    2.52
   3   0 -12   17.70    1.97
   3   0 -12   17.12    4.60
  -3   0  12   17.94    2.37
  -3   0  12   18.24    2.40
   2   0 -12    3.21    3.95
   2   0 -12    2.68    3.43
   1   0 -12  195.54   14.63
   1   0 -12  186.38   12.98
  -1   0  12  194.25   12.49
   0   0 -12   -0.78    2.98
   0   0 -12    1.50    3.15
   0   0  12    1.35    1.48
   0   0  12   -2.10    1.96
  -1   0 -12    0.57    1.86
  -1   0 -12   -2.89    3.96
  -1   0 -12   -2.99    3.33
   1   0  12    2.59    2.16
   1   0  12    3.80    2.40
   1   0  12   -0.26    2.62
  -2   0 -12    0.58    2.80
  -2   0 -12    4.35    2.71
  -2   0 -12   -1.97    4.09
   2   0  12    1.68    2.65
   2   0  12    2.53    2.93
  -3   0 -12    1.50    2.79
  -3   0 -12   -4.05    2.95
  -3   0 -12    9.21    4.20
   3   0  12    2.32    3.27
   3   0  12    1.18    3.41
  -4   0 -12   38.13    5.83
  -4   0 -12   35.60    5.18
  -4   0 -12   27.08    6.06
   4   0  12   25.68    5.63
  -5   0 -12   10.77    4.53
  -5   0 -12    5.74    5.49
  -5   0 -12   12.21    3.79
   5   0  12    8.60    5.33
  -6   1  12    0.39    3.52
  -5   1  12   -3.03    2.86
   4  -1 -12    1.83    3.88
   4  -1 -12    4.58    1.86
  -4   1  12    3.51    2.46
   3  -1 -12    0.67    3.83
  -3   1  12    0.86    1.59
  -3   1  12   -0.64    1.53
   2  -1 -12   16.38    3.99
   2  -1 -12   19.32    3.66
   1  -1 -12   50.07    6.06
   1  -1 -12   53.68    5.51
  -1   1  12   52.86    4.06
   0  -1 -12   49.68    5.71
   0  -1 -12   48.78    5.82
   0   1  12   50.65    4.47
   0   1  12   49.31    4.11
   0   1  12   45.36    3.92
  -1  -1 -12   29.64    4.25
  -1  -1 -12   31.24    3.25
  -1  -1 -12   25.01    5.42
   1   1  12   28.94    3.42
   1   1  12   22.00    3.50
  -2  -1 -12   52.92    6.81
  -2  -1 -12   54.80    5.32
  -2  -1 -12   54.70    6.47
   2   1  12   45.84    5.51
   2   1  12   58.64    5.56
  -3  -1 -12    4.67    4.39
  -3  -1 -12   10.55    3.71
  -3  -1 -12    9.54    3.85
   3   1  12   16.04    4.07
   3   1  12   13.81    3.77
  -4  -1 -12   -0.13    4.38
  -4  -1 -12   -0.03    5.21
  -4  -1 -12   -0.45    3.62
   4   1  12    2.20    4.56
  -5  -1 -12   -5.36    4.14
  -5  -1 -12   -0.16    5.31
  -5  -1 -12    4.05    4.55
   5   1  12   -2.70    5.15
  -6   2  12   -7.08    3.31
  -5   2  12   15.29    3.61
   4  -2 -12    0.88    1.70
  -4   2  12    5.56    2.30
   3  -2 -12   -0.17    4.12
   3  -2 -12    1.99    4.48
  -3   2  12   -0.49    1.73
  -3   2  12   -0.26    1.71
   2  -2 -12   11.70    3.30
   2  -2 -12   15.35    5.15
  -2   2  12    9.64    1.19
  -2   2  12   10.41    1.21
   1  -2 -12   56.92    6.43
   1  -2 -12   53.33    7.43
  -1   2  12   59.65    4.34
  -1   2  12   61.10    4.26
  -1   2  12   61.35    4.24
   0  -2 -12   15.60    1.88
   0  -2 -12   15.57    1.81
   0  -2 -12   13.25    5.27
   0  -2 -12   25.83    4.81
   0   2  12   21.95    2.76
   0   2  12   21.65    2.49
  -1  -2 -12   22.70    2.93
  -1  -2 -12   26.94    4.85
  -1  -2 -12   25.78    3.22
  -1  -2 -12   24.62    5.61
   1   2  12   21.44    3.31
   1   2  12   24.60    3.61
  -2  -2 -12   -2.51    4.26
  -2  -2 -12    5.92    2.63
  -2  -2 -12    3.80    4.50
   2   2  12    1.93    2.79
   2   2  12   -2.30    3.41
  -3  -2 -12    8.02    3.33
  -3  -2 -12    1.30    3.72
  -3  -2 -12   11.86    4.71
   3   2  12    3.77    3.28
   3   2  12    6.28    3.81
  -4  -2 -12   19.65    5.12
  -4  -2 -12   18.03    6.23
  -4  -2 -12   37.97    5.51
   4   2  12   29.26    5.74
  -5  -2 -12   -2.76    5.61
  -5  -2 -12   -5.53    4.07
  -5  -2 -12  -16.58    4.61
   5   2  12   -0.57    4.79
  -6   3  12    5.64    3.81
  -5   3  12    5.28    3.20
  -4   3  12    0.96    2.40
   3  -3 -12   19.53    4.97
  -3   3  12   11.93    2.36
  -3   3  12   13.95    2.40
   2  -3 -12  130.65   11.23
   2  -3 -12  123.48    9.74
  -2   3  12  109.12    7.82
  -2   3  12  110.48    7.91
   1  -3 -12   -3.39    2.94
   1  -3 -12    2.08    3.76
  -1   3  12    0.24    1.70
  -1   3  12    1.32    1.27
  -1   3  12    0.73    1.57
   0  -3 -12   37.08    3.33
   0  -3 -12   34.27    5.49
   0  -3 -12   30.46    5.28
   0   3  12   33.00    3.59
   0   3  12   38.13    3.94
  -1  -3 -12   28.97    3.64
  -1  -3 -12   34.39    4.65
  -1  -3 -12   25.39    5.06
   1   3  12   35.13    3.85
   1   3  12   31.78    4.03
  -2  -3 -12    3.25    2.68
  -2  -3 -12    3.67    4.91
  -2  -3 -12   -0.62    4.27
   2   3  12    8.15    3.05
   2   3  12    3.84    3.32
  -3  -3 -12   17.11    4.51
  -3  -3 -12   19.64    5.21
  -3  -3 -12   16.57    3.91
   3   3  12   11.50    4.42
  -4  -3 -12   18.28    4.72
  -4  -3 -12   14.41    4.72
  -4  -3 -12    3.93    4.89
   4   3  12   16.64    5.04
  -5  -3 -12    8.53    4.87
  -5  -3 -12   -1.06    6.25
   5   3  12    2.12    5.26
  -6   4  12    6.06    4.06
  -5   4  12   -4.59    2.92
  -4   4  12   -1.07    2.57
   3  -4 -12    2.80    1.50
   3  -4 -12    3.30    1.39
   3  -4 -12    3.21    4.60
  -3   4  12    3.88    2.11
  -3   4  12    3.77    2.33
   2  -4 -12    9.48    1.29
   2  -4 -12    7.99    1.19
   2  -4 -12    9.20    3.59
  -2   4  12    6.92    2.09
   1  -4 -12   -0.19    3.13
   1  -4 -12    2.47    4.25
   1  -4 -12   -1.05    1.48
   1  -4 -12   -1.71    1.35
  -1   4  12    1.60    1.88
  -1   4  12   -0.97    2.20
  -1   4  12    1.62    1.59
   0  -4 -12   31.67    6.52
   0  -4 -12   23.02    4.52
   0   4  12   25.86    3.90
   0   4  12   26.58    3.45
  -1  -4 -12    4.38    2.62
  -1  -4 -12    4.75    4.52
  -1  -4 -12    2.96    5.26
   1   4  12   -0.73    2.83
   1   4  12    1.72    2.83
  -2  -4 -12    5.34    4.68
  -2  -4 -12    1.03    4.92
  -2  -4 -12   -4.33    2.47
   2   4  12    0.13    3.23
  -3  -4 -12   16.80    3.94
  -3  -4 -12    7.12    5.31
   3   4  12    4.45    4.22
  -4  -4 -12    6.01    4.46
  -4  -4 -12    4.39    4.33
   4   4  12    4.79    4.86
  -5   5  12    1.55    3.28
  -4   5  12    5.24    2.97
   3  -5 -12   -4.14    4.25
   3  -5 -12    3.80    1.73
  -3   5  12    0.64    2.35
   2  -5 -12    0.08    1.67
   2  -5 -12    4.94    4.64
  -2   5  12    3.07    2.29
  -2   5  12    4.03    2.30
   1  -5 -12    5.92    3.38
  -1   5  12   -1.59    2.67
  -1   5  12   -0.18    1.72
  -1   5  12    1.64    2.29
   0  -5 -12   26.93    5.52
   0  -5 -12   33.87    3.83
   0   5  12   35.10    4.20
   0   5  12   30.04    4.39
  -1  -5 -12   72.48    6.25
  -1  -5 -12   68.70    7.72
   1   5  12   69.97    6.51
   1   5  12   65.77    6.79
  -2  -5 -12    9.60    3.26
  -2  -5 -12   -0.45    4.74
   2   5  12    8.03    3.95
  -3  -5 -12    5.14    5.57
  -3  -5 -12    7.08    3.73
   3   5  12   -0.53    4.11
  -4  -5 -12    7.13    6.43
  -4  -5 -12   13.08    4.69
   4   5  12    3.46    5.05
  -5   6  12    5.76    3.62
  -4   6  12    8.16    3.23
   3  -6 -12    5.90    3.77
  -3   6  12    4.94    2.87
   2  -6 -12   21.24    5.37
  -2   6  12   15.96    3.35
   1  -6 -12  136.09    9.79
   1  -6 -12  127.39   11.11
  -1   6  12  132.35    9.19
  -1   6  12  134.60   10.36
   0  -6 -12   21.04    3.47
   0  -6 -12   13.82    4.09
   0   6  12   22.10    4.21
   0   6  12   25.09    3.74
  -1  -6 -12   21.98    5.30
  -1  -6 -12   21.56    3.80
   1   6  12   27.20    4.68
  -2  -6 -12    7.98    4.92
  -2  -6 -12    9.02    3.46
   2   6  12    3.81    3.89
  -3  -6 -12    3.37    3.76
  -3  -6 -12    5.46    4.32
   3   6  12   -3.74    4.45
  -4  -6 -12    6.89    6.29
   4   6  12    7.85    4.39
  -5   7  12    5.56    4.15
  -4   7  12   15.51    3.88
   3  -7 -12   42.74    6.10
   2  -7 -12   -0.52    3.37
  -2   7  12   -0.06    2.93
   1  -7 -12    0.44    2.66
   1  -7 -12    1.60    4.57
  -1   7  12    8.07    2.51
  -1   7  12   10.09    3.82
   0  -7 -12    6.43    3.61
   0  -7 -12    6.05    2.88
   0   7  12    3.37    3.45
   0   7  12   -2.14    3.08
  -1  -7 -12   -0.47    3.00
  -1  -7 -12   -6.61    4.41
   1   7  12    1.13    3.85
   1   7  12   -6.34    3.83
  -2  -7 -12    0.61    3.44
  -2  -7 -12   -0.01    3.70
   2   7  12   -2.52    4.20
  -3  -7 -12   -5.94    5.04
   3   7  12   -2.27    3.46
  -4   8  12    7.02    3.92
   3  -8 -12   -4.17    3.63
   2  -8 -12   -8.18    4.55
  -2   8  12    7.17    3.56
   1  -8 -12   -2.33    4.70
  -1   8  12    2.19    3.37
   0  -8 -12    5.80    3.74
   0   8  12    0.65    4.13
   0   8  12   -0.95    3.33
  -1  -8 -12   -2.98    4.50
   1   8  12    0.73    4.00
   1   8  12   -2.31    4.19
  -2  -8 -12   -0.15    4.99
   2   8  12    1.02    4.34
   2   8  12   -5.34    4.04
  -4   9  12    4.30    3.77
   3  -9 -12    3.03    5.45
  -3   9  12    2.48    3.67
   2  -9 -12    1.62    5.13
  -2   9  12    0.90    3.98
   1  -9 -12   -5.82    4.52
  -1   9  12    1.65    3.76
   0  -9 -12    1.67    3.86
   0   9  12    0.74    3.49
   0   9  12    3.96    4.26
  -1  -9 -12   -2.13    3.37
   1   9  12   -2.06    4.40
   1   9  12   -4.48    4.05
  -2  -9 -12    3.63    5.38
   2   9  12    4.06    5.17
   2   9  12   -0.56    4.87
   3 -10 -12    4.74    5.82
   2 -10 -12   14.82    5.86
  -2  10  12    7.09    4.62
   1 -10 -12   10.82    5.25
  -1  10  12   15.71    5.30
   0 -10 -12    5.61    3.98
   0  10  12    5.26    4.73
   1  11 -13    9.35    4.67
   1  11 -13    2.56    4.64
  -1 -11  13   15.09    5.45
   0  11 -13    1.94    5.56
   0 -11  13    3.41    5.15
  -1  11 -13   -5.78    3.75
   1 -11  13   11.05    5.43
  -2  11 -13    9.81    6.19
  -2  11 -13    5.50    5.10
   2 -11  13    7.37    5.37
   2  10 -13    1.73    3.99
   2  10 -13    7.77    5.30
  -2 -10  13   11.61    5.08
   1  10 -13   20.52    6.58
   1  10 -13   18.56    4.75
  -1 -10  13   17.40    5.46
   0  10 -13   10.72    4.21
   0  10 -13    2.36    5.24
   0 -10  13    4.36    4.69
  -1  10 -13   -2.50    4.98
   1 -10  13    5.63    4.60
  -2  10 -13    6.75    4.96
  -2  10 -13    6.19    4.45
  -2  10 -13   -1.83    5.27
   2 -10  13   -1.93    4.73
  -3  10 -13    8.06    6.39
  -3  10 -13    2.37    4.58
   3 -10  13    0.63    4.88
   3   9 -13    9.64    4.66
   3   9 -13    9.93    4.27
  -3  -9  13   12.90    5.36
   2   9 -13    7.62    5.04
   2   9 -13    2.39    4.55
  -2  -9  13    2.64    4.33
   1   9 -13    4.81    3.69
   1   9 -13    2.66    5.31
   1   9 -13   -0.22    3.59
  -1  -9  13    3.01    4.17
   0   9 -13   31.47    6.01
   0   9 -13   27.31    6.98
   0   9 -13   27.74    4.88
   0  -9  13   28.05    5.45
  -1   9 -13    8.57    6.26
  -1   9 -13    1.62    3.60
   1  -9  13    0.28    4.11
  -2   9 -13    7.46    4.13
  -2   9 -13   -2.25    4.20
  -2   9 -13    7.01    4.26
   2  -9  13    8.22    4.67
  -3   9 -13   -3.00    4.09
  -3   9 -13    4.73    4.43
   3  -9  13    2.78    3.59
  -4   9 -13   10.26    6.66
  -4   9 -13    1.57    4.76
   4  -9  13    8.94    5.43
   4   8 -13    8.52    3.87
   4   8 -13    6.48    5.12
  -4  -8  13   10.45    4.84
   3   8 -13   11.45    4.47
   3   8 -13   10.39    5.07
  -3  -8  13    0.32    4.07
   2   8 -13    6.08    4.79
   2   8 -13   -5.53    4.18
  -2  -8  13    6.49    3.94
   1   8 -13   25.09    6.07
   1   8 -13   19.10    5.14
   1   8 -13   18.37    4.37
  -1  -8  13   17.86    4.57
   0   8 -13   13.96    5.01
   0   8 -13   13.59    4.69
   0   8 -13   25.84    4.25
   0  -8  13   17.44    4.38
  -1   8 -13    7.13    4.72
  -1   8 -13    6.75    5.70
   1  -8  13    9.39    4.05
  -2   8 -13   24.75    5.50
  -2   8 -13   32.77    5.06
   2  -8  13   18.04    5.00
  -3   8 -13    2.30    5.56
  -3   8 -13    3.58    4.16
   3  -8  13    4.37    4.61
  -4   8 -13  -10.07    3.26
  -4   8 -13    8.89    5.98
  -4   8 -13   -4.06    4.12
   4  -8  13    3.75    5.27
   4   7 -13    3.13    4.22
   4   7 -13   -1.59    3.01
  -4  -7  13   -2.66    4.36
   3   7 -13    3.13    4.20
   3   7 -13   -2.42    4.23
  -3  -7  13    4.27    3.81
   2   7 -13   -1.97    3.08
   2   7 -13    9.27    4.54
   2   7 -13    1.77    3.91
  -2  -7  13    2.40    3.36
   1   7 -13    0.89    3.04
   1   7 -13    2.18    4.86
   1   7 -13    0.25    3.07
  -1  -7  13    2.66    3.33
   0   7 -13   29.19    5.33
   0   7 -13   28.76    6.45
   0   7 -13   22.75    4.18
   0  -7  13   27.96    4.53
  -1   7 -13    5.62    3.46
  -1   7 -13   10.26    4.31
  -1   7 -13    7.30    3.35
   1  -7  13    3.96    3.44
  -2   7 -13   10.51    4.14
  -2   7 -13    6.58    2.26
  -2   7 -13   12.25    5.73
   2  -7  13   10.73    4.12
  -3   7 -13    4.75    5.62
  -3   7 -13    9.41    4.05
  -3   7 -13    4.10    2.84
   3  -7  13    4.95    4.24
  -4   7 -13    7.54    5.55
  -4   7 -13   -2.21    3.80
  -4   7 -13    1.31    4.28
   4  -7  13   -5.24    4.48
  -5   7 -13    0.69    5.11
  -5   7 -13    1.19    3.59
  -5   7 -13   10.15    5.75
   5  -7  13   11.09    4.72
   5   6 -13   12.42    4.73
  -5  -6  13    9.13    4.55
   4   6 -13    7.95    3.43
   4   6 -13    1.15    3.93
  -4  -6  13    6.22    4.13
   3   6 -13   29.38    5.44
   3   6 -13   27.06    5.13
  -3  -6  13   42.21    5.36
   2   6 -13    1.94    4.20
   2   6 -13    4.70    2.79
   2   6 -13   -0.69    3.67
  -2  -6  13    6.17    3.54
   1   6 -13   17.26    4.38
   1   6 -13   21.28    3.36
   1   6 -13   22.22    4.83
  -1  -6  13   22.75    4.18
  -1  -6  13   18.03    4.07
   0   6 -13   -3.82    3.78
   0   6 -13    2.08    3.90
   0  -6  13    6.78    3.32
   0  -6  13    5.10    3.32
  -1   6 -13    6.51    4.26
  -1   6 -13    1.64    1.86
  -1   6 -13    2.20    2.87
  -1   6 -13   -0.79    3.67
   1  -6  13   -2.25    3.04
   1  -6  13    0.41    3.12
  -2   6 -13   27.64    6.32
  -2   6 -13   31.15    4.65
  -2   6 -13   34.03    3.76
   2  -6  13   29.50    4.90
   2  -6  13   20.75    4.60
  -3   6 -13    0.65    3.05
  -3   6 -13  -10.19    4.77
  -3   6 -13    0.41    3.54
   3  -6  13   -1.21    3.98
  -4   6 -13    3.98    4.18
  -4   6 -13    9.39    5.48
  -4   6 -13   13.73    4.54
   4  -6  13   13.37    5.22
  -5   6 -13   -2.37    4.50
  -5   6 -13   -0.26    3.37
  -5   6 -13   -8.90    4.57
   5  -6  13   -5.87    5.06
   5   5 -13   14.78    4.56
  -5  -5  13    4.30    3.94
   4   5 -13    5.02    3.49
   4   5 -13   -3.80    3.32
  -4  -5  13   -2.66    3.44
   3   5 -13   23.85    3.85
   3   5 -13   21.00    4.94
   3   5 -13   23.07    4.71
  -3  -5  13   25.21    4.26
   2   5 -13   16.41    4.82
   2   5 -13   17.19    2.99
   2   5 -13   16.23    3.96
  -2  -5  13   19.14    3.69
  -2  -5  13   17.86    3.54
   1   5 -13    2.81    2.28
   1   5 -13   -7.17    4.64
   1   5 -13    5.78    3.63
  -1  -5  13    0.93    2.84
  -1  -5  13    0.07    2.79
   0   5 -13   59.54    7.98
   0   5 -13   53.55    6.28
   0   5 -13   60.18    4.92
   0   5 -13   59.47    5.47
   0  -5  13   64.99    5.79
   0  -5  13   55.32    5.64
  -1   5 -13   -2.17    3.89
  -1   5 -13    2.74    2.36
  -1   5 -13   -2.79    2.64
   1  -5  13   -0.17    2.81
   1  -5  13    3.09    2.98
  -2   5 -13   -1.01    2.75
  -2   5 -13    0.08    4.93
  -2   5 -13    2.32    2.80
   2  -5  13    2.15    3.34
   2  -5  13    1.05    3.25
  -3   5 -13    1.70    3.23
  -3   5 -13    5.85    3.99
  -3   5 -13    5.15    3.56
   3  -5  13    5.22    4.02
  -4   5 -13   11.64    5.30
  -4   5 -13    4.36    4.22
  -4   5 -13   15.55    4.58
   4  -5  13   19.97    5.30
  -5   5 -13   18.13    5.12
  -5   5 -13   13.62    5.20
  -5   5 -13   14.15    5.58
   5  -5  13   27.57    6.34
   5   4 -13   -1.01    3.66
  -5  -4  13   -0.33    3.80
   4   4 -13    5.40    3.55
   4   4 -13   -0.19    3.34
  -4  -4  13    2.20    3.37
   3   4 -13   11.10    3.89
   3   4 -13   11.78    3.55
  -3  -4  13    9.32    3.09
   2   4 -13    2.55    3.04
   2   4 -13    1.43    4.11
  -2  -4  13    3.67    2.51
  -2  -4  13    6.58    2.72
   1   4 -13    0.63    3.49
   1   4 -13    5.08    1.82
   1   4 -13    4.39    2.79
   1   4 -13   -0.68    3.01
  -1  -4  13    5.04    2.46
  -1  -4  13    0.06    2.39
   0   4 -13    4.08    3.49
   0   4 -13   12.13    2.47
   0   4 -13   12.75    4.25
   0   4 -13   18.58    2.95
   0  -4  13   10.08    2.78
   0  -4  13   12.69    2.84
  -1   4 -13   -5.99    4.94
  -1   4 -13    0.40    2.35
  -1   4 -13    1.02    2.60
   1  -4  13    3.12    3.05
   1  -4  13   -2.90    2.77
  -2   4 -13   16.10    3.24
  -2   4 -13   12.79    5.26
  -2   4 -13   17.23    3.51
   2  -4  13    8.50    3.57
   2  -4  13   12.51    3.84
  -3   4 -13    3.68    3.33
  -3   4 -13   -4.00    3.56
  -3   4 -13   -7.76    4.36
   3  -4  13   -1.25    3.63
  -4   4 -13   39.66    5.81
  -4   4 -13   37.76    6.23
  -4   4 -13   31.89    4.72
   4  -4  13   34.27    5.29
  -5   4 -13    7.30    4.71
  -5   4 -13    3.55    5.01
  -5   4 -13    9.66    4.77
   5  -4  13   11.32    4.55
   5   3 -13    3.60    3.34
  -5  -3  13    3.60    3.48
   4   3 -13    1.21    2.94
   4   3 -13    0.20    3.33
  -4  -3  13    4.69    3.10
   3   3 -13   -1.67    2.77
   3   3 -13   -1.15    1.74
   3   3 -13    8.79    3.63
  -3  -3  13   -0.34    2.38
  -3  -3  13    6.46    2.65
   2   3 -13    4.95    4.02
   2   3 -13    3.20    2.95
   2   3 -13    0.26    1.02
  -2  -3  13    3.37    2.10
  -2  -3  13   -5.64    2.89
  -2  -3  13   -0.43    2.01
   1   3 -13   10.02    1.41
   1   3 -13    5.91    4.67
   1   3 -13   14.39    3.29
   1   3 -13   12.74    1.37
   1   3 -13   14.26    3.43
  -1  -3  13   10.97    2.40
  -1  -3  13   12.61    3.23
  -1  -3  13   11.30    2.33
   0   3 -13   38.60    4.42
   0   3 -13   39.96    6.62
   0   3 -13   48.10    3.94
   0  -3  13   41.03    4.05
   0  -3  13   42.14    4.71
   0  -3  13   43.75    4.20
  -1   3 -13   -0.13    3.06
  -1   3 -13   -8.12    4.50
  -1   3 -13   -2.96    2.10
   1  -3  13    0.75    2.65
   1  -3  13    2.77    2.63
  -2   3 -13   26.12    3.82
  -2   3 -13   33.04    5.28
  -2   3 -13   34.30    4.76
   2  -3  13   29.21    4.41
   2  -3  13   31.41    4.43
  -3   3 -13    0.18    2.99
  -3   3 -13    0.11    3.60
  -3   3 -13   -3.11    4.26
   3  -3  13    4.07    3.64
  -4   3 -13   71.66    7.28
  -4   3 -13   72.40    7.72
  -4   3 -13   55.80    7.62
   4  -3  13   68.37    7.69
  -5   3 -13    1.45    4.01
  -5   3 -13  -10.45    4.91
  -5   3 -13    2.59    4.37
   5  -3  13   -0.97    5.23
  -6  -2  13   14.33    4.64
   5   2 -13    2.17    2.83
  -5  -2  13   -1.96    3.14
   4   2 -13   -0.12    3.52
   4   2 -13    3.44    2.59
  -4  -2  13    0.61    2.57
   3   2 -13    7.99    2.71
   3   2 -13    6.17    1.26
   3   2 -13   14.01    4.25
  -3  -2  13    6.97    2.32
  -3  -2  13    6.94    2.24
   2   2 -13   16.38    3.82
   2   2 -13   14.65    2.94
   2   2 -13   16.84    4.39
  -2  -2  13   11.22    2.87
  -2  -2  13   14.69    2.08
  -2  -2  13   17.16    2.09
   1   2 -13    6.32    3.48
   1   2 -13   10.40    3.25
  -1  -2  13    8.67    2.78
  -1  -2  13   12.54    1.80
  -1  -2  13   11.98    1.72
   0   2 -13    7.45    1.29
   0   2 -13    9.31    3.14
   0   2 -13    7.57    3.76
   0   2 -13    7.47    1.32
   0  -2  13   10.91    2.86
   0  -2  13    7.97    2.07
   0  -2  13    8.16    2.08
  -1   2 -13   25.92    3.37
  -1   2 -13   27.55    3.26
  -1   2 -13   22.61    4.09
  -1   2 -13   24.05    5.58
   1  -2  13   26.96    3.47
   1  -2  13   27.90    3.52
  -2   2 -13   33.36    4.03
  -2   2 -13   31.65    4.70
  -2   2 -13   33.13    5.34
   2  -2  13   38.97    4.58
  -3   2 -13    3.62    4.41
  -3   2 -13   -4.29    3.77
  -3   2 -13    2.57    3.00
   3  -2  13   -0.35    3.51
   3  -2  13    0.88    3.19
  -4   2 -13   -0.27    4.61
  -4   2 -13    4.84    3.55
  -4   2 -13   -0.28    3.90
   4  -2  13    2.43    4.41
  -5   2 -13    1.62    5.07
  -5   2 -13    1.86    3.94
  -5   2 -13    5.40    4.39
   5  -2  13   -3.43    3.69
  -6  -1  13    4.45    4.04
   5   1 -13   -8.43    3.63
  -5  -1  13   -1.60    2.87
   4   1 -13   -0.71    2.09
   4   1 -13   -2.62    3.31
  -4  -1  13   -0.56    2.36
   3   1 -13   12.57    4.14
   3   1 -13   10.86    2.27
  -3  -1  13    9.04    2.19
  -3  -1  13   13.17    2.18
   2   1 -13   23.48    4.06
   2   1 -13   16.11    4.57
   2   1 -13   17.95    2.48
  -2  -1  13   14.57    1.17
  -2  -1  13   13.82    1.20
  -2  -1  13   12.22    2.48
   1   1 -13   36.88    4.72
   1   1 -13   33.77    5.77
  -1  -1  13   39.32    3.87
   0   1 -13   16.79    4.04
   0   1 -13   19.12    3.80
   0  -1  13   12.88    3.02
   0  -1  13   15.14    2.12
   0  -1  13   16.39    2.20
  -1   1 -13   52.40    5.72
  -1   1 -13   46.14    6.31
  -1   1 -13   64.98    5.01
   1  -1  13   54.46    5.62
   1  -1  13   56.37    5.25
  -2   1 -13    8.25    4.86
  -2   1 -13   10.84    2.70
  -2   1 -13   10.46    3.87
   2  -1  13   16.66    3.42
   2  -1  13   11.31    3.04
  -3   1 -13   18.12    3.73
  -3   1 -13   18.66    3.99
  -3   1 -13   12.20    4.65
   3  -1  13   15.24    4.11
   3  -1  13   23.94    4.47
  -4   1 -13    9.39    4.76
  -4   1 -13    8.20    5.12
  -4   1 -13    8.77    3.85
   4  -1  13    5.64    4.38
  -5   1 -13   -2.47    4.38
  -5   1 -13   -1.11    5.35
  -5   1 -13    3.85    4.21
   5  -1  13    0.25    4.96
  -6   0  13   -1.08    3.53
  -5   0  13    3.43    3.02
   4   0 -13   23.62    4.68
   4   0 -13   18.33    2.15
  -4   0  13   19.77    3.00
   3   0 -13   16.71    4.78
  -3   0  13   16.25    2.00
  -3   0  13   16.68    2.12
   2   0 -13   14.48    4.69
   2   0 -13    5.18    3.85
   1   0 -13    4.25    2.71
   1   0 -13    4.55    4.31
  -1   0  13    8.56    2.10
   0   0 -13    6.13    4.54
   0   0 -13    8.63    3.81
   0   0  13   13.22    1.97
   0   0  13   10.28    2.50
  -1   0 -13    2.98    3.58
  -1   0 -13    8.59    4.88
  -1   0 -13    2.63    1.97
   1   0  13    0.13    2.80
   1   0  13    3.73    2.51
   1   0  13    3.04    2.19
  -2   0 -13   10.31    3.81
  -2   0 -13   11.28    2.82
  -2   0 -13    0.66    4.07
   2   0  13   11.05    3.23
   2   0  13    7.68    3.19
  -3   0 -13   70.90    6.47
  -3   0 -13   62.80    7.51
  -3   0 -13   60.44    7.28
   3   0  13   59.53    6.87
  -4   0 -13    0.91    4.14
  -4   0 -13   -0.46    4.67
  -4   0 -13   -2.10    3.37
   4   0  13    1.54    3.05
  -5   0 -13    1.96    4.12
  -5   0 -13   -4.58    3.93
  -5   0 -13   -1.62    5.63
   5   0  13    5.79    5.22
  -6   1  13    0.76    3.52
  -5   1  13   11.79    3.20
   4  -1 -13    6.76    4.41
  -4   1  13    2.00    2.13
   3  -1 -13   14.97    4.86
  -3   1  13   10.77    1.68
  -3   1  13   10.41    1.68
   2  -1 -13   -2.32    2.88
   2  -1 -13    1.80    3.41
   1  -1 -13    1.53    3.40
   1  -1 -13    2.26    2.93
  -1   1  13    0.95    1.58
   0  -1 -13   45.73    5.95
   0  -1 -13   37.21    4.88
   0   1  13   41.71    3.67
   0   1  13   47.70    4.24
   0   1  13   39.61    3.79
  -1  -1 -13    2.00    3.54
  -1  -1 -13    1.93    3.08
  -1  -1 -13   -0.14    1.90
   1   1  13    3.03    2.56
   1   1  13   -3.64    2.08
  -2  -1 -13    9.57    2.54
  -2  -1 -13    4.88    3.27
  -2  -1 -13    6.41    4.86
   2   1  13    8.45    3.32
   2   1  13    1.16    2.69
  -3  -1 -13   25.00    4.11
  -3  -1 -13   20.15    5.70
  -3  -1 -13   21.06    5.30
   3   1  13   27.48    4.78
  -4  -1 -13   -1.70    4.55
  -4  -1 -13   -1.91    3.63
  -4  -1 -13    3.03    4.03
   4   1  13   -3.68    3.99
  -5  -1 -13   -9.68    4.43
  -5  -1 -13    3.67    5.98
  -5  -1 -13   -7.05    4.17
   5   1  13   -0.05    3.49
  -6   2  13   -4.40    3.21
  -5   2  13    0.99    2.65
  -4   2  13   19.15    2.89
   3  -2 -13   14.53    4.97
   3  -2 -13   12.38    3.71
  -3   2  13   13.29    1.88
  -3   2  13   12.23    1.88
   2  -2 -13   26.41    5.82
   2  -2 -13   19.50    4.05
   1  -2 -13    7.70    4.46
   1  -2 -13   18.86    5.67
  -1   2  13    6.19    0.96
  -1   2  13    6.53    0.93
  -1   2  13    7.04    1.56
   0  -2 -13   57.38    7.42
   0  -2 -13   52.58    3.76
   0  -2 -13   53.71    3.81
   0  -2 -13   58.03    5.96
   0   2  13   54.61    4.87
   0   2  13   58.52    4.88
   0   2  13   50.86    4.46
  -1  -2 -13   50.23    6.14
  -1  -2 -13   47.55    6.96
   1   2  13   45.04    4.50
   1   2  13   37.09    4.57
  -2  -2 -13   28.54    4.80
  -2  -2 -13   21.82    3.46
  -2  -2 -13   25.34    4.86
   2   2  13   25.67    4.44
   2   2  13   26.42    3.93
  -3  -2 -13   -0.78    4.99
  -3  -2 -13    3.70    4.73
  -3  -2 -13    5.32    3.16
   3   2  13    6.68    3.91
  -4  -2 -13    3.88    4.30
  -4  -2 -13   -0.91    4.35
  -4  -2 -13    0.69    3.67
   4   2  13   -0.53    4.22
  -5  -2 -13  -13.89    4.76
  -5  -2 -13   -9.36    5.75
   5   2  13   -3.89    4.83
  -6   3  13    2.92    3.76
  -5   3  13   -1.30    2.72
  -4   3  13    0.66    2.27
   3  -3 -13   -1.43    4.97
   3  -3 -13    1.25    3.29
  -3   3  13    4.91    1.79
  -3   3  13    3.19    1.79
   2  -3 -13   36.52    5.67
   2  -3 -13   26.68    6.43
  -2   3  13   26.83    2.56
  -2   3  13   29.24    2.56
   1  -3 -13    4.46    5.33
   1  -3 -13   -4.18    3.01
  -1   3  13   -0.96    1.31
  -1   3  13    4.70    1.72
  -1   3  13    0.66    1.44
   0  -3 -13    2.48    1.59
   0  -3 -13   -1.84    1.39
   0  -3 -13    0.54    3.82
   0  -3 -13   -0.52    4.03
   0   3  13    1.68    2.44
   0   3  13    3.29    2.00
  -1  -3 -13    0.15    2.13
  -1  -3 -13    1.96    3.25
  -1  -3 -13    8.76    5.37
   1   3  13    0.66    2.48
   1   3  13    5.51    3.06
  -2  -3 -13    3.37    2.57
  -2  -3 -13   -1.86    4.89
  -2  -3 -13    2.00    4.69
   2   3  13    1.24    3.63
  -3  -3 -13   -3.80    4.87
  -3  -3 -13    7.47    3.79
  -3  -3 -13   -2.28    4.81
   3   3  13    2.53    3.87
  -4  -3 -13    7.15    4.13
  -4  -3 -13    2.86    4.32
  -4  -3 -13   -5.27    5.40
   4   3  13    4.58    4.69
  -5   4  13   -2.03    2.86
  -4   4  13    7.41    2.70
   3  -4 -13    5.90    4.72
  -3   4  13    1.83    2.05
   2  -4 -13    0.65    4.34
  -2   4  13   -1.50    1.64
   1  -4 -13    1.32    0.95
   1  -4 -13    5.82    5.57
   1  -4 -13   -1.80    1.04
   1  -4 -13   -1.93    3.25
  -1   4  13    2.65    1.53
  -1   4  13   -1.04    1.87
  -1   4  13   -0.80    2.08
   0  -4 -13    5.74    4.50
   0  -4 -13    7.23    4.37
   0   4  13    9.35    3.01
   0   4  13    8.69    2.57
  -1  -4 -13    6.08    4.43
  -1  -4 -13    3.21    4.18
  -1  -4 -13    3.89    2.53
   1   4  13    6.14    3.40
   1   4  13   -0.05    2.94
  -2  -4 -13   10.13    3.02
  -2  -4 -13    8.39    5.80
  -2  -4 -13    2.98    4.68
   2   4  13    2.15    3.51
  -3  -4 -13   -3.39    4.75
  -3  -4 -13    4.70    3.31
  -3  -4 -13   -0.98    4.98
   3   4  13   -1.66    3.72
  -4  -4 -13   -3.82    5.59
   4   4  13   -0.43    4.45
  -5   5  13   -5.19    2.99
  -4   5  13    7.94    3.05
   3  -5 -13   -2.98    3.45
  -3   5  13   -0.19    2.28
   2  -5 -13    9.75    1.60
   2  -5 -13   13.91    4.83
   2  -5 -13    8.34    1.68
  -2   5  13   10.46    2.47
   1  -5 -13   20.70    2.55
   1  -5 -13   18.69    4.95
  -1   5  13   20.85    2.96
  -1   5  13   16.46    2.31
  -1   5  13   16.22    3.17
   0  -5 -13    9.60    2.75
   0  -5 -13    6.97    3.69
   0   5  13    4.24    3.01
  -1  -5 -13    1.38    2.53
  -1  -5 -13   -1.69    4.67
   1   5  13    2.31    3.60
  -2  -5 -13   19.59    3.72
  -2  -5 -13   18.44    5.69
   2   5  13   18.64    4.55
  -3  -5 -13   -2.39    5.23
   3   5  13   -0.41    3.97
  -4  -5 -13   -5.29    5.76
   4   5  13    2.90    5.02
  -5   6  13    4.94    3.55
  -4   6  13    3.66    3.01
   3  -6 -13   34.62    6.48
  -3   6  13   32.34    4.08
   2  -6 -13    0.96    4.86
  -2   6  13    4.13    2.57
   1  -6 -13   22.68    5.67
  -1   6  13   21.28    2.81
  -1   6  13   20.74    3.70
   0  -6 -13    3.19    2.60
   0  -6 -13    2.94    4.54
   0   6  13    1.95    3.30
   0   6  13   -3.54    2.90
  -1  -6 -13    2.08    4.72
   1   6  13    0.14    3.84
  -2  -6 -13   -3.18    4.78
   2   6  13    5.03    4.07
  -3  -6 -13    0.69    4.16
   3   6  13   -2.48    4.45
  -4   7  13    1.98    3.30
   3  -7 -13   32.80    6.57
   2  -7 -13   -0.20    3.61
  -2   7  13    2.15    2.92
   1  -7 -13   16.13    4.55
  -1   7  13   14.45    3.87
   0  -7 -13   50.03    6.94
   0   7  13   44.57    5.28
   0   7  13   52.37    6.23
  -1  -7 -13   -3.29    4.66
   1   7  13   -3.86    4.16
   1   7  13    0.65    4.16
  -2  -7 -13    9.33    4.47
   2   7  13   -2.67    3.89
  -3  -7 -13    6.12    5.69
   3   7  13   -7.12    4.59
  -4   8  13    5.81    3.72
   3  -8 -13   -3.77    5.10
   2  -8 -13   -1.19    4.78
  -2   8  13    8.27    3.64
   1  -8 -13    2.43    5.06
  -1   8  13   -7.76    3.47
   0  -8 -13    9.08    5.25
   0   8  13    4.40    3.87
   0   8  13    5.65    3.57
  -1  -8 -13   -6.15    4.85
   1   8  13   -2.64    4.29
   1   8  13    2.37    4.00
  -2  -8 -13   -0.42    5.08
   2   8  13   -4.12    5.00
   2   8  13   -1.13    4.50
   3  -9 -13   -2.82    4.21
  -3   9  13   -0.86    3.03
   2  -9 -13    0.41    5.20
  -2   9  13    3.86    3.46
   1  -9 -13    3.95    5.28
  -1   9  13   -2.96    4.08
   0  -9 -13    5.13    5.27
   0   9  13   -0.09    4.67
  -1  -9 -13    9.52    5.80
   1   9  13    4.56    4.63
   1   9  13   10.40    4.78
   1 -10 -13    3.95    5.22
  -1  10  13    4.33    4.44
   1  11 -14   14.87    6.82
   1  11 -14    4.25    5.71
  -1 -11  14    8.99    5.48
   0  11 -14   18.56    7.42
   0  11 -14   17.38    6.44
   0 -11  14   20.74    5.97
  -1  11 -14    0.37    4.29
  -1  11 -14    4.68    7.11
   1 -11  14    0.54    5.10
  -2  11 -14    3.97    6.16
  -2  11 -14    0.56    6.99
   2 -11  14   -1.18    5.17
   2  10 -14   11.78    5.77
   2  10 -14    4.76    5.51
  -2 -10  14    0.05    5.19
   1  10 -14    4.56    5.38
   1  10 -14   10.51    5.90
  -1 -10  14    2.39    5.02
   0  10 -14    7.17    6.25
   0  10 -14   -8.29    4.83
   0 -10  14   -4.22    4.36
  -1  10 -14    7.14    5.12
  -1  10 -14    5.23    5.43
   1 -10  14    1.26    4.25
  -2  10 -14   -0.01    4.21
  -2  10 -14    4.48    6.37
   2 -10  14    3.14    4.82
  -3  10 -14   14.51    7.17
   3 -10  14    1.65    5.07
   3   9 -14   20.48    5.88
   3   9 -14   11.94    5.79
  -3  -9  14   21.42    5.35
   2   9 -14   10.52    5.63
   2   9 -14   12.40    5.25
  -2  -9  14   21.04    5.13
   1   9 -14    0.97    5.20
   1   9 -14    0.77    4.71
  -1  -9  14   -1.29    3.97
   0   9 -14   11.71    6.12
   0   9 -14    5.34    3.84
   0  -9  14    9.32    4.33
  -1   9 -14    5.10    3.92
  -1   9 -14   10.54    4.65
   1  -9  14    0.68    4.01
  -2   9 -14    0.34    3.87
  -2   9 -14    1.62    5.92
   2  -9  14   -0.98    4.28
  -3   9 -14   -9.88    5.77
  -3   9 -14   -5.10    4.09
   3  -9  14    6.38    4.86
   3   8 -14    3.77    4.53
   3   8 -14   -4.02    4.35
  -3  -8  14    2.01    3.91
   2   8 -14    3.23    4.58
   2   8 -14    0.87    4.50
  -2  -8  14    1.84    3.78
   1   8 -14    1.14    4.36
   1   8 -14   -3.41    5.05
  -1  -8  14    4.89    4.14
   0   8 -14    1.66    4.47
   0   8 -14    3.08    3.13
   0   8 -14   -4.39    5.37
   0  -8  14    4.14    3.81
  -1   8 -14   -1.32    3.34
  -1   8 -14    8.11    5.78
  -1   8 -14    1.44    3.80
   1  -8  14    1.11    3.73
  -2   8 -14    6.49    4.00
  -2   8 -14    1.43    5.75
   2  -8  14    2.27    4.07
  -3   8 -14   -4.37    3.82
  -3   8 -14    6.67    6.00
   3  -8  14    6.06    4.83
  -4   8 -14   -3.97    5.82
  -4   8 -14    0.43    4.68
   4  -8  14    6.59    5.28
   4   7 -14    3.52    4.16
   4   7 -14    1.94    4.44
  -4  -7  14   10.32    4.29
   3   7 -14    4.42    4.36
   3   7 -14    8.11    4.83
  -3  -7  14    2.45    3.56
   2   7 -14    4.75    5.16
   2   7 -14    5.28    4.21
  -2  -7  14    9.95    3.60
   1   7 -14    3.19    2.64
   1   7 -14   -3.95    3.54
   1   7 -14   -8.54    4.00
  -1  -7  14    2.63    3.14
   0   7 -14    9.29    4.49
   0   7 -14    4.41    4.22
   0  -7  14    9.40    3.54
  -1   7 -14    2.69    3.37
  -1   7 -14   -4.44    5.17
  -1   7 -14   -0.31    3.33
   1  -7  14    4.02    3.46
  -2   7 -14   10.01    5.88
  -2   7 -14    1.49    3.42
   2  -7  14    5.33    3.91
  -3   7 -14    2.33    5.71
  -3   7 -14    3.28    3.90
  -3   7 -14    3.90    2.81
   3  -7  14   -2.72    4.03
  -4   7 -14   -8.79    2.96
  -4   7 -14    4.76    5.47
  -4   7 -14   -4.07    3.84
   4  -7  14   10.35    5.06
   4   6 -14    7.87    4.20
   4   6 -14    6.17    3.92
  -4  -6  14    4.09    4.06
   3   6 -14    1.44    3.83
   3   6 -14    7.92    4.65
  -3  -6  14    5.31    3.70
   2   6 -14    3.01    3.76
   2   6 -14   -2.54    4.59
  -2  -6  14    4.09    3.27
   1   6 -14    9.53    5.34
   1   6 -14   11.78    2.99
   1   6 -14   10.04    4.26
  -1  -6  14   12.76    3.59
   0   6 -14   -1.83    3.53
   0   6 -14    0.06    2.70
   0   6 -14   11.82    5.66
   0   6 -14   -1.97    1.85
   0  -6  14    4.78    3.34
  -1   6 -14    5.56    3.15
  -1   6 -14    6.30    2.19
  -1   6 -14    7.86    5.72
   1  -6  14    3.86    3.31
  -2   6 -14   26.49    4.15
  -2   6 -14   18.27    3.25
  -2   6 -14   23.12    5.43
   2  -6  14   17.47    4.39
  -3   6 -14   20.59    4.34
  -3   6 -14   11.07    5.64
  -3   6 -14   13.43    3.73
   3  -6  14   14.99    4.76
  -4   6 -14    1.11    5.19
  -4   6 -14    2.56    3.85
  -4   6 -14    0.28    4.00
   4  -6  14    0.98    4.43
  -5   6 -14   14.62    5.54
  -5   6 -14   17.57    5.97
   5  -6  14   20.19    6.34
   5   5 -14   11.00    4.07
  -5  -5  14    7.84    4.49
   4   5 -14    1.93    3.59
   4   5 -14    3.66    3.65
  -4  -5  14    2.17    3.54
   3   5 -14    0.12    3.37
   3   5 -14    1.91    3.88
  -3  -5  14    6.01    3.17
   2   5 -14   33.24    4.80
   2   5 -14   31.35    6.08
  -2  -5  14   34.00    4.28
   1   5 -14   20.53    4.02
   1   5 -14   17.14    5.56
  -1  -5  14   11.74    3.30
  -1  -5  14   13.50    3.21
   0   5 -14   23.79    3.19
   0   5 -14   26.15    3.43
   0   5 -14   24.70    5.20
   0   5 -14   23.41    4.52
   0  -5  14   25.83    3.77
   0  -5  14   22.94    3.51
  -1   5 -14    0.86    2.26
  -1   5 -14    8.19    5.53
  -1   5 -14    5.72    2.47
   1  -5  14    6.32    2.96
   1  -5  14    4.95    3.26
  -2   5 -14   11.39    3.27
  -2   5 -14    7.71    3.03
  -2   5 -14    6.93    4.33
   2  -5  14   -0.04    3.32
  -3   5 -14    5.26    3.38
  -3   5 -14   -1.97    3.26
  -3   5 -14    5.88    5.40
   3  -5  14    9.22    4.09
  -4   5 -14    3.87    4.10
  -4   5 -14   -3.83    3.88
  -4   5 -14    0.55    4.65
   4  -5  14    7.16    4.84
  -5   5 -14   -2.64    5.02
  -5   5 -14   -6.33    4.32
  -5   5 -14    3.56    4.83
   5  -5  14    1.14    5.36
   5   4 -14    2.39    3.25
  -5  -4  14   -4.20    3.69
   4   4 -14   29.47    4.51
   4   4 -14   24.19    4.86
  -4  -4  14   31.70    4.57
   3   4 -14    2.50    3.81
   3   4 -14    4.50    3.28
  -3  -4  14    0.33    2.61
   2   4 -14    3.37    1.76
   2   4 -14   12.09    3.70
   2   4 -14    5.63    1.68
   2   4 -14    4.86    3.48
  -2  -4  14    7.06    2.60
  -2  -4  14    6.85    2.60
   1   4 -14    1.56    1.58
   1   4 -14    1.02    1.55
   1   4 -14    3.92    3.14
   1   4 -14    6.11    4.97
   1   4 -14    7.63    2.95
  -1  -4  14    0.61    2.42
  -1  -4  14    3.49    2.48
   0   4 -14    5.24    5.29
   0   4 -14    1.34    2.34
   0  -4  14    1.34    2.44
   0  -4  14   -2.51    2.38
  -1   4 -14   -4.38    3.54
  -1   4 -14   -0.67    2.82
  -1   4 -14    0.27    2.24
   1  -4  14   -1.60    2.75
   1  -4  14   -1.95    2.99
  -2   4 -14   -4.37    5.03
  -2   4 -14    5.63    3.09
  -2   4 -14   -2.38    2.74
   2  -4  14    2.03    2.99
   2  -4  14    1.67    3.07
  -3   4 -14    4.41    3.21
  -3   4 -14    0.87    3.82
  -3   4 -14   -6.00    4.69
   3  -4  14    2.21    3.68
  -4   4 -14    2.01    4.66
  -4   4 -14    2.61    3.64
  -4   4 -14    0.12    4.21
   4  -4  14   -2.29    4.01
  -5   4 -14   -1.23    4.30
  -5   4 -14   -2.84    5.00
  -5   4 -14   -1.24    4.22
   5  -4  14   -2.01    5.06
  -5  -3  14    1.27    3.36
   4   3 -14    0.29    3.28
   4   3 -14   -2.48    2.71
  -4  -3  14   -0.19    2.81
   3   3 -14   25.41    3.89
   3   3 -14   28.67    4.86
   3   3 -14   23.01    2.31
  -3  -3  14   26.54    3.44
   2   3 -14   -0.81    4.01
   2   3 -14    5.10    2.68
  -2  -3  14   -1.79    2.73
  -2  -3  14   -0.34    1.85
  -2  -3  14    2.93    2.01
   1   3 -14   -1.85    3.01
   1   3 -14    0.96    3.51
   1   3 -14    5.29    3.14
  -1  -3  14    3.01    3.04
  -1  -3  14    2.55    2.04
  -1  -3  14    2.35    1.90
   0   3 -14    4.01    3.94
   0   3 -14    0.96    1.55
   0   3 -14   -3.05    2.89
   0   3 -14   -1.48    1.42
   0  -3  14    1.54    2.03
   0  -3  14    1.10    2.14
  -1   3 -14    2.24    2.96
  -1   3 -14    1.47    2.09
  -1   3 -14   -2.84    5.09
   1  -3  14    1.26    2.63
   1  -3  14    1.81    2.64
  -2   3 -14    2.47    3.39
  -2   3 -14    9.43    5.37
  -2   3 -14    9.54    2.79
   2  -3  14    8.08    3.17
   2  -3  14    9.69    3.07
  -3   3 -14   -0.07    2.85
  -3   3 -14   -4.02    4.48
  -3   3 -14   -1.79    3.40
   3  -3  14    2.93    3.51
  -4   3 -14   -2.80    3.15
  -4   3 -14    2.05    4.49
  -4   3 -14    0.93    3.39
   4  -3  14    4.37    4.44
  -5   3 -14   -3.65    3.96
  -5   3 -14   -8.78    5.10
  -5   3 -14   -0.66    4.55
   5  -3  14   -3.16    4.84
  -5  -2  14    5.66    3.30
   4   2 -14   -0.49    2.42
   4   2 -14   -1.21    3.40
  -4  -2  14    0.40    2.63
   3   2 -14   12.06    2.76
   3   2 -14    9.20    4.12
  -3  -2  14   14.09    2.36
  -3  -2  14   16.64    2.50
   2   2 -14    4.69    3.28
   2   2 -14   -1.28    4.09
   2   2 -14   -0.73    2.29
  -2  -2  14    2.90    1.35
  -2  -2  14    2.50    1.44
  -2  -2  14    2.01    2.55
   1   2 -14    9.90    3.84
   1   2 -14   11.34    3.38
  -1  -2  14    8.51    1.56
  -1  -2  14    8.16    1.48
  -1  -2  14    6.94    2.80
   0   2 -14    5.97    3.22
   0   2 -14    8.36    0.96
   0   2 -14    8.22    3.89
   0   2 -14    8.42    0.98
   0  -2  14    4.70    2.80
   0  -2  14    8.18    2.08
   0  -2  14    9.14    2.11
  -1   2 -14   40.48    6.63
  -1   2 -14   31.06    4.67
   1  -2  14   32.65    3.81
   1  -2  14   30.06    3.84
  -2   2 -14    1.62    2.33
  -2   2 -14   -1.56    3.46
  -2   2 -14   -5.63    4.44
   2  -2  14    2.39    3.21
  -3   2 -14   -1.86    3.19
  -3   2 -14    0.67    4.47
  -3   2 -14   -4.64    3.88
   3  -2  14   -5.17    3.37
  -4   2 -14   -8.10    3.98
  -4   2 -14    1.60    4.80
  -4   2 -14    6.84    3.56
   4  -2  14    2.41    4.39
  -5   2 -14    7.33    5.01
  -5   2 -14   -6.72    5.30
   5  -2  14   12.03    5.59
   5   1 -14   -4.92    4.03
  -5  -1  14    3.50    2.96
   4   1 -14   -2.94    3.62
   4   1 -14    3.30    1.93
  -4  -1  14    0.04    2.31
   3   1 -14   13.60    2.31
   3   1 -14   12.84    4.48
  -3  -1  14   13.89    1.96
  -3  -1  14   10.58    1.80
   2   1 -14    0.26    4.12
   2   1 -14    3.86    3.67
  -2  -1  14    7.01    2.32
   1   1 -14   -3.94    3.20
   1   1 -14   -1.50    3.30
  -1  -1  14    1.91    2.28
   0   1 -14   15.89    3.21
   0   1 -14    9.97    3.94
   0  -1  14   16.15    3.23
   0  -1  14   10.84    2.03
   0  -1  14   11.74    1.97
  -1   1 -14    0.35    3.39
  -1   1 -14    8.69    3.86
  -1   1 -14    8.12    2.27
   1  -1  14    5.75    2.57
  -2   1 -14   19.85    4.68
  -2   1 -14   23.43    5.72
  -2   1 -14   26.19    3.57
   2  -1  14   26.42    3.74
   2  -1  14   22.09    4.19
  -3   1 -14   19.05    5.41
  -3   1 -14   12.30    4.80
  -3   1 -14   20.48    3.84
   3  -1  14   22.73    4.51
  -4   1 -14    3.76    3.79
  -4   1 -14   -2.12    3.31
  -4   1 -14    0.27    4.19
   4  -1  14   -0.29    4.18
  -5   1 -14    3.03    5.93
  -5   1 -14   -0.62    4.19
   5  -1  14    5.12    5.15
  -5   0  14    2.33    2.77
   4   0 -14    9.59    4.47
  -4   0  14    7.59    2.35
   3   0 -14    6.73    4.43
  -3   0  14    4.80    1.10
  -3   0  14    3.77    1.04
   2   0 -14   -0.28    3.24
   2   0 -14    4.40    2.93
   1   0 -14   49.82    5.70
   1   0 -14   46.56    6.76
  -1   0  14   46.70    4.17
   0   0 -14   10.69    4.05
   0   0 -14    4.07    4.98
   0   0  14    4.71    2.35
   0   0  14    2.88    1.54
   0   0  14    4.16    1.60
  -1   0 -14   39.42    4.96
  -1   0 -14   35.91    3.58
  -1   0 -14   32.95    5.44
   1   0  14   42.18    4.20
   1   0  14   36.48    3.87
  -2   0 -14   12.87    5.30
  -2   0 -14   21.11    3.95
  -2   0 -14   25.08    3.40
   2   0  14   16.38    3.56
   2   0  14   20.76    3.74
  -3   0 -14   23.36    5.37
  -3   0 -14   21.38    3.92
   3   0  14   16.78    4.30
  -4   0 -14    7.23    5.39
  -4   0 -14    4.85    3.79
  -4   0 -14    6.57    4.52
   4   0  14    5.74    4.41
  -5   0 -14   -3.18    4.37
  -5   0 -14   -3.90    4.70
   5   0  14    5.88    5.18
  -5   1  14    4.22    2.74
   4  -1 -14   18.78    5.14
  -4   1  14   17.05    2.61
   3  -1 -14   -2.46    4.45
   3  -1 -14    2.53    4.13
  -3   1  14    1.32    0.54
  -3   1  14    0.94    0.63
   2  -1 -14   65.63    7.30
   2  -1 -14   74.06    8.41
   1  -1 -14   -0.53    5.07
   1  -1 -14   -2.52    3.78
  -1   1  14    0.35    1.67
   0  -1 -14   60.25    8.23
   0  -1 -14   73.72    6.94
   0   1  14   72.84    6.09
   0   1  14   72.39    5.40
   0   1  14   73.95    5.58
  -1  -1 -14   47.08    7.01
  -1  -1 -14   33.63    4.93
   1   1  14   37.04    4.25
   1   1  14   40.91    4.08
   1   1  14   38.78    4.68
  -2  -1 -14    2.53    4.28
  -2  -1 -14    1.52    2.54
  -2  -1 -14    1.36    3.66
   2   1  14    2.30    2.92
  -3  -1 -14    1.75    2.80
  -3  -1 -14   -4.35    4.41
  -3  -1 -14   -2.28    3.37
   3   1  14    1.07    3.55
  -4  -1 -14    5.40    4.68
  -4  -1 -14    1.13    3.61
  -4  -1 -14    0.55    5.59
   4   1  14   -0.18    4.09
  -5  -1 -14   -2.68    4.67
  -5  -1 -14   -5.61    4.76
   5   1  14   -2.81    4.88
  -5   2  14    3.99    2.74
  -4   2  14   20.56    2.76
   3  -2 -14   31.41    5.92
   3  -2 -14   40.23    6.72
  -3   2  14   41.37    3.01
  -3   2  14   39.59    2.98
   2  -2 -14   50.76    6.63
   2  -2 -14   56.52    7.66
   1  -2 -14  163.74   13.79
   1  -2 -14  160.41   12.06
  -1   2  14  150.92   10.10
   0  -2 -14   23.35    6.08
   0  -2 -14   14.22    4.65
   0   2  14   17.48    3.00
   0   2  14   11.74    2.24
   0   2  14   21.83    2.68
  -1  -2 -14    4.28    4.45
  -1  -2 -14   -0.23    5.13
   1   2  14    5.54    2.47
   1   2  14    4.78    2.81
  -2  -2 -14   -2.43    4.63
  -2  -2 -14    2.09    2.63
  -2  -2 -14    2.42    3.43
   2   2  14    2.24    3.06
  -3  -2 -14    2.56    3.39
  -3  -2 -14    3.70    5.02
  -3  -2 -14    0.61    4.88
   3   2  14    2.19    3.71
  -4  -2 -14   -7.37    4.49
  -4  -2 -14    2.00    5.67
   4   2  14   -3.59    4.13
  -5   3  14    1.69    2.79
  -4   3  14    8.66    2.30
   3  -3 -14   50.45    7.84
   3  -3 -14   40.41    6.78
  -3   3  14   53.72    4.14
  -3   3  14   52.45    4.11
   2  -3 -14   -0.14    5.22
   2  -3 -14   -1.16    3.12
  -2   3  14   -0.21    0.78
  -2   3  14    1.42    0.87
   1  -3 -14   39.10    6.00
   1  -3 -14   40.27    7.14
  -1   3  14   44.69    3.45
  -1   3  14   42.69    3.60
  -1   3  14   41.40    3.53
   0  -3 -14   12.48    1.70
   0  -3 -14    9.45    1.51
   0  -3 -14   12.33    4.46
   0  -3 -14   12.96    3.81
   0   3  14   13.21    2.37
   0   3  14    5.12    2.62
  -1  -3 -14    1.36    2.14
  -1  -3 -14    6.76    5.60
  -1  -3 -14    4.81    3.56
   1   3  14   -2.08    2.90
  -2  -3 -14    0.58    2.58
  -2  -3 -14   -0.66    5.25
  -2  -3 -14   -6.21    4.37
   2   3  14    2.05    3.25
  -3  -3 -14   -3.87    3.38
  -3  -3 -14   -6.88    4.97
  -3  -3 -14   -1.48    5.09
   3   3  14   -3.46    3.72
  -4  -3 -14    0.88    5.99
  -4  -3 -14   -4.77    5.17
   4   3  14   -4.59    4.35
  -5   4  14    2.59    2.97
  -4   4  14    6.01    2.46
   3  -4 -14    1.07    3.50
  -3   4  14    0.52    1.85
   2  -4 -14    4.19    4.62
   2  -4 -14    5.23    4.41
  -2   4  14    1.40    1.63
   1  -4 -14    7.25    4.70
   1  -4 -14    1.70    5.81
  -1   4  14    2.26    1.99
  -1   4  14   -0.41    1.52
  -1   4  14   -0.56    1.72
   0  -4 -14   18.78    2.51
   0  -4 -14   15.25    4.12
   0  -4 -14   12.95    5.10
   0   4  14   18.46    3.26
  -1  -4 -14   -4.71    4.30
  -1  -4 -14    3.19    2.41
  -1  -4 -14    0.47    5.56
   1   4  14   -1.03    3.07
  -2  -4 -14    8.89    6.09
  -2  -4 -14    6.36    5.03
   2   4  14    6.42    4.07
  -3  -4 -14    3.12    5.86
  -3  -4 -14   12.79    5.65
   3   4  14    1.80    4.04
  -4  -4 -14   12.86    6.31
   4   4  14    2.52    5.01
  -5   5  14    0.71    3.19
  -4   5  14    4.41    2.63
   3  -5 -14   -0.91    4.77
  -3   5  14    1.41    2.22
   2  -5 -14    0.42    4.67
   1  -5 -14   19.96    5.67
  -1   5  14   23.77    3.40
   0  -5 -14   15.72    5.36
   0   5  14   18.35    3.63
  -1  -5 -14    2.62    4.60
   1   5  14    1.47    3.57
  -2  -5 -14    2.92    4.87
   2   5  14    6.36    3.94
  -3  -5 -14    7.93    5.61
   3   5  14   11.54    4.78
  -5   6  14   -5.93    3.19
  -4   6  14    4.01    2.97
   3  -6 -14    9.73    5.77
  -3   6  14    8.27    2.92
   2  -6 -14    6.72    5.18
  -2   6  14   10.85    2.71
   1  -6 -14   -1.85    3.29
  -1   6  14   -2.26    2.64
   0  -6 -14    0.19    4.65
   0   6  14   10.31    3.73
   0   6  14    7.89    3.27
  -1  -6 -14   -2.73    3.56
   1   6  14   -0.84    3.27
  -2  -6 -14    6.39    5.52
   2   6  14    2.42    4.48
  -3  -6 -14   -0.75    4.07
   3   6  14    9.55    4.87
  -4   7  14    0.47    3.19
   3  -7 -14   12.27    5.92
   2  -7 -14   24.37    5.15
  -2   7  14   22.42    3.87
   1  -7 -14   -1.96    4.81
  -1   7  14    3.46    3.26
   0  -7 -14   20.12    4.96
   0   7  14   29.54    4.69
   0   7  14   30.99    4.38
  -1  -7 -14    2.02    3.98
   1   7  14    1.82    4.22
   1   7  14   -9.30    3.42
  -2  -7 -14   -4.20    5.18
   2   7  14   -4.42    4.15
   3  -8 -14   -7.17    5.43
   2  -8 -14    3.79    5.39
  -2   8  14   12.21    3.62
   1  -8 -14    9.80    4.27
  -1   8  14    5.13    3.93
   0  -8 -14    3.31    5.33
   0   8  14   -0.53    4.10
  -1  -8 -14    4.78    3.96
   1   8  14    6.17    4.32
   1   8  14   -2.25    4.20
   2  -9 -14    1.37    5.56
  -2   9  14    4.31    3.75
   1  -9 -14   -5.79    5.05
  -1   9  14   -0.73    3.58
   0  -9 -14    0.52    5.49
   0   9  14    6.71    4.44
   1  10 -15   16.03    6.72
   1  10 -15    3.13    5.66
  -1 -10  15    7.66    4.79
   0  10 -15    6.03    5.26
   0  10 -15    7.35    5.23
   0 -10  15    2.46    4.51
  -1  10 -15    1.32    5.52
  -1  10 -15   -2.77    6.19
   1 -10  15   -2.92    4.28
  -2  10 -15   -2.78    4.54
   2 -10  15   -2.72    4.73
   2   9 -15   13.65    5.80
   2   9 -15   11.50    5.14
  -2  -9  15    5.09    4.85
   1   9 -15   16.10    6.37
   1   9 -15    6.77    5.12
  -1  -9  15   16.41    4.60
   0   9 -15    7.42    4.75
   0   9 -15   14.47    5.53
   0  -9  15    5.96    4.08
  -1   9 -15    9.28    4.15
  -1   9 -15    5.19    6.14
   1  -9  15   10.29    4.33
  -2   9 -15    0.32    4.72
   2  -9  15    1.11    4.42
  -3   9 -15   15.97    6.81
   3  -9  15    5.85    4.88
   3   8 -15    3.78    4.79
   3   8 -15    5.94    4.96
  -3  -8  15   -0.43    4.28
   2   8 -15    1.85    5.21
   2   8 -15    0.72    4.14
  -2  -8  15    2.53    3.66
   1   8 -15   -0.05    4.07
   1   8 -15    7.56    4.72
  -1  -8  15   -0.33    3.42
   0   8 -15    1.38    4.35
   0   8 -15    1.85    4.43
   0  -8  15    0.88    3.89
  -1   8 -15    2.79    3.61
  -1   8 -15    0.72    4.36
   1  -8  15    3.95    3.84
  -2   8 -15    2.08    6.02
   2  -8  15    6.78    4.06
  -3   8 -15    9.71    6.29
   3  -8  15    7.87    5.07
  -4   8 -15    0.07    6.49
   4  -8  15   10.60    5.64
   4   7 -15   13.74    5.12
   4   7 -15   19.27    5.15
  -4  -7  15   16.11    4.95
   3   7 -15   10.23    4.38
   3   7 -15    9.26    4.76
  -3  -7  15   -0.67    3.84
   2   7 -15    4.78    4.32
   2   7 -15    2.89    3.99
  -2  -7  15    7.61    3.88
   1   7 -15   -4.33    5.28
   1   7 -15    0.21    4.07
  -1  -7  15    4.21    3.55
   0   7 -15   10.68    4.52
   0   7 -15    5.64    5.89
   0  -7  15    5.36    3.30
  -1   7 -15   -2.22    3.18
  -1   7 -15   -2.14    5.58
   1  -7  15   -2.43    3.77
  -2   7 -15    8.56    6.05
  -2   7 -15   16.08    4.02
   2  -7  15    8.65    4.22
  -3   7 -15    8.57    3.35
  -3   7 -15    6.17    6.23
   3  -7  15    6.66    4.54
  -4   7 -15   -4.08    3.61
  -4   7 -15    3.15    6.10
   4  -7  15   -5.33    4.46
   4   6 -15    3.01    4.15
   4   6 -15    9.29    4.23
  -4  -6  15    9.36    4.10
   3   6 -15    6.11    4.44
   3   6 -15    8.13    3.98
  -3  -6  15    2.32    3.30
   2   6 -15   18.97    5.56
   2   6 -15    9.89    4.05
  -2  -6  15    5.30    3.26
   1   6 -15   20.40    6.08
   1   6 -15   14.71    4.51
  -1  -6  15   15.50    3.55
   0   6 -15    7.20    2.39
   0   6 -15   11.35    5.91
   0   6 -15   11.99    3.03
   0   6 -15    2.51    4.16
   0  -6  15    2.69    3.24
  -1   6 -15    0.66    2.91
  -1   6 -15    1.81    2.17
  -1   6 -15    3.48    4.27
   1  -6  15    4.94    3.49
  -2   6 -15    8.98    3.87
  -2   6 -15   15.80    3.10
  -2   6 -15    8.58    6.10
   2  -6  15   18.25    4.29
  -3   6 -15    6.30    3.53
  -3   6 -15   -0.71    5.77
  -3   6 -15    4.10    3.68
   3  -6  15   14.19    4.66
  -4   6 -15    7.99    5.65
  -4   6 -15   -0.69    4.19
   4  -6  15   -4.35    4.21
   4   5 -15   11.32    4.00
   4   5 -15    4.40    3.93
  -4  -5  15    5.65    3.67
   3   5 -15    4.54    4.34
   3   5 -15   10.00    3.61
  -3  -5  15   10.19    3.27
   2   5 -15    7.21    3.73
   2   5 -15    9.57    4.87
  -2  -5  15    7.38    2.82
   1   5 -15   -1.29    3.72
   1   5 -15   -1.37    4.94
  -1  -5  15   -3.81    2.63
   0   5 -15   30.21    5.03
   0   5 -15   25.53    3.69
   0   5 -15   29.39    6.68
   0   5 -15   31.90    3.68
   0  -5  15   29.98    4.15
  -1   5 -15    0.96    4.16
  -1   5 -15    4.16    2.63
  -1   5 -15    2.74    2.56
   1  -5  15    9.25    3.41
  -2   5 -15   -1.91    5.48
  -2   5 -15   -2.39    2.57
  -2   5 -15    4.26    3.04
   2  -5  15   -0.16    3.70
  -3   5 -15   21.90    4.24
  -3   5 -15   24.46    6.43
  -3   5 -15   23.96    4.39
   3  -5  15   12.91    4.34
  -4   5 -15    9.15    5.64
  -4   5 -15   11.22    4.44
   4  -5  15    8.62    4.94
  -5  -4  15    4.91    3.77
   4   4 -15   -2.01    3.22
   4   4 -15    4.83    3.61
  -4  -4  15    5.84    3.13
   3   4 -15    6.85    4.03
   3   4 -15    5.32    3.37
  -3  -4  15    6.45    2.83
   2   4 -15    5.39    4.72
   2   4 -15    7.84    3.27
   2   4 -15    4.56    1.22
  -2  -4  15   12.39    2.60
   1   4 -15   55.66    5.58
   1   4 -15   60.27    4.38
   1   4 -15   55.10    5.92
   1   4 -15   58.54    7.99
   1   4 -15   57.68    4.30
  -1  -4  15   56.60    5.27
   0   4 -15   17.93    6.53
   0   4 -15   36.40    4.14
   0  -4  15   28.59    3.76
   0  -4  15   33.04    3.80
  -1   4 -15   89.61    7.60
  -1   4 -15  103.63   10.73
   1  -4  15   96.16    8.04
  -2   4 -15    1.92    3.39
  -2   4 -15   -2.08    2.72
  -2   4 -15   -0.40    3.98
   2  -4  15   -5.52    2.76
  -3   4 -15   19.25    4.77
  -3   4 -15   26.80    4.36
  -3   4 -15   15.74    4.85
   3  -4  15   23.98    4.66
  -4   4 -15    2.65    5.00
  -4   4 -15    5.53    4.51
   4  -4  15    2.23    4.41
  -5   4 -15   18.25    6.11
  -5   4 -15    8.30    4.98
   5  -4  15    3.54    5.48
  -5  -3  15    5.51    3.40
   4   3 -15   -1.60    2.71
   4   3 -15    0.82    3.86
  -4  -3  15    3.28    2.75
   3   3 -15   -1.02    2.74
   3   3 -15   -5.42    3.70
  -3  -3  15    4.04    2.28
   2   3 -15    7.72    4.46
   2   3 -15    2.48    2.90
  -2  -3  15    4.37    2.71
  -2  -3  15    6.61    1.95
  -2  -3  15    3.60    1.95
   1   3 -15   14.16    4.31
   1   3 -15   21.45    3.61
  -1  -3  15   17.97    3.57
  -1  -3  15   15.34    2.41
  -1  -3  15   16.10    2.31
   0   3 -15   35.32    3.11
   0   3 -15   32.64    4.49
   0   3 -15   37.66    3.15
   0   3 -15   33.17    5.70
   0  -3  15   37.52    3.82
   0  -3  15   36.41    3.82
  -1   3 -15   25.85    4.13
  -1   3 -15   27.57    5.27
   1  -3  15   24.06    3.58
   1  -3  15   22.66    3.54
  -2   3 -15    0.79    3.34
  -2   3 -15    0.93    2.53
  -2   3 -15    5.23    5.29
   2  -3  15   -0.70    3.08
  -3   3 -15   10.25    4.24
  -3   3 -15    6.56    3.24
  -3   3 -15   12.14    5.47
   3  -3  15   10.28    4.37
  -4   3 -15    5.15    4.82
  -4   3 -15    1.84    4.79
   4  -3  15   -6.98    3.98
  -5   3 -15    8.40    5.47
  -5   3 -15    7.18    5.86
   5  -3  15    0.99    5.14
   5   2 -15    7.35    4.26
  -5  -2  15   11.83    3.53
   4   2 -15    3.54    2.81
   4   2 -15    8.78    4.35
  -4  -2  15    5.28    2.69
   3   2 -15   -0.08    3.86
   3   2 -15   -0.45    2.28
  -3  -2  15    3.90    1.78
   2   2 -15   20.31    4.16
   2   2 -15   19.27    5.23
   2   2 -15   22.39    3.22
  -2  -2  15   18.82    3.19
  -2  -2  15   19.50    1.78
  -2  -2  15   20.89    1.78
   1   2 -15   24.77    4.24
   1   2 -15   32.89    5.20
  -1  -2  15   29.25    2.38
  -1  -2  15   30.44    3.63
  -1  -2  15   25.39    2.51
   0   2 -15   84.03    8.33
   0   2 -15   74.13    6.82
   0  -2  15   70.38    6.46
   0  -2  15   72.39    5.73
   0  -2  15   69.68    5.66
  -1   2 -15    1.39    3.31
  -1   2 -15   -5.34    4.71
   1  -2  15    1.22    2.48
   1  -2  15    0.89    2.42
  -2   2 -15   -0.09    3.33
  -2   2 -15    0.82    2.46
  -2   2 -15    3.04    4.88
   2  -2  15   -0.59    2.69
  -3   2 -15    1.83    2.94
  -3   2 -15    5.99    4.13
  -3   2 -15    9.64    5.10
   3  -2  15   11.87    4.00
  -4   2 -15    3.59    4.52
  -4   2 -15    0.77    4.55
   4  -2  15   -2.20    4.22
  -5   2 -15   -1.77    4.94
  -5   2 -15   -1.24    5.72
   5  -2  15    3.42    5.28
   5   1 -15   33.34    5.83
  -5  -1  15   39.41    4.55
   4   1 -15   23.33    5.19
  -4  -1  15   25.82    3.26
   3   1 -15   -1.84    3.90
  -3  -1  15   -0.41    0.93
  -3  -1  15    1.00    0.96
   2   1 -15   13.27    4.92
   2   1 -15    6.04    3.90
  -2  -1  15    5.61    2.22
   1   1 -15    0.78    4.70
   1   1 -15    6.10    3.68
  -1  -1  15    9.65    2.54
   0   1 -15   43.32    6.42
   0   1 -15   47.91    5.74
   0  -1  15   50.45    4.13
   0  -1  15   43.74    4.01
   0  -1  15   53.87    5.11
  -1   1 -15    4.89    3.71
  -1   1 -15    5.16    5.31
   1  -1  15    5.44    2.57
   1  -1  15    5.21    2.32
  -2   1 -15    4.82    2.52
  -2   1 -15   -1.12    3.59
  -2   1 -15    6.95    4.93
   2  -1  15    8.08    3.38
  -3   1 -15    0.31    3.19
  -3   1 -15    3.63    4.39
  -3   1 -15    4.29    4.84
   3  -1  15    4.20    3.53
  -4   1 -15   -0.26    4.55
  -4   1 -15   -0.53    5.16
   4  -1  15   -0.81    4.25
  -5   1 -15    1.68    5.80
  -5   1 -15    6.28    5.40
   5  -1  15    2.17    4.86
   5   0 -15   -1.72    4.71
  -5   0  15   12.89    2.98
   4   0 -15   14.78    4.88
  -4   0  15   13.43    2.40
   3   0 -15    7.50    3.72
   2   0 -15    6.12    3.93
   2   0 -15    4.39    4.84
   1   0 -15    3.05    4.89
   1   0 -15    0.62    3.78
  -1   0  15   -1.90    1.87
   0   0 -15   31.10    5.34
   0   0 -15   33.71    4.70
   0   0  15   33.61    4.06
   0   0  15   33.29    3.10
   0   0  15   35.22    3.05
  -1   0 -15   37.32    5.33
  -1   0 -15   29.03    6.32
   1   0  15   32.36    4.05
   1   0  15   38.79    3.93
  -2   0 -15    3.01    4.15
  -2   0 -15    6.22    4.99
  -2   0 -15    1.43    2.39
   2   0  15   -2.84    3.08
  -3   0 -15    2.61    4.66
  -3   0 -15    0.94    4.88
  -3   0 -15    2.29    3.33
   3   0  15   -1.83    3.35
  -4   0 -15    5.55    4.96
  -4   0 -15    5.67    5.20
   4   0  15    1.70    4.46
  -5   1  15    3.69    2.44
   4  -1 -15    3.03    4.73
  -4   1  15    4.41    1.83
   3  -1 -15   -1.44    4.62
   3  -1 -15    1.33    4.43
   2  -1 -15   -2.56    4.88
   2  -1 -15    2.94    4.04
   1  -1 -15   27.36    6.39
   1  -1 -15   32.02    5.33
  -1   1  15   26.91    2.93
   0  -1 -15   71.61    7.76
   0  -1 -15   79.32    8.56
   0   1  15   84.64    6.48
   0   1  15   77.09    5.93
  -1  -1 -15    8.51    4.08
  -1  -1 -15   -6.58    4.93
   1   1  15    4.67    2.79
   1   1  15    7.60    2.47
  -2  -1 -15   48.23    4.63
  -2  -1 -15   34.97    6.90
  -2  -1 -15   28.33    5.83
   2   1  15   42.07    4.99
  -3  -1 -15    7.36    5.18
  -3  -1 -15    6.24    4.91
   3   1  15    5.17    3.79
  -4  -1 -15   -3.13    3.84
  -4  -1 -15   -3.16    4.77
   4   1  15    4.22    4.31
  -5   2  15    6.53    2.64
   4  -2 -15   -3.84    5.22
  -4   2  15    5.21    1.78
   3  -2 -15    9.91    5.72
   3  -2 -15   18.31    5.26
   2  -2 -15   -4.07    5.03
   2  -2 -15    7.34    4.50
   1  -2 -15    3.54    3.28
   1  -2 -15    4.48    5.39
  -1   2  15    6.27    1.67
   0  -2 -15   47.56    6.63
   0  -2 -15   53.44    6.53
   0   2  15   45.99    4.27
   0   2  15   50.68    4.67
   0   2  15   46.68    4.18
  -1  -2 -15   19.97    5.26
  -1  -2 -15   22.11    5.32
   1   2  15   27.84    3.78
  -2  -2 -15    7.31    5.54
  -2  -2 -15    0.92    4.46
   2   2  15   -2.18    2.90
  -3  -2 -15   15.49    5.94
  -3  -2 -15   27.60    5.25
   3   2  15   16.32    4.94
  -4  -2 -15    5.54    6.03
  -4  -2 -15  -14.35    4.76
   4   2  15    0.61    4.46
  -5   3  15    4.67    2.51
  -4   3  15   -2.21    1.65
   3  -3 -15   32.89    7.13
   3  -3 -15   42.45    6.52
  -3   3  15   31.64    2.34
   2  -3 -15    1.92    4.36
   2  -3 -15    3.12    4.28
   1  -3 -15   27.12    6.58
   1  -3 -15   24.67    5.47
  -1   3  15   23.05    2.16
  -1   3  15   20.48    2.06
   0  -3 -15   67.41    7.65
   0  -3 -15   64.65    7.85
   0   3  15   59.47    5.54
  -1  -3 -15    2.74    4.48
  -1  -3 -15   -0.01    4.08
   1   3  15    0.76    2.89
  -2  -3 -15    3.94    5.81
  -2  -3 -15   -3.12    3.34
   2   3  15   -0.80    3.12
  -3  -3 -15   -5.67    5.41
  -3  -3 -15   -2.48    3.83
   3   3  15    1.73    3.93
  -4  -3 -15   -8.79    5.47
  -4  -3 -15   -0.58    5.90
   4   3  15    0.16    4.50
  -5   4  15    2.35    2.77
  -4   4  15   -1.33    2.02
   3  -4 -15    6.01    3.96
  -3   4  15    3.54    1.63
   2  -4 -15   30.01    5.40
   2  -4 -15   47.36    7.94
  -2   4  15   39.60    3.37
   1  -4 -15    8.44    4.91
   1  -4 -15    2.84    6.49
  -1   4  15   15.06    2.31
   0  -4 -15    8.09    6.29
   0  -4 -15   24.35    5.49
   0   4  15   18.34    3.28
  -1  -4 -15   -5.87    5.84
  -1  -4 -15    4.22    4.81
   1   4  15   -0.26    3.09
  -2  -4 -15   -0.98    5.11
  -2  -4 -15   -2.66    5.96
   2   4  15   -0.07    3.87
  -3  -4 -15   -2.60    5.42
  -3  -4 -15  -12.23    5.83
   3   4  15   -0.49    4.07
  -4   5  15    0.39    2.35
   3  -5 -15  -12.77    4.55
  -3   5  15   -2.59    1.95
   2  -5 -15   15.43    5.63
   1  -5 -15   25.67    4.87
  -1   5  15   17.28    3.02
   0  -5 -15    6.15    3.64
   0   5  15    4.17    2.98
  -1  -5 -15    4.40    3.63
   1   5  15    4.85    3.52
  -2  -5 -15    3.52    5.15
   2   5  15   -0.64    4.22
  -3  -5 -15    5.13    5.76
   3   5  15    5.90    4.59
  -4   6  15   11.73    3.11
   3  -6 -15    5.39    5.43
  -3   6  15    2.54    2.57
   2  -6 -15    4.44    4.95
  -2   6  15    4.40    2.38
   1  -6 -15    8.91    4.23
  -1   6  15   11.33    3.18
   0  -6 -15    4.67    5.26
   0   6  15   -1.91    3.21
  -1  -6 -15    8.62    5.23
   1   6  15   10.03    4.41
  -2  -6 -15   -8.65    4.89
   2   6  15   -5.90    3.77
  -4   7  15    4.51    3.30
   3  -7 -15    1.31    5.66
  -3   7  15   -1.01    2.80
   2  -7 -15    5.18    4.05
  -2   7  15    1.76    2.80
   1  -7 -15   21.30    5.91
  -1   7  15   13.89    3.81
   0  -7 -15    4.15    5.53
   0   7  15    7.03    3.91
  -1  -7 -15   -1.59    5.29
   1   7  15    4.23    3.95
   1   7  15   -2.40    3.99
  -2  -7 -15   -5.00    5.34
   2   7  15    8.63    4.64
   3  -8 -15    1.12    6.00
   2  -8 -15    9.22    5.91
  -2   8  15    9.84    3.30
   1  -8 -15    5.25    4.51
  -1   8  15    8.50    3.76
   0  -8 -15   18.29    5.89
   0   8  15    6.83    4.52
  -1  -8 -15    7.05    5.95
   1   8  15    8.92    4.49
   0  10 -16    0.62    6.44
   0  10 -16   -0.64    3.96
   0 -10  16   -0.43    4.27
  -1  10 -16   18.53    6.03
  -1  10 -16    8.39    5.96
   1 -10  16    2.24    4.65
   2   9 -16    7.42    5.23
   2   9 -16   10.77    6.19
  -2  -9  16    3.72    4.04
   1   9 -16    4.79    5.84
   1   9 -16    3.76    5.05
  -1  -9  16    7.63    4.65
   0   9 -16   17.14    5.84
   0   9 -16   17.21    6.81
   0  -9  16   17.31    4.68
  -1   9 -16    4.66    5.42
  -1   9 -16   10.90    5.27
   1  -9  16    4.96    4.29
  -2   9 -16   -1.83    6.42
   2  -9  16    3.42    4.35
   3   8 -16    3.89    4.68
   3   8 -16   14.43    5.47
  -3  -8  16    8.95    4.60
   2   8 -16    9.23    4.93
   2   8 -16   -2.24    5.14
  -2  -8  16    2.11    3.62
   1   8 -16    7.75    6.15
   1   8 -16   -0.27    4.39
  -1  -8  16   -0.23    3.51
   0   8 -16    9.60    6.37
   0   8 -16   14.91    5.35
   0  -8  16    8.89    3.81
  -1   8 -16    7.80    6.31
   1  -8  16    1.28    3.75
  -2   8 -16    6.37    6.26
   2  -8  16    1.19    4.08
  -3   8 -16    3.32    6.63
   3  -8  16   -1.17    4.55
   3   7 -16    8.61    5.08
   3   7 -16   11.83    4.90
  -3  -7  16   11.93    4.15
   2   7 -16   -5.31    5.03
   2   7 -16   -3.13    4.02
  -2  -7  16    4.45    3.13
   1   7 -16    8.89    4.60
   1   7 -16   -0.54    5.39
  -1  -7  16    5.73    3.62
   0   7 -16    2.51    4.46
   0   7 -16    1.87    4.33
   0  -7  16   -2.65    3.33
  -1   7 -16    8.87    5.87
   1  -7  16   -0.35    3.40
  -2   7 -16    0.55    5.78
   2  -7  16   -2.04    3.73
  -3   7 -16    7.73    5.05
   3  -7  16    5.57    4.53
   4   6 -16    9.56    4.46
   4   6 -16    8.15    4.73
  -4  -6  16    5.49    3.90
   3   6 -16   -0.13    4.39
   3   6 -16    0.37    3.69
  -3  -6  16    0.84    3.29
   2   6 -16    6.40    4.01
   2   6 -16    9.48    5.26
  -2  -6  16   10.21    3.39
   1   6 -16   -1.76    3.57
   1   6 -16    3.80    5.74
  -1  -6  16    0.68    3.04
   0   6 -16    9.33    4.34
   0   6 -16    2.81    5.89
   0  -6  16   10.52    3.42
  -1   6 -16    2.54    6.25
  -1   6 -16    1.72    2.34
   1  -6  16    0.64    3.53
  -2   6 -16   -0.54    4.51
  -2   6 -16    5.34    2.85
   2  -6  16   -5.68    3.25
  -3   6 -16    5.71    4.66
  -3   6 -16    5.42    3.45
   3  -6  16    2.05    4.20
  -4   6 -16   20.57    7.04
  -4   6 -16   16.90    5.02
   4  -6  16   22.54    5.60
   4   5 -16    3.09    3.38
   4   5 -16    0.63    4.26
  -4  -5  16    2.01    3.26
   3   5 -16   -3.20    4.20
   3   5 -16    3.61    3.61
  -3  -5  16    0.94    2.87
   2   5 -16    3.84    3.52
   2   5 -16   -6.32    4.61
  -2  -5  16    2.64    2.78
   1   5 -16    1.58    5.47
   1   5 -16   10.43    4.06
  -1  -5  16    6.55    2.80
   0   5 -16    4.06    2.70
   0   5 -16    5.84    5.98
   0  -5  16    6.94    3.05
  -1   5 -16   36.26    7.33
  -1   5 -16   29.84    4.06
   1  -5  16   32.90    4.68
  -2   5 -16    8.63    4.76
  -2   5 -16    5.63    3.29
   2  -5  16    6.29    3.46
  -3   5 -16    9.03    4.74
  -3   5 -16   12.02    4.05
   3  -5  16   15.50    4.40
  -4   5 -16    0.83    4.19
  -4   5 -16    2.33    5.81
   4  -5  16    7.78    4.85
   4   4 -16    3.10    3.83
   4   4 -16    9.95    3.49
  -4  -4  16    2.61    3.03
   3   4 -16    6.02    3.24
   3   4 -16   -0.12    4.12
  -3  -4  16    1.59    2.49
   2   4 -16   -1.07    2.97
   2   4 -16   -1.58    4.67
  -2  -4  16    1.11    2.14
   1   4 -16    1.58    2.71
   1   4 -16    9.50    3.82
   1   4 -16    1.22    5.23
  -1  -4  16    4.40    2.20
   0   4 -16    6.54    2.07
   0   4 -16    6.82    2.96
   0   4 -16    9.79    4.60
   0  -4  16    4.61    2.57
  -1   4 -16   56.64    5.74
  -1   4 -16   53.64    8.20
   1  -4  16   57.14    5.65
  -2   4 -16   -8.00    3.63
  -2   4 -16    2.84    3.23
   2  -4  16   -2.52    3.26
  -3   4 -16   52.98    7.95
  -3   4 -16   39.05    5.70
   3  -4  16   51.31    6.51
  -4   4 -16    2.86    5.27
  -4   4 -16   -1.13    4.50
   4  -4  16    2.48    4.36
  -5  -3  16    5.81    3.42
   4   3 -16   24.80    5.27
  -4  -3  16   23.15    3.52
   3   3 -16   -7.54    3.89
   3   3 -16   -1.09    2.71
  -3  -3  16    2.52    2.12
   2   3 -16    2.11    4.50
   2   3 -16   -0.57    2.69
  -2  -3  16    0.81    1.56
   1   3 -16   -0.17    2.92
   1   3 -16    3.87    4.83
  -1  -3  16    2.82    1.77
  -1  -3  16    2.67    1.61
   0   3 -16   28.14    2.30
   0   3 -16   33.20    2.33
   0   3 -16   26.19    6.53
   0   3 -16   35.01    4.72
   0  -3  16   36.14    3.55
   0  -3  16   32.39    3.53
  -1   3 -16   12.02    4.69
  -1   3 -16   14.73    3.99
   1  -3  16    9.60    2.86
  -2   3 -16   22.15    6.29
  -2   3 -16   25.59    4.73
   2  -3  16   17.96    4.00
  -3   3 -16    6.28    5.54
  -3   3 -16    7.86    4.26
   3  -3  16    7.60    3.74
  -4   3 -16    4.39    5.01
  -4   3 -16   -1.14    5.00
   4  -3  16    4.31    4.46
   5   2 -16   -7.55    4.02
  -5  -2  16    4.83    2.99
   4   2 -16    7.66    4.39
   3   2 -16   -2.37    2.17
   3   2 -16   -1.64    3.86
  -3  -2  16    1.85    1.39
   2   2 -16    0.30    3.42
   2   2 -16   -1.59    4.55
   1   2 -16   25.87    4.42
   1   2 -16   29.58    6.17
  -1  -2  16   24.15    3.65
   0   2 -16   17.10    4.87
   0   2 -16   19.99    4.09
   0  -2  16   16.92    2.44
   0  -2  16   14.17    2.34
  -1   2 -16    6.53    3.91
  -1   2 -16    4.50    5.45
   1  -2  16    8.31    2.77
  -2   2 -16    7.55    5.33
  -2   2 -16   11.62    4.16
   2  -2  16   10.61    3.60
  -3   2 -16    7.66    4.51
  -3   2 -16   10.54    5.52
   3  -2  16   13.67    4.03
  -4   2 -16   10.29    5.67
  -4   2 -16   11.27    5.26
   4  -2  16   15.58    4.98
   5   1 -16   -4.94    3.94
  -5  -1  16    2.68    2.70
   4   1 -16   11.73    5.26
  -4  -1  16   15.83    2.32
   3   1 -16    0.08    4.55
   2   1 -16    1.51    3.71
   2   1 -16   -2.66    4.40
   1   1 -16   22.42    4.43
   1   1 -16   22.69    6.08
  -1  -1  16   28.90    3.50
   0   1 -16    3.56    3.72
   0   1 -16   -3.92    4.83
   0  -1  16   -1.28    2.40
   0  -1  16   -2.22    1.43
   0  -1  16    0.26    1.58
  -1   1 -16   46.83    7.17
  -1   1 -16   41.40    3.64
  -1   1 -16   43.94    5.67
   1  -1  16   40.02    4.31
  -2   1 -16   19.44    4.81
  -2   1 -16   16.56    4.70
   2  -1  16   15.16    3.70
  -3   1 -16    8.84    4.88
  -3   1 -16   -3.11    4.63
   3  -1  16   -4.52    3.11
  -4   1 -16   -1.82    3.82
  -4   1 -16   -6.06    4.50
   4  -1  16    2.02    4.25
   5   0 -16  -16.09    4.74
  -5   0  16   -0.73    2.41
   4   0 -16   14.58    5.07
   3   0 -16    7.27    4.91
   2   0 -16   -2.55    3.48
   2   0 -16    7.74    4.08
   1   0 -16   32.15    5.22
   1   0 -16   29.65    6.50
   0   0 -16   12.16    5.79
   0   0 -16   17.23    4.55
   0   0  16   15.17    1.94
   0   0  16   16.95    3.22
   0   0  16   17.88    2.15
  -1   0 -16    5.89    5.39
  -1   0 -16    5.88    3.95
  -1   0 -16    1.09    1.52
   1   0  16   -1.15    2.52
  -2   0 -16    1.45    5.05
  -2   0 -16    4.14    4.36
   2   0  16    2.16    3.28
  -3   0 -16    4.42    3.72
  -3   0 -16    3.08    3.96
   3   0  16    6.23    4.14
  -4   0 -16   -6.62    5.19
  -4   0 -16   -0.82    4.92
   4   0  16    2.93    4.46
   4  -1 -16    8.90    5.25
   3  -1 -16   12.86    4.90
   3  -1 -16   15.37    4.55
   2  -1 -16   -1.81    5.06
   2  -1 -16    0.49    4.13
   1  -1 -16   33.12    4.95
   1  -1 -16   36.63    5.97
   0  -1 -16   50.33    7.94
   0  -1 -16   49.84    6.60
   0   1  16   57.00    4.59
   0   1  16   58.01    5.54
  -1  -1 -16    9.23    5.71
  -1  -1 -16    3.21    4.23
   1   1  16    2.35    2.69
  -2  -1 -16    1.03    3.21
  -2  -1 -16    0.37    5.37
   2   1  16    4.07    3.42
  -3  -1 -16    4.13    4.93
  -3  -1 -16    4.95    5.15
   3   1  16    0.29    3.68
  -4  -1 -16   -6.34    5.04
  -4  -1 -16   -7.97    5.25
   4   1  16   -3.87    4.21
   4  -2 -16   -8.68    5.23
   3  -2 -16   16.86    5.15
   3  -2 -16    2.79    5.87
   2  -2 -16   13.69    6.11
   2  -2 -16   26.70    4.71
   1  -2 -16    0.85    4.47
   1  -2 -16   11.91    4.60
   0  -2 -16   25.04    6.43
   0  -2 -16   32.18    4.86
   0   2  16   24.77    3.02
  -1  -2 -16    1.94    4.18
  -1  -2 -16   11.46    4.80
   1   2  16    7.29    2.85
  -2  -2 -16    5.65    4.92
  -2  -2 -16    8.43    5.89
   2   2  16    6.24    3.54
  -3  -2 -16   14.81    5.56
  -3  -2 -16   12.09    5.85
   3   2  16    4.67    4.44
  -4  -2 -16    7.46    5.83
  -4  -2 -16    8.37    4.70
   4   2  16    8.92    4.87
   3  -3 -16   -3.92    4.78
   3  -3 -16   -6.57    5.52
   2  -3 -16   21.62    5.75
   2  -3 -16   24.09    5.81
   1  -3 -16   11.55    6.33
   1  -3 -16    4.17    3.69
  -1   3  16    4.60    0.84
   0  -3 -16    9.79    3.97
   0  -3 -16    7.67    4.74
   0   3  16   11.03    2.66
  -1  -3 -16    3.02    4.73
  -1  -3 -16   23.64    5.56
   1   3  16   21.92    3.76
  -2  -3 -16   -1.61    3.47
  -2  -3 -16   -3.76    5.67
   2   3  16    0.95    3.18
  -3  -3 -16   11.03    4.69
  -3  -3 -16    6.81    6.11
   3   3  16    4.56    4.59
   3  -4 -16   -0.77    3.79
   2  -4 -16   11.38    6.96
   2  -4 -16   12.24    4.26
  -2   4  16   11.94    1.32
   1  -4 -16   11.80    4.17
   1  -4 -16   12.40    6.74
  -1   4  16   11.89    2.06
   0  -4 -16    0.14    6.26
   0  -4 -16    8.45    5.28
   0   4  16    7.65    2.80
  -1  -4 -16   -7.18    5.94
  -1  -4 -16   -0.04    4.72
   1   4  16    4.42    3.21
  -2  -4 -16   -1.13    5.14
  -2  -4 -16    5.70    6.68
   2   4  16    7.34    4.13
  -3  -4 -16  -13.63    6.17
  -3  -4 -16   -3.94    4.09
   3   4  16   -1.96    4.00
   3  -5 -16   -5.27    5.09
  -3   5  16    1.69    1.84
   2  -5 -16    5.64    4.13
   1  -5 -16    1.58    4.74
  -1   5  16   -0.08    2.21
   0  -5 -16   -4.19    4.63
   0   5  16   -1.56    2.93
  -1  -5 -16    6.16    4.05
   1   5  16   -0.11    3.35
  -2  -5 -16    5.68    5.70
   2   5  16    8.27    4.49
   3   5  16   38.47    6.76
   3  -6 -16   -2.30    5.31
  -3   6  16    1.44    2.29
   2  -6 -16    4.28    4.11
   1  -6 -16    9.38    5.72
  -1   6  16    9.87    2.96
   0  -6 -16    6.17    5.11
   0   6  16   -6.72    3.02
  -1  -6 -16    9.74    5.35
   1   6  16    9.04    4.40
  -2  -6 -16    8.03    5.92
   2   6  16   10.26    4.53
   3  -7 -16   -0.71    5.71
  -3   7  16    0.50    2.77
   2  -7 -16   -5.67    3.63
  -2   7  16    6.63    2.73
   1  -7 -16    3.52    4.20
  -1   7  16    4.00    3.19
   0  -7 -16    6.58    4.36
   0   7  16   -1.69    3.58
  -1  -7 -16    2.08    5.43
   1   7  16   -0.55    4.41
   2  -8 -16   -6.03    5.69
   1  -8 -16    0.87    5.74
  -1   8  16    2.59    3.41
   0  -8 -16    1.98    5.65
   1   9 -17    6.10    5.36
   1   9 -17    4.57    6.56
  -1  -9  17    2.96    4.41
   0   9 -17    1.61    3.99
   0   9 -17    2.74    6.43
   0  -9  17   -0.81    3.80
  -1   9 -17   -2.36    6.44
   1  -9  17   -0.17    4.52
  -2   9 -17   -2.73    6.30
   2  -9  17   -7.96    3.97
   2   8 -17    3.48    5.96
   2   8 -17   -1.69    4.59
  -2  -8  17    4.81    3.97
   1   8 -17   -4.21    4.42
   1   8 -17   -0.21    6.01
  -1  -8  17   -2.91    3.19
   0   8 -17    2.01    4.81
   0   8 -17    5.08    4.98
   0  -8  17    3.07    3.49
  -1   8 -17   26.88    7.36
   1  -8  17   13.68    4.39
  -2   8 -17    2.87    4.97
   2  -8  17    1.79    4.18
   3   7 -17   -1.22    4.51
   3   7 -17    4.55    5.47
  -3  -7  17    8.21    4.02
   2   7 -17   14.07    6.25
   2   7 -17   20.73    5.45
  -2  -7  17   16.03    4.12
   1   7 -17   -4.03    5.69
   1   7 -17    1.46    4.49
  -1  -7  17    5.18    3.30
   0   7 -17   10.10    3.81
   0   7 -17   13.68    6.75
   0  -7  17    3.91    3.56
  -1   7 -17    5.02    6.40
   1  -7  17   -0.93    3.24
  -2   7 -17    0.42    6.53
   2  -7  17    0.56    3.86
  -3   7 -17   -7.52    6.19
   3  -7  17    5.51    4.60
   3   6 -17    2.62    4.10
   3   6 -17    7.72    5.27
  -3  -6  17   13.71    3.75
   2   6 -17    8.25    4.43
   2   6 -17    0.85    5.41
  -2  -6  17    6.46    3.00
   1   6 -17    4.94    4.48
   1   6 -17   -2.33    3.92
  -1  -6  17    1.03    3.05
   0   6 -17   21.24    5.84
   0  -6  17   23.21    3.96
  -1   6 -17    1.10    4.56
   1  -6  17   -3.27    3.32
  -2   6 -17   -0.92    2.64
  -2   6 -17    5.40    6.20
   2  -6  17   -1.99    3.83
  -3   6 -17   11.02    3.87
  -3   6 -17    4.08    6.16
   3  -6  17    5.64    4.28
   4   5 -17   -0.05    4.67
  -4  -5  17    0.97    3.15
   3   5 -17   -0.09    4.55
   3   5 -17    2.90    3.73
  -3  -5  17    4.38    2.92
   2   5 -17   -0.61    3.46
   2   5 -17   13.78    5.73
  -2  -5  17   -0.54    2.50
   1   5 -17   25.05    6.63
   1   5 -17   21.23    4.69
  -1  -5  17   21.19    3.43
   0   5 -17    2.30    2.67
   0   5 -17    3.05    4.36
   0  -5  17    5.22    2.75
  -1   5 -17    5.19    3.00
  -1   5 -17    1.77    5.76
   1  -5  17    1.01    3.18
  -2   5 -17    9.76    4.79
  -2   5 -17    5.40    3.28
   2  -5  17    3.59    3.71
  -3   5 -17   -6.62    5.29
  -3   5 -17    3.27    3.76
   3  -5  17    1.89    3.89
  -4   5 -17   10.59    4.89
  -4   5 -17   13.55    6.43
   4  -5  17    0.49    4.78
   4   4 -17    4.57    4.73
  -4  -4  17    4.36    2.97
   3   4 -17    6.41    4.74
   3   4 -17    8.05    3.52
  -3  -4  17    5.94    2.45
   2   4 -17   11.07    5.65
   2   4 -17    6.68    3.60
  -2  -4  17    7.35    2.22
   1   4 -17   -0.44    2.79
   1   4 -17    1.46    4.10
  -1  -4  17    4.77    2.13
   0   4 -17   37.91    6.72
   0   4 -17   47.37    5.02
   0  -4  17   39.41    4.27
  -1   4 -17    8.14    4.90
  -1   4 -17    3.88    2.97
   1  -4  17   -0.27    2.69
  -2   4 -17   11.30    6.03
  -2   4 -17    4.10    3.63
   2  -4  17    1.65    2.95
  -3   4 -17    3.16    3.95
  -3   4 -17    5.01    5.98
   3  -4  17    1.31    3.60
  -4   4 -17    3.60    5.17
  -4   4 -17  -12.49    4.79
   4  -4  17    5.31    4.50
   4   3 -17    0.74    4.23
  -4  -3  17    3.58    2.30
   3   3 -17   -0.84    2.55
   3   3 -17    0.08    4.35
  -3  -3  17    2.19    1.72
   2   3 -17    7.00    5.16
  -2  -3  17    5.59    1.25
   1   3 -17   43.16    5.21
   1   3 -17   39.71    7.29
  -1  -3  17   45.24    3.69
   0   3 -17   44.06    4.97
   0   3 -17   34.15    7.35
   0  -3  17   31.55    3.50
  -1   3 -17    4.72    3.80
  -1   3 -17    1.64    4.22
   1  -3  17    3.30    2.51
  -2   3 -17    0.76    5.76
  -2   3 -17    7.39    3.83
   2  -3  17    6.28    3.33
  -3   3 -17    6.40    4.11
  -3   3 -17    0.10    5.62
   3  -3  17    3.75    3.72
  -4   3 -17   20.77    6.39
  -4   3 -17   12.81    5.25
   4  -3  17    9.09    4.77
   4   2 -17    7.66    4.63
   3   2 -17   10.90    5.02
   2   2 -17   20.15    4.40
   2   2 -17   17.47    5.65
   1   2 -17   -0.81    3.31
   1   2 -17    6.73    5.40
   0   2 -17   12.29    3.96
   0   2 -17   11.03    4.77
   0  -2  17   20.55    2.53
  -1   2 -17   19.11    4.26
  -1   2 -17   16.22    6.23
   1  -2  17   17.98    3.09
  -2   2 -17   29.31    4.84
  -2   2 -17   27.55    5.88
   2  -2  17   20.24    4.08
  -3   2 -17   -1.06    3.85
  -3   2 -17   -2.96    5.06
   3  -2  17    3.14    4.04
  -4   2 -17    8.27    5.56
  -4   2 -17   -1.09    4.99
   4  -2  17   -0.72    4.17
   4   1 -17    3.49    4.55
   3   1 -17   -0.12    4.35
   2   1 -17    8.72    5.17
   2   1 -17    6.98    4.18
   1   1 -17   31.28    6.63
   1   1 -17   29.90    5.05
   0   1 -17    2.95    3.60
   0   1 -17   -2.88    5.24
   0  -1  17    0.05    1.55
  -1   1 -17    2.03    3.98
  -1   1 -17    1.52    5.52
   1  -1  17    7.95    2.70
  -2   1 -17   17.53    6.07
  -2   1 -17    7.97    4.40
   2  -1  17    7.95    3.54
  -3   1 -17    0.91    4.36
  -3   1 -17   -4.58    5.02
   3  -1  17   -0.35    3.33
  -4   1 -17    1.34    5.38
  -4   1 -17   -3.59    5.23
   4  -1  17    1.96    4.33
   4   0 -17   -4.72    4.66
   3   0 -17   17.58    5.70
   2   0 -17    1.77    5.17
   2   0 -17    6.07    4.20
   1   0 -17   -1.94    3.81
   1   0 -17    8.92    4.06
   0   0 -17   12.48    4.73
   0   0 -17    7.48    4.28
   0   0  17    8.39    1.50
   0   0  17    9.31    1.67
  -1   0 -17   -1.10    4.02
  -1   0 -17   -2.73    4.02
   1   0  17    3.32    2.57
  -2   0 -17    3.40    5.66
  -2   0 -17   -2.25    4.11
   2   0  17   -0.02    3.10
  -3   0 -17    5.22    5.03
  -3   0 -17    8.96    5.83
   3   0  17   13.51    4.58
  -4   0 -17    1.56    4.15
  -4   0 -17    3.38    5.65
   4   0  17    6.59    4.71
   4  -1 -17   -0.34    5.14
   3  -1 -17    4.07    4.56
   3  -1 -17    8.34    5.50
   2  -1 -17    4.82    4.44
   2  -1 -17    0.84    4.01
   1  -1 -17    7.77    4.70
   1  -1 -17    9.90    5.91
   0  -1 -17   14.85    4.90
   0  -1 -17   14.69    3.96
   0   1  17   13.83    2.00
  -1  -1 -17   13.48    6.07
  -1  -1 -17    4.67    4.45
   1   1  17    4.13    2.80
  -2  -1 -17    5.99    5.80
  -2  -1 -17    8.78    3.90
   2   1  17    1.68    3.37
  -3  -1 -17   10.29    4.16
  -3  -1 -17    3.61    5.81
   3   1  17    5.55    3.83
   4  -2 -17    4.55    6.28
   3  -2 -17   -1.75    5.71
   3  -2 -17    4.36    4.92
   2  -2 -17   13.89    4.21
   2  -2 -17   14.00    6.34
   1  -2 -17    1.64    4.56
   1  -2 -17    0.30    5.91
   0  -2 -17    3.77    4.52
   0  -2 -17    9.09    6.29
   0   2  17    5.67    1.95
  -1  -2 -17   32.46    7.36
  -1  -2 -17   15.34    5.29
   1   2  17   26.52    4.00
  -2  -2 -17    3.61    4.82
  -2  -2 -17   -1.97    4.18
   2   2  17    3.60    3.64
  -3  -2 -17    4.25    5.36
  -3  -2 -17  -11.23    5.18
   3   2  17    6.92    4.45
   3  -3 -17    6.03    5.33
   3  -3 -17    3.34    4.87
   2  -3 -17   -5.59    4.35
   2  -3 -17   -1.50    4.90
   1  -3 -17   14.86    5.26
   1  -3 -17   14.24    5.40
   0  -3 -17    7.42    5.89
   0  -3 -17   -4.57    3.43
   0   3  17    2.92    2.19
  -1  -3 -17    7.31    6.09
  -1  -3 -17   -3.88    4.62
   1   3  17    1.02    3.10
  -2  -3 -17    4.51    6.26
  -2  -3 -17    2.43    3.94
   2   3  17    2.90    3.34
  -3  -3 -17    1.58    4.13
  -3  -3 -17   -0.09    5.89
   3   3  17   -4.96    4.44
   3  -4 -17    5.20    4.28
   2  -4 -17   -4.43    6.65
   2  -4 -17   -0.80    4.87
   1  -4 -17   -7.24    6.54
   1  -4 -17    7.97    5.44
  -1   4  17    3.59    1.53
   0  -4 -17   -4.45    3.59
   0  -4 -17   -0.05    4.99
   0   4  17    2.12    2.60
  -1  -4 -17    4.08    3.92
  -1  -4 -17   -1.21    4.89
   1   4  17   -2.16    3.09
  -2  -4 -17    0.42    6.84
  -2  -4 -17    4.34    5.59
   2   4  17   -1.06    3.92
   3  -5 -17   -4.63    5.31
   2  -5 -17    3.72    4.14
   1  -5 -17   -0.50    5.07
  -1   5  17   -2.05    1.88
   0  -5 -17    6.11    5.30
   0   5  17   -3.74    2.80
  -1  -5 -17    1.96    5.56
   1   5  17    4.21    3.83
  -2  -5 -17    3.60    5.89
   2   5  17   -1.35    4.07
   3  -6 -17    1.72    5.83
   2  -6 -17    7.57    4.62
   1  -6 -17    1.39    4.06
  -1   6  17    0.49    2.54
   0  -6 -17    0.09    3.85
   0   6  17   -1.21    3.09
  -1  -6 -17    6.63    5.58
   1   6  17   -3.40    3.94
   2  -7 -17   -4.70    5.88
   1  -7 -17    6.24    5.87
  -1   7  17   -1.20    2.96
   0  -7 -17   -7.41    5.15
   0   7  17   -5.05    3.65
   1   8 -18    5.86    4.95
   1   8 -18    7.34    6.47
  -1  -8  18    9.56    3.65
   0   8 -18    7.58    6.93
   0   8 -18    6.71    5.36
   0  -8  18   12.74    3.93
  -1   8 -18    3.17    5.16
   1  -8  18    3.01    4.19
  -2   8 -18   -4.58    6.77
   2  -8  18   -0.57    4.09
   2   7 -18    3.47    4.34
   2   7 -18    3.78    4.62
  -2  -7  18    4.90    3.55
   1   7 -18   11.43    5.36
   1   7 -18   18.63    7.15
  -1  -7  18   12.49    3.75
   0   7 -18   -3.50    5.99
   0  -7  18    0.88    3.36
  -1   7 -18   34.33    8.09
   1  -7  18   37.66    5.52
  -2   7 -18   -3.47    4.89
   2  -7  18   -2.45    3.73
   3   6 -18    4.83    5.20
   3   6 -18    3.71    4.24
  -3  -6  18    1.67    3.13
   2   6 -18    7.12    6.06
   2   6 -18   12.03    4.60
  -2  -6  18   -0.22    2.96
   1   6 -18    3.91    4.25
   1   6 -18   -2.02    5.87
  -1  -6  18    6.58    3.07
   0   6 -18   17.47    7.08
   0  -6  18   21.97    3.87
  -1   6 -18    0.92    4.71
   1  -6  18    2.25    3.57
  -2   6 -18   17.35    7.20
   2  -6  18   12.66    4.43
  -3   6 -18   -0.33    3.46
  -3   6 -18   -1.85    6.67
   3  -6  18    5.20    4.17
   3   5 -18    4.76    5.20
   3   5 -18    6.04    3.79
  -3  -5  18    6.86    2.78
   2   5 -18   -2.70    3.70
   2   5 -18    4.72    5.64
  -2  -5  18    1.21    2.50
   1   5 -18    5.34    4.74
  -1  -5  18    2.98    2.57
   0   5 -18   26.70    7.08
   0   5 -18   19.71    3.50
   0  -5  18    8.16    3.13
  -1   5 -18    2.63    3.04
  -1   5 -18   -0.65    4.71
   1  -5  18    0.19    2.93
  -2   5 -18   16.97    4.01
  -2   5 -18   21.63    7.52
   2  -5  18   16.98    4.20
  -3   5 -18   -0.42    3.68
  -3   5 -18    7.11    6.72
   3  -5  18    2.02    3.86
   3   4 -18    3.26    5.07
   2   4 -18    0.38    3.32
   2   4 -18    5.87    5.60
  -2  -4  18   -1.03    1.75
   1   4 -18   -1.48    4.26
   1   4 -18    3.42    3.11
  -1  -4  18    1.43    1.95
   0   4 -18    0.72    2.78
   0   4 -18    3.53    6.13
   0  -4  18    1.75    2.32
  -1   4 -18   12.11    5.09
  -1   4 -18    8.07    3.38
   1  -4  18    4.67    2.90
  -2   4 -18    5.91    3.62
  -2   4 -18   -9.07    5.97
   2  -4  18    5.05    3.54
  -3   4 -18    9.37    4.50
  -3   4 -18    4.57    6.25
   3  -4  18   -1.07    3.57
   4   3 -18    6.89    5.22
   3   3 -18    8.47    4.84
   2   3 -18    2.72    5.27
   1   3 -18    0.72    3.60
   1   3 -18   -0.76    5.46
  -1  -3  18   -0.77    1.04
   0   3 -18   -1.75    5.68
   0   3 -18   -2.87    3.11
   0  -3  18   -0.88    1.88
  -1   3 -18   -0.64    3.79
  -1   3 -18   -5.89    5.50
   1  -3  18    2.04    2.63
  -2   3 -18   24.53    7.00
  -2   3 -18   25.26    4.77
   2  -3  18   22.83    4.25
  -3   3 -18    6.37    4.52
  -3   3 -18   -2.22    5.72
   3  -3  18    2.63    4.02
   4   2 -18    2.96    4.83
   3   2 -18    9.44    5.23
   2   2 -18    4.46    4.11
   2   2 -18   -1.41    3.42
   1   2 -18    1.32    3.87
   1   2 -18    5.16    5.85
   0   2 -18   18.82    4.35
   0   2 -18   13.46    6.31
   0  -2  18   11.43    2.10
  -1   2 -18   15.86    6.68
  -1   2 -18   10.78    4.11
   1  -2  18   12.44    3.00
  -2   2 -18   11.99    4.98
  -2   2 -18    6.54    4.15
   2  -2  18    0.09    3.14
  -3   2 -18    7.01    4.66
  -3   2 -18    9.79    4.94
   3  -2  18    5.77    4.03
   4   1 -18   -0.54    4.81
   3   1 -18    7.94    5.43
   2   1 -18   -0.39    4.22
   2   1 -18    1.24    5.39
   1   1 -18    5.14    4.03
   1   1 -18    1.66    4.10
   0   1 -18    9.89    5.87
   0   1 -18    1.54    3.93
   0  -1  18    6.80    1.52
  -1   1 -18    6.15    4.48
  -1   1 -18    0.65    4.02
   1  -1  18   -1.06    2.43
  -2   1 -18    4.34    5.93
  -2   1 -18    1.45    3.98
   2  -1  18    9.49    3.41
  -3   1 -18    1.13    4.81
  -3   1 -18   -0.83    5.58
   3  -1  18    0.79    3.52
   4   0 -18   -0.28    4.93
   3   0 -18   -0.01    3.87
   2   0 -18    1.10    4.15
   2   0 -18    5.15    3.54
   1   0 -18    6.55    4.36
   1   0 -18    3.51    5.83
   0   0 -18    8.24    5.85
   0   0 -18    6.14    4.24
   0   0  18    6.82    1.31
  -1   0 -18    4.18    6.05
  -1   0 -18    9.22    4.56
   1   0  18    5.17    2.65
  -2   0 -18    5.22    4.52
  -2   0 -18    1.23    3.31
   2   0  18    4.40    3.32
  -3   0 -18   -2.47    5.00
  -3   0 -18    6.89    6.00
   3   0  18   -3.09    3.83
   4  -1 -18   -3.97    5.39
   3  -1 -18    5.27    5.83
   3  -1 -18    0.15    4.41
   2  -1 -18    6.41    3.66
   2  -1 -18    6.10    5.87
   1  -1 -18   17.94    5.12
   1  -1 -18   13.79    5.28
   0  -1 -18   -5.97    5.80
   0  -1 -18    3.66    4.51
   0   1  18    1.59    1.28
  -1  -1 -18   10.48    6.33
  -1  -1 -18    6.31    4.49
   1   1  18    0.29    2.65
  -2  -1 -18    4.59    6.05
  -2  -1 -18    1.61    4.65
   2   1  18   -1.67    3.27
  -3  -1 -18    5.78    6.07
  -3  -1 -18    6.37    5.37
   3   1  18   -2.80    3.47
   4  -2 -18   -8.85    6.09
   3  -2 -18   -5.15    5.99
   3  -2 -18   -0.87    4.66
   2  -2 -18    5.85    6.04
   2  -2 -18   -4.61    4.66
   1  -2 -18    2.97    4.77
   1  -2 -18    4.38    6.27
   0  -2 -18    2.62    4.46
   0  -2 -18    6.53    5.01
   0   2  18    6.79    1.81
  -1  -2 -18    2.89    4.73
  -1  -2 -18    9.56    5.03
   1   2  18   15.68    3.33
  -2  -2 -18   -3.78    6.16
  -2  -2 -18    3.17    5.07
   2   2  18    1.98    3.57
  -3  -2 -18   -1.41    6.25
  -3  -2 -18    4.50    5.56
   3   2  18   -2.69    4.35
   3  -3 -18   14.60    5.84
   3  -3 -18    4.36    6.61
   2  -3 -18    7.22    5.47
   2  -3 -18   14.25    6.94
   1  -3 -18   17.68    4.49
   1  -3 -18   12.95    5.50
   0  -3 -18    0.62    4.97
   0  -3 -18   -7.71    6.36
   0   3  18   -2.51    1.90
  -1  -3 -18   -1.56    6.36
  -1  -3 -18    5.70    5.17
   1   3  18    8.29    3.27
  -2  -3 -18   -3.90    3.59
  -2  -3 -18    0.46    4.85
   2   3  18    3.23    3.78
   3  -4 -18    2.88    4.19
   2  -4 -18   -8.64    6.95
   2  -4 -18    7.89    5.51
   1  -4 -18    8.50    4.27
   1  -4 -18    8.80    7.42
   0  -4 -18    3.64    5.20
   0  -4 -18   12.29    5.66
   0   4  18    7.57    2.65
  -1  -4 -18   -1.42    5.38
  -1  -4 -18    4.01    4.22
   1   4  18   -1.99    3.20
  -2  -4 -18    6.64    7.70
  -2  -4 -18   10.03    6.04
   2   4  18    5.60    4.15
   3  -5 -18    9.99    6.21
   2  -5 -18   14.05    6.22
   1  -5 -18   -0.04    3.93
   0  -5 -18    4.26    4.11
   0   5  18    2.21    2.94
  -1  -5 -18    6.87    5.88
   1   5  18   10.55    3.89
   2  -6 -18   -0.77    5.93
   1  -6 -18   17.38    6.32
   0  -6 -18   -0.02    5.53
   0   6  18    9.28    3.56
   1   7 -19    9.35    6.85
   1   7 -19    1.08    4.61
  -1  -7  19    0.07    3.23
   0   7 -19   10.93    5.85
   0  -7  19   21.77    4.25
  -1   7 -19   -5.25    4.72
   1  -7  19    2.03    4.05
   2   6 -19   -3.52    4.20
   2   6 -19    3.09    5.94
  -2  -6  19    5.78    2.95
   1   6 -19    9.61    6.68
  -1  -6  19   -3.42    2.63
   0   6 -19    0.07    6.86
   0  -6  19    3.86    3.20
  -1   6 -19    3.78    6.94
   1  -6  19    1.06    3.32
  -2   6 -19   22.47    7.84
   2  -6  19   12.76    4.06
   3   5 -19    5.60    5.56
   2   5 -19   12.98    6.43
   2   5 -19    0.94    3.95
   1   5 -19   -0.97    5.97
  -1  -5  19    1.77    2.14
   0   5 -19   17.79    3.54
   0   5 -19   16.95    7.13
   0  -5  19   16.88    3.24
  -1   5 -19   -1.67    3.12
  -1   5 -19   -4.50    5.97
   1  -5  19   -1.79    2.96
  -2   5 -19   -2.56    6.59
  -2   5 -19    3.14    3.66
   2  -5  19    3.92    3.27
   3   4 -19    4.72    5.52
   2   4 -19    6.34    5.98
   1   4 -19   -0.31    3.24
   1   4 -19   -3.37    4.17
  -1  -4  19   -0.76    1.59
   0   4 -19   21.79    4.28
   0   4 -19   29.38    7.41
   0  -4  19   19.17    3.05
  -1   4 -19   14.46    3.74
  -1   4 -19    6.49    5.02
   1  -4  19    7.14    3.07
  -2   4 -19   -4.03    6.18
  -2   4 -19    1.46    4.02
   2  -4  19   11.13    3.69
  -3   4 -19   12.94    7.25
  -3   4 -19   13.05    4.66
   3  -4  19   12.83    4.68
   3   3 -19   -4.93    5.02
   2   3 -19   11.11    6.12
   1   3 -19   14.79    6.52
   1   3 -19   10.88    4.12
   0   3 -19    6.60    6.55
   0   3 -19    2.21    3.86
   0  -3  19    3.75    2.04
  -1   3 -19   14.88    4.55
  -1   3 -19   10.78    6.86
   1  -3  19   17.30    3.31
  -2   3 -19   -5.56    6.06
  -2   3 -19    0.54    4.22
   2  -3  19    1.11    3.29
  -3   3 -19    1.66    6.39
  -3   3 -19   -3.08    4.06
   3  -3  19   14.12    4.48
   3   2 -19   -1.40    4.85
   2   2 -19   -0.97    5.34
   2   2 -19   -2.06    3.73
   1   2 -19    2.66    5.99
   1   2 -19   -1.69    3.62
   0   2 -19   34.40    5.55
   0   2 -19   39.74    8.01
   0  -2  19   39.33    3.50
  -1   2 -19    3.07    6.09
  -1   2 -19    2.84    3.81
   1  -2  19   -1.06    2.48
  -2   2 -19    6.49    4.40
  -2   2 -19    8.08    4.94
   2  -2  19    1.78    3.19
  -3   2 -19    3.24    5.98
  -3   2 -19    2.00    4.59
   3  -2  19   -4.35    3.27
   3   1 -19    2.23    5.24
   2   1 -19   19.14    5.09
   2   1 -19    9.26    4.85
   1   1 -19   -9.30    5.48
   1   1 -19   -0.40    4.29
   0   1 -19    0.00    4.14
   0   1 -19    3.16    4.19
  -1   1 -19    3.40    4.35
  -1   1 -19    6.25    4.86
   1  -1  19    3.01    2.58
  -2   1 -19   -1.48    5.87
  -2   1 -19   -0.25    4.36
   2  -1  19   -2.77    3.21
  -3   1 -19   -2.64    4.67
  -3   1 -19   10.22    6.60
   3  -1  19    8.72    4.49
   3   0 -19   -3.00    5.44
   2   0 -19    8.55    4.86
   2   0 -19   10.11    6.26
   1   0 -19    5.49    3.52
   1   0 -19    4.33    4.75
   0   0 -19    4.41    4.35
   0   0 -19   -3.92    6.21
  -1   0 -19   10.89    4.79
  -1   0 -19    5.39    6.35
   1   0  19    3.04    2.64
  -2   0 -19   13.17    5.16
  -2   0 -19   13.07    6.77
   2   0  19   11.45    3.62
  -3   0 -19    0.08    6.37
  -3   0 -19    3.45    4.01
   3   0  19    0.69    3.83
   3  -1 -19   13.23    5.43
   3  -1 -19    9.09    6.34
   2  -1 -19    9.50    5.00
   2  -1 -19    4.04    6.14
   1  -1 -19    8.48    6.47
   1  -1 -19    9.19    4.98
   0  -1 -19    4.12    4.62
   0  -1 -19    4.45    4.78
  -1  -1 -19   -1.45    3.33
  -1  -1 -19    1.86    6.17
   1   1  19    0.68    2.70
  -2  -1 -19    5.65    6.44
  -2  -1 -19    3.71    5.01
   2   1  19    5.55    3.49
   3  -2 -19   -2.66    4.69
   3  -2 -19    3.09    5.40
   2  -2 -19    0.25    5.17
   2  -2 -19    2.28    4.90
   1  -2 -19    6.04    5.16
   1  -2 -19    8.03    5.21
   0  -2 -19    8.75    6.85
   0  -2 -19   17.23    5.51
  -1  -2 -19    5.87    4.75
  -1  -2 -19    0.90    6.39
   1   2  19    6.32    3.09
  -2  -2 -19    0.98    5.13
  -2  -2 -19   -4.12    6.36
   2   2  19   -3.90    3.58
   3  -3 -19   15.30    7.54
   3  -3 -19    0.66    5.73
   2  -3 -19   15.04    4.56
   2  -3 -19   17.22    7.65
   1  -3 -19    2.27    5.38
   1  -3 -19   -6.66    6.25
   0  -3 -19   13.93    5.59
   0  -3 -19    1.51    6.65
  -1  -3 -19    3.55    5.39
  -1  -3 -19   -9.40    6.58
   1   3  19    5.74    3.23
  -2  -3 -19    0.49    4.04
  -2  -3 -19    2.78    7.07
   2   3  19    7.91    4.11
   3  -4 -19   -2.76    4.54
   2  -4 -19    4.50    7.52
   2  -4 -19    8.49    5.80
   1  -4 -19    2.02    7.45
   1  -4 -19    4.34    5.45
   0  -4 -19    6.92    5.71
   0  -4 -19    6.44    5.64
  -1  -4 -19   -3.83    5.40
  -1  -4 -19   -5.48    7.19
   1   4  19    0.51    3.48
   2  -5 -19   16.11    6.70
   1  -5 -19    9.37    5.95
   0  -5 -19    2.38    5.68
   1   6 -20   -0.47    6.72
  -1  -6  20    2.80    2.65
   0   6 -20   17.77    7.53
   0  -6  20   15.57    3.62
  -1   6 -20   16.50    7.60
   1  -6  20   -2.42    3.20
   2   5 -20   -3.70    6.05
   1   5 -20    8.90    6.97
   0   5 -20    5.51    7.17
   0  -5  20    0.56    2.41
  -1   5 -20   -0.94    6.86
  -1   5 -20    4.80    3.48
   1  -5  20    0.56    3.06
  -2   5 -20    4.03    3.69
  -2   5 -20    0.93    6.88
   2  -5  20   -5.85    3.18
   2   4 -20   10.88    6.51
   1   4 -20   -2.40    5.99
   1   4 -20    0.20    3.58
   0   4 -20   -1.19    6.67
   0   4 -20    2.62    3.16
   0  -4  20   -0.69    2.21
  -1   4 -20   14.31    4.02
  -1   4 -20   30.14    7.81
   1  -4  20    8.08    3.09
  -2   4 -20   -0.97    3.66
  -2   4 -20   -3.75    6.85
   2  -4  20    0.58    3.28
   3   3 -20    3.39    5.77
   2   3 -20   -2.00    5.98
   1   3 -20   14.60    5.51
   1   3 -20    6.03    3.96
   0   3 -20   -2.74    6.31
   0   3 -20    7.93    3.86
  -1   3 -20   28.56    4.99
  -1   3 -20   28.49    7.53
   1  -3  20   22.82    3.63
  -2   3 -20    5.02    7.00
  -2   3 -20   -1.46    4.08
   2  -3  20   -3.48    2.97
   3   2 -20    6.36    5.96
   2   2 -20    4.39    4.29
   2   2 -20    4.98    6.02
   1   2 -20   21.69    7.06
   1   2 -20   21.18    4.77
   0   2 -20   -0.94    6.24
   0   2 -20    4.10    4.17
  -1   2 -20    7.76    4.28
  -1   2 -20    7.52    6.94
   1  -2  20    0.18    2.63
  -2   2 -20    3.52    4.39
  -2   2 -20    0.79    6.54
   2  -2  20    0.92    3.27
   3   1 -20   -1.86    5.92
   2   1 -20    2.22    4.53
   2   1 -20   15.58    6.50
   1   1 -20    3.66    4.39
   1   1 -20   -3.04    6.17
   0   1 -20   -2.89    6.35
   0   1 -20    6.66    4.60
  -1   1 -20    1.62    4.53
  -1   1 -20   11.91    6.90
   1  -1  20    1.55    2.63
  -2   1 -20    4.93    4.73
  -2   1 -20    3.75    5.30
   2  -1  20    9.78    3.53
   3   0 -20    3.84    6.05
   2   0 -20   -0.26    4.52
   2   0 -20    7.52    5.01
   1   0 -20    3.50    6.30
   1   0 -20    3.36    4.66
   0   0 -20    1.78    4.70
   0   0 -20   -3.36    4.52
  -1   0 -20    7.21    5.11
  -1   0 -20    1.08    4.45
   1   0  20   -2.77    2.50
  -2   0 -20    4.44    5.10
  -2   0 -20   -5.17    6.45
   2   0  20    2.72    3.51
   3  -1 -20   -0.50    5.10
   3  -1 -20   -5.87    4.44
   2  -1 -20    7.87    6.43
   2  -1 -20   -1.53    5.00
   1  -1 -20    0.13    4.83
   1  -1 -20    3.52    5.17
   0  -1 -20   -0.71    4.69
   0  -1 -20    0.60    6.78
  -1  -1 -20   -1.25    3.60
  -1  -1 -20   -1.47    6.60
   1   1  20    4.84    2.82
  -2  -1 -20   -0.10    5.12
  -2  -1 -20   -2.48    6.60
   2   1  20    6.53    3.79
   2  -2 -20   12.83    5.51
   2  -2 -20    6.28    7.02
   1  -2 -20   12.15    5.58
   1  -2 -20    5.17    6.83
   0  -2 -20    8.25    4.21
   0  -2 -20   10.91    7.08
  -1  -2 -20    3.17    4.01
  -1  -2 -20    0.23    6.99
   1   2  20   -3.24    2.89
   2  -3 -20    3.90    5.71
   2  -3 -20   -2.73    7.41
   1  -3 -20    1.74    4.08
   1  -3 -20  -10.21    7.01
   0  -3 -20   -0.65    3.87
   0  -3 -20   -3.09    5.30
  -1  -3 -20    5.22    5.51
   1   3  20   -3.74    2.88
   1  -4 -20    3.65    5.97
   1  -4 -20    7.96    4.82
   1   4 -21   -6.22    6.35
   1   4 -21    5.79    4.01
   0   4 -21    3.80    7.15
   0   4 -21    2.24    3.83
  -1   4 -21    5.04    7.12
  -1   4 -21   12.68    4.15
   1  -4  21    5.78    2.98
   2   3 -21    3.51    6.55
   1   3 -21    9.30    4.71
   1   3 -21    6.98    5.34
   0   3 -21    2.87    7.24
   0   3 -21   10.74    4.12
  -1   3 -21    1.23    6.92
  -1   3 -21    0.99    3.77
   1  -3  21    0.12    2.73
   2   2 -21    2.12    6.47
   2   2 -21    1.09    4.45
   1   2 -21    3.62    4.17
   1   2 -21   -1.60    4.66
   0   2 -21   -0.40    6.81
   0   2 -21    7.51    4.65
  -1   2 -21   -0.80    4.30
  -1   2 -21    6.76    7.10
   2   1 -21    3.35    5.14
   2   1 -21   -8.38    6.13
   1   1 -21    1.23    6.33
   1   1 -21    7.54    4.55
   0   1 -21    5.12    6.94
   0   1 -21    3.53    4.47
  -1   1 -21   -2.79    4.57
  -1   1 -21    0.48    6.90
   2   0 -21    2.83    6.90
   2   0 -21   12.82    5.52
   1   0 -21   -5.53    6.46
   1   0 -21    4.13    3.81
   0   0 -21    7.31    7.11
   0   0 -21    6.06    5.15
  -1   0 -21   -0.86    7.23
  -1   0 -21    7.72    5.10
   2  -1 -21    0.85    6.74
   2  -1 -21    9.18    5.43
   1  -1 -21   14.62    5.65
   1  -1 -21   14.13    7.59
   0  -1 -21    0.30    4.77
   0  -1 -21   -0.23    5.12
   1  -2 -21   15.34    7.83
   1  -2 -21   15.13    5.93
   0  -2 -21   -3.27    5.36
   0   0   0    0.00    0.00
;
_shelx_hkl_checksum              76964
#END Tags that were not found in dictionaries
loop_
_space_group_symop_operation_xyz
'x, y, z'
'-x, -y, -z'
loop_
_atom_site_type_symbol
_atom_site_label
_atom_site_fract_x
_atom_site_fract_y
_atom_site_fract_z
_atom_site_U_iso_or_equiv
_atom_site_adp_type
_atom_site_calc_flag
_atom_site_refinement_flags_adp
_atom_site_refinement_flags_posn
_atom_site_occupancy
B B1 0.3486(7) 0.3400(4) 0.1788(2) 0.0138(10) Uani d . . 1
C C1 0.2609(6) 0.4548(3) 0.21286(17) 0.0131(9) Uani d . . 1
C C2 0.0773(7) 0.6328(3) 0.23496(18) 0.0142(9) Uani d . . 1
C C3 0.1437(7) 0.5858(3) 0.31098(18) 0.0187(9) Uani d . . 1
H H3A 0.2169 0.6551 0.3493 0.022 Uiso calc U R 1
H H3B 0.0088 0.5434 0.3329 0.022 Uiso calc U R 1
C C4 0.0846(7) 0.5297(4) 0.09739(18) 0.0261(11) Uani d . . 1
H H4A 0.2186 0.5106 0.0707 0.039 Uiso calc U R 1
H H4B 0.0511 0.6118 0.087 0.039 Uiso calc U R 1
H H4C -0.0458 0.4672 0.0786 0.039 Uiso calc U R 1
C C5 -0.1720(6) 0.6477(4) 0.2275(2) 0.0206(10) Uani d . . 1
H H5A -0.2081 0.6763 0.1774 0.031 Uiso calc U R 1
H H5B -0.2046 0.7087 0.2694 0.031 Uiso calc U R 1
H H5C -0.2646 0.5678 0.231 0.031 Uiso calc U R 1
C C6 0.2290(7) 0.7528(3) 0.2246(2) 0.0216(10) Uani d . . 1
H H6A 0.3888 0.7418 0.2335 0.032 Uiso calc U R 1
H H6B 0.1939 0.82 0.2619 0.032 Uiso calc U R 1
H H6C 0.2018 0.7735 0.1718 0.032 Uiso calc U R 1
C C7 0.5113(6) 0.2841(3) 0.22842(18) 0.0130(9) Uani d . . 1
C C8 0.7189(7) 0.1473(3) 0.29020(18) 0.0166(9) Uani d . . 1
C C9 0.7958(7) 0.2800(3) 0.3235(2) 0.0196(10) Uani d . . 1
H H9A 0.8163 0.2876 0.3807 0.024 Uiso calc U R 1
H H9B 0.9406 0.3127 0.3029 0.024 Uiso calc U R 1
C C10 0.4897(7) 0.0698(3) 0.16243(19) 0.0206(10) Uani d . . 1
H H10A 0.325 0.0583 0.1669 0.031 Uiso calc U R 1
H H10B 0.5507 -0.0058 0.1734 0.031 Uiso calc U R 1
H H10C 0.5219 0.0873 0.1098 0.031 Uiso calc U R 1
C C11 0.9176(7) 0.0779(4) 0.2729(2) 0.0243(10) Uani d . . 1
H H11A 0.8606 -0.0059 0.2481 0.036 Uiso calc U R 1
H H11B 1.0062 0.0728 0.3214 0.036 Uiso calc U R 1
H H11C 1.0145 0.122 0.2381 0.036 Uiso calc U R 1
C C12 0.5544(7) 0.0812(4) 0.34109(19) 0.0226(10) Uani d . . 1
H H12A 0.4325 0.131 0.3522 0.034 Uiso calc U R 1
H H12B 0.6358 0.0699 0.3898 0.034 Uiso calc U R 1
H H12C 0.489 0 0.3141 0.034 Uiso calc U R 1
C C13 0.2676(7) 0.2773(3) 0.09364(18) 0.0141(9) Uani d . . 1
C C14 0.4180(7) 0.2709(3) 0.03485(19) 0.0187(9) Uani d . . 1
H H14 0.5705 0.3101 0.0456 0.022 Uiso calc U R 1
C C15 0.3525(7) 0.2093(4) -0.03884(19) 0.0220(10) Uani d . . 1
H H15 0.4591 0.2074 -0.0774 0.026 Uiso calc U R 1
C C16 0.1322(7) 0.1510(4) -0.05565(19) 0.0211(10) Uani d . . 1
H H16 0.0876 0.1069 -0.1054 0.025 Uiso calc U R 1
C C17 -0.0229(7) 0.1571(3) 0.00016(19) 0.0201(9) Uani d . . 1
H H17 -0.1755 0.1186 -0.0114 0.024 Uiso calc U R 1
C C18 0.0449(7) 0.2199(3) 0.07349(19) 0.0169(9) Uani d . . 1
H H18 -0.0642 0.2238 0.1112 0.02 Uiso calc U R 1
C C19 0.7520(11) 0.8161(4) 0.4682(2) 0.0440(15) Uani d . . 1
F F1 0.8454(6) 0.8433(2) 0.40239(13) 0.0675(10) Uani d . . 1
F F2 0.5312(6) 0.8245(3) 0.45993(15) 0.0624(9) Uani d . . 1
F F3 0.8465(6) 0.9005(2) 0.52499(14) 0.0688(10) Uani d . . 1
Li Li1 0.4749(12) 0.4462(6) 0.3748(3) 0.0229(16) Uani d . . 1
N N1 0.1293(6) 0.5288(3) 0.18061(15) 0.0178(8) Uani d . . 1
N N2 0.5958(5) 0.1732(3) 0.21776(14) 0.0141(7) Uani d . . 1
O O1 0.3011(4) 0.5003(2) 0.29095(11) 0.0151(6) Uani d . . 1
O O2 0.6137(4) 0.3452(2) 0.29866(12) 0.0151(6) Uani d . . 1
O O3 0.6739(5) 0.5839(2) 0.42286(13) 0.0259(7) Uani d . . 1
O O4 0.7036(5) 0.6508(2) 0.56120(12) 0.0262(7) Uani d . . 1
O O5 1.0425(5) 0.6650(3) 0.48933(14) 0.0467(9) Uani d . . 1
S S1 0.8006(2) 0.66072(10) 0.48759(5) 0.0261(3) Uani d . . 1
loop_
_atom_site_aniso_label
_atom_site_aniso_U_11
_atom_site_aniso_U_22
_atom_site_aniso_U_33
_atom_site_aniso_U_12
_atom_site_aniso_U_13
_atom_site_aniso_U_23
B1 0.010(3) 0.015(2) 0.017(2) 0.002(2) 0.0052(18) 0.0041(18)
C1 0.013(2) 0.017(2) 0.0088(18) -0.0040(18) 0.0008(15) 0.0028(16)
C2 0.017(2) 0.010(2) 0.0167(19) 0.0021(18) 0.0038(16) 0.0026(16)
C3 0.022(3) 0.018(2) 0.0165(19) 0.008(2) 0.0065(17) -0.0040(17)
C4 0.041(3) 0.022(2) 0.0168(19) 0.013(2) -0.0036(18) 0.0023(17)
C5 0.014(3) 0.022(2) 0.026(2) 0.0019(19) 0.0039(17) 0.0026(17)
C6 0.018(3) 0.018(2) 0.028(2) 0.000(2) -0.0004(18) 0.0036(18)
C7 0.010(2) 0.015(2) 0.0127(18) -0.0022(18) 0.0045(16) -0.0026(16)
C8 0.016(2) 0.017(2) 0.0176(19) 0.0056(19) -0.0034(16) 0.0026(16)
C9 0.017(3) 0.024(2) 0.0196(19) 0.009(2) -0.0024(17) 0.0047(18)
C10 0.020(3) 0.018(2) 0.024(2) 0.005(2) 0.0030(17) 0.0003(17)
C11 0.027(3) 0.026(2) 0.022(2) 0.010(2) 0.0014(18) 0.0044(18)
C12 0.026(3) 0.022(2) 0.021(2) 0.004(2) 0.0004(18) 0.0085(18)
C13 0.020(3) 0.012(2) 0.0109(17) 0.0035(18) 0.0046(16) 0.0032(15)
C14 0.011(2) 0.024(2) 0.021(2) 0.0017(19) 0.0011(16) 0.0027(17)
C15 0.023(3) 0.028(3) 0.017(2) 0.009(2) 0.0064(18) 0.0045(18)
C16 0.029(3) 0.019(2) 0.0138(19) 0.007(2) -0.0047(18) -0.0033(17)
C17 0.018(3) 0.017(2) 0.025(2) 0.0010(19) -0.0033(18) 0.0018(17)
C18 0.018(3) 0.017(2) 0.0156(19) 0.0015(19) 0.0025(16) 0.0018(16)
C19 0.088(5) 0.024(3) 0.017(2) -0.011(3) 0.017(3) 0.003(2)
F1 0.133(3) 0.0344(17) 0.0311(14) -0.0143(18) 0.0282(16) 0.0071(12)
F2 0.088(3) 0.047(2) 0.0570(18) 0.025(2) 0.0016(18) 0.0097(15)
F3 0.121(3) 0.0350(17) 0.0370(15) -0.0353(18) 0.0272(16) -0.0114(13)
Li1 0.027(5) 0.022(4) 0.019(3) 0.000(3) 0.004(3) 0.001(3)
N1 0.025(2) 0.0196(19) 0.0109(15) 0.0103(16) -0.0008(14) 0.0014(14)
N2 0.016(2) 0.0146(18) 0.0114(15) 0.0031(15) -0.0011(13) 0.0003(13)
O1 0.0182(17) 0.0170(15) 0.0108(12) 0.0063(13) 0.0013(11) 0.0000(11)
O2 0.0147(16) 0.0177(15) 0.0123(12) 0.0034(13) -0.0044(11) 0.0002(11)
O3 0.0273(19) 0.0247(17) 0.0204(13) -0.0073(14) -0.0060(12) -0.0034(12)
O4 0.0279(19) 0.0331(18) 0.0169(13) -0.0017(15) 0.0071(12) 0.0041(12)
O5 0.017(2) 0.089(3) 0.0272(16) -0.0102(18) 0.0038(13) -0.0047(16)
S1 0.0288(8) 0.0299(7) 0.0158(5) -0.0085(6) 0.0029(5) 0.0005(5)
loop_
_atom_type_symbol
_atom_type_description
_atom_type_scat_dispersion_real
_atom_type_scat_dispersion_imag
_atom_type_scat_source
C C 0.0033 0.0016 'International Tables Vol C Tables 4.2.6.8 and 6.1.1.4'
H H 0.0000 0.0000 'International Tables Vol C Tables 4.2.6.8 and 6.1.1.4'
B B 0.0013 0.0007 'International Tables Vol C Tables 4.2.6.8 and 6.1.1.4'
N N 0.0061 0.0033 'International Tables Vol C Tables 4.2.6.8 and 6.1.1.4'
O O 0.0106 0.0060 'International Tables Vol C Tables 4.2.6.8 and 6.1.1.4'
S S 0.1246 0.1234 'International Tables Vol C Tables 4.2.6.8 and 6.1.1.4'
F F 0.0171 0.0103 'International Tables Vol C Tables 4.2.6.8 and 6.1.1.4'
Li Li -0.0003 0.0001 'International Tables Vol C Tables 4.2.6.8 and 6.1.1.4'
loop_
_geom_angle_atom_site_label_1
_geom_angle_atom_site_label_2
_geom_angle_atom_site_label_3
_geom_angle_site_symmetry_1
_geom_angle_site_symmetry_3
_geom_angle
C7 B1 C1 . . 118.0(3)
C7 B1 C13 . . 120.6(3)
C1 B1 C13 . . 121.4(3)
N1 C1 O1 . . 106.8(3)
N1 C1 B1 . . 130.8(3)
O1 C1 B1 . . 122.4(3)
N1 C2 C5 . . 111.8(3)
N1 C2 C3 . . 99.0(3)
C5 C2 C3 . . 112.2(3)
N1 C2 C6 . . 110.8(3)
C5 C2 C6 . . 111.6(3)
C3 C2 C6 . . 110.8(3)
O1 C3 C2 . . 104.7(2)
O1 C3 H3A . . 110.8
C2 C3 H3A . . 110.8
O1 C3 H3B . . 110.8
C2 C3 H3B . . 110.8
H3A C3 H3B . . 108.9
N1 C4 H4A . . 109.5
N1 C4 H4B . . 109.5
H4A C4 H4B . . 109.5
N1 C4 H4C . . 109.5
H4A C4 H4C . . 109.5
H4B C4 H4C . . 109.5
C2 C5 H5A . . 109.5
C2 C5 H5B . . 109.5
H5A C5 H5B . . 109.5
C2 C5 H5C . . 109.5
H5A C5 H5C . . 109.5
H5B C5 H5C . . 109.5
C2 C6 H6A . . 109.5
C2 C6 H6B . . 109.5
H6A C6 H6B . . 109.5
C2 C6 H6C . . 109.5
H6A C6 H6C . . 109.5
H6B C6 H6C . . 109.5
N2 C7 O2 . . 106.2(3)
N2 C7 B1 . . 131.3(3)
O2 C7 B1 . . 122.5(3)
N2 C8 C9 . . 97.4(3)
N2 C8 C11 . . 111.9(3)
C9 C8 C11 . . 112.1(3)
N2 C8 C12 . . 110.5(3)
C9 C8 C12 . . 111.5(3)
C11 C8 C12 . . 112.6(3)
O2 C9 C8 . . 104.1(3)
O2 C9 H9A . . 110.9
C8 C9 H9A . . 110.9
O2 C9 H9B . . 110.9
C8 C9 H9B . . 110.9
H9A C9 H9B . . 109.0
N2 C10 H10A . . 109.5
N2 C10 H10B . . 109.5
H10A C10 H10B . . 109.5
N2 C10 H10C . . 109.5
H10A C10 H10C . . 109.5
H10B C10 H10C . . 109.5
C8 C11 H11A . . 109.5
C8 C11 H11B . . 109.5
H11A C11 H11B . . 109.5
C8 C11 H11C . . 109.5
H11A C11 H11C . . 109.5
H11B C11 H11C . . 109.5
C8 C12 H12A . . 109.5
C8 C12 H12B . . 109.5
H12A C12 H12B . . 109.5
C8 C12 H12C . . 109.5
H12A C12 H12C . . 109.5
H12B C12 H12C . . 109.5
C18 C13 C14 . . 115.8(3)
C18 C13 B1 . . 122.3(3)
C14 C13 B1 . . 121.8(3)
C15 C14 C13 . . 122.4(4)
C15 C14 H14 . . 118.8
C13 C14 H14 . . 118.8
C16 C15 C14 . . 119.8(3)
C16 C15 H15 . . 120.1
C14 C15 H15 . . 120.1
C17 C16 C15 . . 119.6(3)
C17 C16 H16 . . 120.2
C15 C16 H16 . . 120.2
C16 C17 C18 . . 119.8(4)
C16 C17 H17 . . 120.1
C18 C17 H17 . . 120.1
C17 C18 C13 . . 122.4(3)
C17 C18 H18 . . 118.8
C13 C18 H18 . . 118.8
F3 C19 F2 . . 108.5(4)
F3 C19 F1 . . 107.9(4)
F2 C19 F1 . . 108.2(4)
F3 C19 S1 . . 110.9(4)
F2 C19 S1 . . 111.4(3)
F1 C19 S1 . . 109.7(3)
O3 Li1 O4 . 2_666 117.8(3)
O3 Li1 O2 . . 113.2(4)
O4 Li1 O2 2_666 . 112.0(3)
O3 Li1 O1 . . 107.8(3)
O4 Li1 O1 2_666 . 113.8(4)
O2 Li1 O1 . . 88.4(2)
C1 N1 C4 . . 124.6(3)
C1 N1 C2 . . 114.0(3)
C4 N1 C2 . . 119.8(3)
C7 N2 C10 . . 122.8(3)
C7 N2 C8 . . 111.4(3)
C10 N2 C8 . . 119.2(3)
C1 O1 C3 . . 109.2(3)
C1 O1 Li1 . . 131.8(3)
C3 O1 Li1 . . 117.6(2)
C7 O2 C9 . . 108.6(3)
C7 O2 Li1 . . 126.8(3)
C9 O2 Li1 . . 119.3(3)
S1 O3 Li1 . . 155.1(2)
S1 O4 Li1 . 2_666 148.5(3)
O5 S1 O3 . . 115.60(17)
O5 S1 O4 . . 115.27(16)
O3 S1 O4 . . 114.74(16)
O5 S1 C19 . . 104.3(2)
O3 S1 C19 . . 102.1(2)
O4 S1 C19 . . 102.10(18)
loop_
_geom_bond_atom_site_label_1
_geom_bond_atom_site_label_2
_geom_bond_site_symmetry_2
_geom_bond_distance
B1 C7 . 1.495(5)
B1 C1 . 1.502(5)
B1 C13 . 1.584(5)
C1 N1 . 1.343(4)
C1 O1 . 1.392(4)
C2 N1 . 1.478(4)
C2 C5 . 1.513(5)
C2 C3 . 1.520(5)
C2 C6 . 1.526(5)
C3 O1 . 1.441(4)
C3 H3A . 0.99
C3 H3B . 0.99
C4 N1 . 1.458(4)
C4 H4A . 0.98
C4 H4B . 0.98
C4 H4C . 0.98
C5 H5A . 0.98
C5 H5B . 0.98
C5 H5C . 0.98
C6 H6A . 0.98
C6 H6B . 0.98
C6 H6C . 0.98
C7 N2 . 1.374(4)
C7 O2 . 1.394(4)
C8 N2 . 1.494(4)
C8 C9 . 1.507(5)
C8 C11 . 1.515(5)
C8 C12 . 1.521(5)
C9 O2 . 1.446(4)
C9 H9A . 0.99
C9 H9B . 0.99
C10 N2 . 1.454(4)
C10 H10A . 0.98
C10 H10B . 0.98
C10 H10C . 0.98
C11 H11A . 0.98
C11 H11B . 0.98
C11 H11C . 0.98
C12 H12A . 0.98
C12 H12B . 0.98
C12 H12C . 0.98
C13 C18 . 1.398(5)
C13 C14 . 1.399(5)
C14 C15 . 1.392(5)
C14 H14 . 0.95
C15 C16 . 1.381(5)
C15 H15 . 0.95
C16 C17 . 1.379(5)
C16 H16 . 0.95
C17 C18 . 1.394(5)
C17 H17 . 0.95
C18 H18 . 0.95
C19 F3 . 1.323(5)
C19 F2 . 1.330(6)
C19 F1 . 1.344(4)
C19 S1 . 1.828(5)
Li1 O3 . 1.876(7)
Li1 O4 2_666 1.894(7)
Li1 O2 . 1.926(6)
Li1 O1 . 1.931(7)
O3 S1 . 1.441(3)
O4 S1 . 1.443(2)
O4 Li1 2_666 1.894(7)
O5 S1 . 1.433(3)
