#------------------------------------------------------------------------------
#$Date: 2016-02-18 17:37:37 +0200 (Thu, 18 Feb 2016) $
#$Revision: 176729 $
#$URL: svn://www.crystallography.net/cod/cif/1/51/82/1518236.cif $
#------------------------------------------------------------------------------
#
# This file is available in the Crystallography Open Database (COD),
# http://www.crystallography.net/
#
# All data on this site have been placed in the public domain by the
# contributors.
#
data_1518236
loop_
_publ_author_name
'Maolanon, Alex R.'
'Villadsen, Jesper S.'
'Christensen, Niels J.'
'Hoeck, Casper'
'Friis, Tina'
'Harris, Pernille'
'Gotfredsen, Charlotte H.'
'Fristrup, Peter'
'Olsen, Christian A.'
_publ_section_title
;
 Methyl effect in azumamides provides insight into histone deacetylase
 inhibition by macrocycles.
;
_journal_issue                   22
_journal_name_full               'Journal of medicinal chemistry'
_journal_page_first              9644
_journal_page_last               9657
_journal_paper_doi               10.1021/jm501399d
_journal_volume                  57
_journal_year                    2014
_chemical_absolute_configuration ad
_chemical_formula_moiety         'C13 H27 N O4 S'
_chemical_formula_sum            'C13 H27 N O4 S'
_chemical_formula_weight         293.41
_chemical_name_systematic
;
 ?
;
_space_group_crystal_system      monoclinic
_space_group_IT_number           4
_space_group_name_Hall           'P 2yb'
_space_group_name_H-M_alt        'P 1 21 1'
_symmetry_space_group_name_Hall  'P 2yb'
_symmetry_space_group_name_H-M   'P 1 21 1'
_atom_sites_solution_hydrogens   mixed
_audit_creation_date             2014-07-04
_audit_creation_method
;
Olex2 1.2
(compiled 2014.03.12 svn.r2899 for OlexSys, GUI svn.r4796)
;
_cell_angle_alpha                90
_cell_angle_beta                 91.895(5)
_cell_angle_gamma                90
_cell_formula_units_Z            4
_cell_length_a                   6.0994(17)
_cell_length_b                   22.475(6)
_cell_length_c                   11.962(4)
_cell_measurement_reflns_used    1454
_cell_measurement_temperature    120(2)
_cell_measurement_theta_max      18.904
_cell_measurement_theta_min      3.342
_cell_volume                     1638.9(8)
_computing_data_reduction        'SAINT v6.45A (Bruker, 2003)'
_computing_molecular_graphics    'Olex2 (Dolomanov et al., 2009)'
_computing_publication_material  'Olex2 (Dolomanov et al., 2009)'
_computing_structure_refinement  'ShelXL (Sheldrick, 2008)'
_diffrn_ambient_temperature      120.0
_diffrn_measured_fraction_theta_full 0.998
_diffrn_measured_fraction_theta_max 0.995
_diffrn_measurement_device_type  'Bruker P4'
_diffrn_measurement_method       '\w scans'
_diffrn_radiation_monochromator  graphite
_diffrn_radiation_type           MoK\a
_diffrn_radiation_wavelength     0.71073
_diffrn_reflns_av_R_equivalents  0.1133
_diffrn_reflns_av_unetI/netI     0.1730
_diffrn_reflns_Laue_measured_fraction_full 0.998
_diffrn_reflns_Laue_measured_fraction_max 0.995
_diffrn_reflns_limit_h_max       8
_diffrn_reflns_limit_h_min       -8
_diffrn_reflns_limit_k_max       29
_diffrn_reflns_limit_k_min       -29
_diffrn_reflns_limit_l_max       15
_diffrn_reflns_limit_l_min       -15
_diffrn_reflns_number            17843
_diffrn_reflns_point_group_measured_fraction_full 0.995
_diffrn_reflns_point_group_measured_fraction_max 0.985
_diffrn_reflns_theta_full        25.242
_diffrn_reflns_theta_max         28.231
_diffrn_reflns_theta_min         1.703
_exptl_absorpt_coefficient_mu    0.207
_exptl_absorpt_correction_T_max  1
_exptl_absorpt_correction_T_min  0.673074
_exptl_absorpt_correction_type   multi-scan
_exptl_absorpt_process_details
;
SADABS v.2.10 (Bruker,2003) was used for absorption correction.
R(int) was 0.1012 before and 0.0547 after correction.
The Ratio of minimum to maximum transmission is 0.6731.
The \l/2 correction factor is 0.0015.
;
_exptl_crystal_density_diffrn    1.189
_exptl_crystal_F_000             640
_exptl_crystal_size_max          0.38
_exptl_crystal_size_mid          0.18
_exptl_crystal_size_min          0.02
_refine_diff_density_max         0.434
_refine_diff_density_min         -0.598
_refine_diff_density_rms         0.085
_refine_ls_abs_structure_details
;
 Flack x determined using 1429 quotients [(I+)-(I-)]/[(I+)+(I-)]
 (Parsons and Flack (2004), Acta Cryst. A60, s61).
;
_refine_ls_abs_structure_Flack   0.09(7)
_refine_ls_extinction_method     none
_refine_ls_goodness_of_fit_ref   1.038
_refine_ls_hydrogen_treatment    mixed
_refine_ls_matrix_type           full
_refine_ls_number_parameters     363
_refine_ls_number_reflns         7951
_refine_ls_number_restraints     3
_refine_ls_restrained_S_all      1.038
_refine_ls_R_factor_all          0.1670
_refine_ls_R_factor_gt           0.0828
_refine_ls_shift/su_max          0.002
_refine_ls_shift/su_mean         0.000
_refine_ls_structure_factor_coef Fsqd
_refine_ls_weighting_details
;
 w=1/[\s^2^(Fo^2^)+(0.0671P)^2^]
 where P=(Fo^2^+2Fc^2^)/3
;
_refine_ls_weighting_scheme      calc
_refine_ls_wR_factor_gt          0.1511
_refine_ls_wR_factor_ref         0.1890
_reflns_Friedel_coverage         0.931
_reflns_Friedel_fraction_full    0.993
_reflns_Friedel_fraction_max     0.974
_reflns_number_gt                4406
_reflns_number_total             7951
_reflns_threshold_expression     'I > 2\s(I)'
_cod_data_source_file            jm501399d_si_003.cif
_cod_data_source_block           cpd25
_cod_depositor_comments
'Adding full bibliography for 1518235--1518236.cif.'
_cod_original_cell_volume        1638.8(8)
_cod_database_code               1518236
#BEGIN Tags that were not found in dictionaries:
_shelxl_version_number           2013-2
_shelx_space_group_comment
;
The symmetry employed for this shelxl refinement is uniquely defined
by the following loop, which should always be used as a source of
symmetry information in preference to the above space-group names.
They are only intended as comments.
;
_olex2_refinement_description
;
1. Fixed Uiso
 At 1.2 times of:
  All C(H) groups, All C(H,H) groups
 At 1.5 times of:
  All C(H,H,H) groups, All N(H) groups, All O(H) groups
2. Restrained distances
 N21-H21
 0.86 with sigma of 0.02
 N11-H11
 0.86 with sigma of 0.02
3.a Ternary CH refined with riding coordinates:
 C15(H15), C25(H25)
3.b Secondary CH2 refined with riding coordinates:
 C16(H16A,H16B), C17(H17A,H17B), C18(H18A,H18B), C26(H26A,H26B), C27(H27A,
 H27B), C28(H28A,H28B)
3.c Idealised Me refined as rotating group:
 C12(H12A,H12B,H12C), C13(H13A,H13B,H13C), C14(H14A,H14B,H14C), C111(H11A,H11B,
 H11C), C112(H11D,H11E,H11F), C113(H11G,H11H,H11I), C22(H22A,H22B,H22C),
 C23(H23A,H23B,H23C), C24(H24A,H24B,H24C), C211(H21A,H21B,H21C), C212(H21D,H21E,
 H21F), C213(H21G,H21H,H21I)
3.d Idealised tetrahedral OH refined as rotating group:
 O12(H12), O22(H22)
;
_shelx_res_file
;
TITL jv57m in P2(1)
CELL 0.71073 6.0994 22.4748 11.9615 90 91.895 90
ZERR 4 0.0017 0.0064 0.0035 0 0.005 0
LATT -1
SYMM -X,0.5+Y,-Z

SFAC C H N O S
UNIT 52 108 4 16 4
DFIX 0.86 N21 H21
DFIX 0.86 N11 H11

L.S. 4
PLAN  20
TEMP -153.15
BOND $H
fmap 2
acta
MORE -1
CONF
REM <HKL>//kemi-srv-fil/phha$/Documents/smart/christian/jv57/jv57m_abs.hkl</HKL>

WGHT    0.067100
FVAR       0.74171
S1    5    0.649308    0.318247    0.475358    11.00000    0.01482    0.02596 =
         0.05312   -0.00773   -0.00055    0.00056
C11   1    0.537131    0.389465    0.524325    11.00000    0.02490    0.02142 =
         0.04017   -0.00421   -0.00178   -0.00116
C12   1    0.399990    0.379305    0.626051    11.00000    0.04273    0.02676 =
         0.04246   -0.00641    0.00394    0.00314
AFIX 137
H12A  2    0.484852    0.356189    0.681847    11.00000   -1.50000
H12B  2    0.266590    0.357408    0.603860    11.00000   -1.50000
H12C  2    0.359903    0.417752    0.658186    11.00000   -1.50000
AFIX   0
C13   1    0.738289    0.426725    0.554836    11.00000    0.03057    0.02657 =
         0.08321   -0.01085    0.00024   -0.00553
AFIX 137
H13A  2    0.836856    0.427297    0.491784    11.00000   -1.50000
H13B  2    0.814831    0.409444    0.620442    11.00000   -1.50000
H13C  2    0.692879    0.467456    0.571954    11.00000   -1.50000
AFIX   0
C14   1    0.407141    0.417944    0.429032    11.00000    0.04831    0.03485 =
         0.03926    0.00619   -0.00822    0.01165
AFIX 137
H14A  2    0.360702    0.457864    0.451189    11.00000   -1.50000
H14B  2    0.277575    0.393629    0.410565    11.00000   -1.50000
H14C  2    0.498737    0.420831    0.363465    11.00000   -1.50000
AFIX   0
C15   1    0.432593    0.225131    0.388884    11.00000    0.02100    0.02280 =
         0.02844   -0.00060   -0.00093   -0.00298
AFIX  13
H15   2    0.520572    0.233046    0.321392    11.00000   -1.20000
AFIX   0
C16   1    0.203464    0.206204    0.351115    11.00000    0.02511    0.02640 =
         0.03119   -0.00470    0.00003   -0.00484
AFIX  23
H16A  2    0.115322    0.200143    0.418204    11.00000   -1.20000
H16B  2    0.213290    0.167408    0.312406    11.00000   -1.20000
AFIX   0
C17   1    0.082735    0.249699    0.273709    11.00000    0.01515    0.03446 =
         0.03947   -0.00109   -0.00274   -0.00024
AFIX  23
H17A  2   -0.070121    0.236076    0.259897    11.00000   -1.20000
H17B  2    0.078396    0.289429    0.309310    11.00000   -1.20000
AFIX   0
C18   1    0.545145    0.175305    0.458451    11.00000    0.02832    0.02934 =
         0.02655   -0.00043    0.00086    0.00005
AFIX  23
H18A  2    0.690418    0.189822    0.485895    11.00000   -1.20000
H18B  2    0.456460    0.167375    0.524670    11.00000   -1.20000
AFIX   0
C19   1    0.576907    0.117658    0.397230    11.00000    0.02250    0.02959 =
         0.02648    0.00028   -0.00202    0.00613
C110  1    0.741659    0.076102    0.226931    11.00000    0.02345    0.02412 =
         0.03400   -0.00329   -0.00269    0.00136
C111  1    0.843912    0.107504    0.129967    11.00000    0.02633    0.04167 =
         0.04079   -0.00687    0.00994   -0.00898
AFIX 137
H11A  2    0.737551    0.135308    0.095850    11.00000   -1.50000
H11B  2    0.886546    0.078109    0.074206    11.00000   -1.50000
H11C  2    0.974004    0.129473    0.156916    11.00000   -1.50000
AFIX   0
C112  1    0.538599    0.041463    0.189197    11.00000    0.03009    0.03576 =
         0.04164    0.00110   -0.00386   -0.00589
AFIX 137
H11D  2    0.484337    0.018555    0.252274    11.00000   -1.50000
H11E  2    0.575721    0.014258    0.128653    11.00000   -1.50000
H11F  2    0.424717    0.069225    0.162316    11.00000   -1.50000
AFIX   0
C113  1    0.908291    0.036609    0.291445    11.00000    0.02297    0.03306 =
         0.05810    0.00141    0.00061    0.00259
AFIX 137
H11G  2    1.038117    0.060214    0.312807    11.00000   -1.50000
H11H  2    0.951460    0.003421    0.243799    11.00000   -1.50000
H11I  2    0.841495    0.021021    0.358845    11.00000   -1.50000
AFIX   0
N11   3    0.418138    0.280332    0.454464    11.00000    0.01372    0.02301 =
         0.03771   -0.00496    0.00380    0.00040
H11   2    0.342389    0.268749    0.508950    11.00000   -1.50000
O11   4    0.771932    0.294326    0.578717    11.00000    0.03362    0.03541 =
         0.08005   -0.00816   -0.03168    0.00743
O12   4    0.191113    0.253593    0.170776    11.00000    0.01838    0.06842 =
         0.02577    0.00063    0.00381    0.00327
AFIX 147
H12   2    0.099049    0.261214    0.118973    11.00000   -1.50000
AFIX   0
O13   4    0.517785    0.069225    0.429083    11.00000    0.02993    0.02755 =
         0.04082    0.00400    0.00353   -0.00178
O14   4    0.682145    0.126284    0.300557    11.00000    0.02297    0.02005 =
         0.03357   -0.00601    0.00144    0.00091

S2    5    0.685817    0.296388    0.935234    11.00000    0.01478    0.02609 =
         0.03705    0.00003   -0.00105   -0.00007
C21   1    0.602592    0.365768    1.004720    11.00000    0.01306    0.02362 =
         0.03960   -0.00631   -0.00219    0.00345
C22   1    0.616874    0.360522    1.130103    11.00000    0.04286    0.04563 =
         0.04898   -0.01677   -0.00636   -0.00095
AFIX 137
H22A  2    0.558566    0.396763    1.163653    11.00000   -1.50000
H22B  2    0.770443    0.355245    1.154800    11.00000   -1.50000
H22C  2    0.530918    0.326139    1.153553    11.00000   -1.50000
AFIX   0
C23   1    0.760539    0.413041    0.962053    11.00000    0.02054    0.02989 =
         0.07619   -0.00393   -0.00746   -0.00354
AFIX 137
H23A  2    0.752684    0.413719    0.880098    11.00000   -1.50000
H23B  2    0.910553    0.403472    0.987907    11.00000   -1.50000
H23C  2    0.719354    0.452154    0.990875    11.00000   -1.50000
AFIX   0
C24   1    0.366356    0.381784    0.963911    11.00000    0.01544    0.03145 =
         0.06318   -0.00413   -0.00099    0.00354
AFIX 137
H24A  2    0.262925    0.353237    0.994675    11.00000   -1.50000
H24B  2    0.356400    0.380278    0.882020    11.00000   -1.50000
H24C  2    0.330225    0.421973    0.989209    11.00000   -1.50000
AFIX   0
C25   1    0.449229    0.197688    0.902183    11.00000    0.01568    0.02292 =
         0.03362   -0.00209    0.00014    0.00536
AFIX  13
H25   2    0.590814    0.175313    0.908453    11.00000   -1.20000
AFIX   0
C26   1    0.396839    0.209400    0.780146    11.00000    0.01290    0.02692 =
         0.04479    0.00312    0.00121    0.00073
AFIX  23
H26A  2    0.395388    0.170763    0.740380    11.00000   -1.20000
H26B  2    0.517690    0.233350    0.750065    11.00000   -1.20000
AFIX   0
C27   1    0.181044    0.241281    0.751668    11.00000    0.02100    0.02982 =
         0.03055    0.00209    0.00023    0.00238
AFIX  23
H27A  2    0.058736    0.221246    0.788946    11.00000   -1.20000
H27B  2    0.188608    0.283017    0.777981    11.00000   -1.20000
AFIX   0
C28   1    0.270899    0.161116    0.961677    11.00000    0.02127    0.01907 =
         0.04383   -0.00004   -0.00172    0.00038
AFIX  23
H28A  2    0.320368    0.152785    1.039773    11.00000   -1.20000
H28B  2    0.133409    0.184456    0.963494    11.00000   -1.20000
AFIX   0
C29   1    0.228825    0.103462    0.900756    11.00000    0.02410    0.01914 =
         0.03767    0.00427   -0.00020    0.00032
C210  1   -0.021377    0.058467    0.753803    11.00000    0.02861    0.03177 =
         0.03969   -0.00886   -0.01093    0.00092
C211  1   -0.214976    0.087316    0.692385    11.00000    0.05770    0.04371 =
         0.08661   -0.01746   -0.04521    0.01391
AFIX 137
H21A  2   -0.171759    0.126550    0.664953    11.00000   -1.50000
H21B  2   -0.336197    0.091792    0.743492    11.00000   -1.50000
H21C  2   -0.262154    0.062260    0.628996    11.00000   -1.50000
AFIX   0
C212  1    0.159596    0.045634    0.676086    11.00000    0.03169    0.12402 =
         0.08727   -0.06576    0.01576   -0.01982
AFIX 137
H21D  2    0.211158    0.082969    0.643774    11.00000   -1.50000
H21E  2    0.105211    0.019300    0.616043    11.00000   -1.50000
H21F  2    0.281086    0.026220    0.717481    11.00000   -1.50000
AFIX   0
C213  1   -0.093330    0.006058    0.819207    11.00000    0.06525    0.04476 =
         0.09460    0.00787   -0.04020   -0.01914
AFIX 137
H21G  2   -0.178585   -0.020846    0.770132    11.00000   -1.50000
H21H  2   -0.184457    0.019448    0.880301    11.00000   -1.50000
H21I  2    0.035669   -0.014940    0.850255    11.00000   -1.50000
AFIX   0
N21   3    0.474499    0.253905    0.965975    11.00000    0.01549    0.02372 =
         0.03669    0.00588    0.00043   -0.00004
H21   2    0.471627    0.250625    1.039597    11.00000   -1.50000
O21   4    0.892818    0.277237    0.997807    11.00000    0.00822    0.04489 =
         0.05504   -0.00022   -0.00965    0.00676
O22   4    0.145388    0.239738    0.634062    11.00000    0.02606    0.03370 =
         0.02463    0.00056   -0.00252    0.00413
AFIX 147
H22   2    0.083407    0.271329    0.612756    11.00000   -1.50000
AFIX   0
O23   4    0.341731    0.059481    0.910106    11.00000    0.03042    0.02365 =
         0.08390   -0.00578   -0.02124    0.00602
O24   4    0.047825    0.106905    0.833963    11.00000    0.01963    0.02375 =
         0.04188   -0.00204   -0.00896    0.00124
HKLF 4

REM  jv57m in P2(1)
REM R1 =  0.0828 for    4406 Fo > 4sig(Fo)  and  0.1670 for all    7951 data
REM    363 parameters refined using      3 restraints

END

WGHT      0.0676      0.0000

REM Highest difference peak  0.434,  deepest hole -0.598,  1-sigma level  0.085
Q1    1   0.6898  0.3020  1.0188  11.00000  0.05    0.43
Q2    1   0.6503  0.3536  0.4729  11.00000  0.05    0.43
Q3    1   0.6890  0.2946  0.8517  11.00000  0.05    0.42
Q4    1   0.6471  0.3007  0.3972  11.00000  0.05    0.40
Q5    1   0.6457  0.3171  0.3935  11.00000  0.05    0.40
Q6    1   0.5807  0.3171  0.4741  11.00000  0.05    0.40
Q7    1   0.7247  0.3174  0.4771  11.00000  0.05    0.38
Q8    1   0.6279  0.3602  0.8351  11.00000  0.05    0.37
Q9    1   0.5255  0.2999  1.0043  11.00000  0.05    0.35
Q10   1   0.2767  0.1712  0.8837  11.00000  0.05    0.33
Q11   1   0.6061  0.3285  1.0655  11.00000  0.05    0.33
Q12   1   0.3881  0.2993  0.8434  11.00000  0.05    0.32
Q13   1   0.2652  0.1439  1.0557  11.00000  0.05    0.30
Q14   1   0.6862  0.1462  0.2145  11.00000  0.05    0.30
Q15   1   0.4062  0.2792  0.3649  11.00000  0.05    0.30
Q16   1   0.5644  0.1620  0.5387  11.00000  0.05    0.30
Q17   1   0.7345  0.5070  0.5423  11.00000  0.05    0.29
Q18   1   0.5447  0.3404  0.3624  11.00000  0.05    0.29
Q19   1  -0.3814  0.0165  0.6015  11.00000  0.05    0.29
Q20   1   0.6462  0.2807  0.4786  11.00000  0.05    0.29
;
_shelx_res_checksum              49385
_shelx_hkl_file
;
   1   0   0 6019.18  140.65
   1   0   0 5863.78  132.60
   1   0   0 5921.36  130.35
   2   0   0  285.61   20.95
   2   0   0  292.28   23.35
   2   0   0  274.93   20.75
   3   0   0    7.84    8.67
   3   0   0   18.51   12.75
   3   0   0    4.47   10.22
   4   0   0  176.71   26.66
   4   0   0  171.29   25.18
   4   0   0  234.29   32.78
   5   0   0  -25.99   16.02
   5   0   0   11.73   16.12
   5   0   0   16.34   16.10
   6   0   0  -11.98   16.81
   6   0   0   17.29   18.73
  -7   0   0   68.06   28.77
   7   0   0   22.86   21.65
  -7   0   0   93.58   29.24
   0  -1   0    0.59    0.49
   0   1   0    2.55    1.48
   0  -1   0   -0.48    0.47
   0   1   0   -1.08    0.47
   0   1   0    0.00    0.54
   0  -1   0    3.63    1.38
   1   1   0  360.93   19.58
   1  -1   0  339.02   18.00
   1  -1   0  348.87   18.01
   1  -1   0  352.78   18.34
   1   1   0  370.22   16.56
   1   1   0  391.24   16.25
   2   1   0  906.42   41.87
   2  -1   0  997.25   40.14
   2   1   0  966.64   37.84
   2  -1   0  898.88   38.03
   2  -1   0 1002.53   41.93
   2   1   0  960.84   37.20
   3  -1   0  606.75   35.58
   3  -1   0  699.56   39.21
   3   1   0  626.05   39.60
   3  -1   0  643.95   36.37
   3   1   0  556.12   33.48
   3   1   0  650.87   35.83
   4   1   0 1003.76   50.40
   4  -1   0 1089.08   54.49
   4   1   0 1048.21   58.12
   4  -1   0 1094.97   54.70
   4   1   0 1143.63   53.36
   4  -1   0 1080.02   58.25
   5  -1   0  184.22   31.46
   5   1   0  168.06   29.46
   5   1   0  197.05   30.50
   5   1   0  146.33   32.94
   5  -1   0  132.23   27.12
   6  -1   0   78.61   26.29
  -6   1   0   77.51   27.10
   6   1   0   72.63   23.46
   6   1   0   84.08   33.58
   6   1   0  103.82   28.72
  -6   1   0   90.38   28.36
   6  -1   0  104.28   29.96
  -7  -1   0   72.16   28.21
   7   1   0   -2.54   18.64
   7  -1   0   57.32   27.50
   7  -1   0   14.04   22.63
  -7   1   0   -6.53   22.92
  -7   1   0   79.69   29.47
  -8  -1   0   96.85   35.43
  -8  -1   0   44.44   33.63
  -1   2   0 2624.15   66.36
  -1   2   0 2362.56   64.95
   1  -2   0 2644.83   67.01
   1   2   0 2452.97   61.07
   1  -2   0 2534.77   66.12
   1   2   0 2504.85   70.99
   2  -2   0  411.14   27.19
   2  -2   0  404.62   26.08
   2   2   0  394.81   21.70
   2   2   0  427.20   29.16
   2  -2   0  377.29   25.38
   2   2   0  390.91   22.93
   3   2   0  621.79   34.69
   3   2   0  606.98   32.97
   3   2   0  635.74   40.82
   3  -2   0  615.80   38.06
   3  -2   0  639.89   37.84
   3  -2   0  595.48   35.98
   4   2   0  656.69   40.34
   4   2   0  667.50   40.30
   4  -2   0  696.22   42.65
   4   2   0  673.80   47.80
   4  -2   0  699.89   43.88
   5  -2   0   -2.47   14.63
   5   2   0   18.08   15.96
   5   2   0   -8.35   15.16
   5   2   0   34.67   20.40
  -5   2   0   26.12   23.62
   5  -2   0   -6.77   15.38
  -6   2   0   94.33   28.93
  -6   2   0   76.98   27.67
   6   2   0   23.37   28.08
   6  -2   0   26.77   21.43
   6   2   0   55.71   25.76
   6  -2   0   63.61   26.11
   7   2   0   -0.04   20.91
   7  -2   0   93.32   30.16
  -7   2   0   70.17   28.99
  -7   2   0   86.30   34.05
  -8  -2   0  203.08   41.28
  -8   2   0   93.45   32.99
  -8  -2   0   48.81   34.15
   0   3   0  -13.53    4.18
   0  -3   0   -8.11    3.97
   0   3   0    1.35    5.07
   1   3   0 4695.18  122.24
   1   3   0 4798.14  108.65
  -1   3   0 5001.60  114.60
   1  -3   0 4810.17  114.56
  -2   3   0  527.36   29.90
   2   3   0  564.53   26.46
   2   3   0  551.63   33.37
  -2   3   0  501.00   28.32
  -2  -3   0  520.33   29.37
  -2  -3   0  516.97   23.72
   2  -3   0  541.49   30.36
   2  -3   0  578.21   31.92
   3   3   0  197.86   27.71
   3  -3   0  200.96   23.97
   3   3   0  193.15   21.67
  -3   3   0  146.70   26.06
  -3   3   0  163.01   24.17
   3  -3   0  228.24   26.50
   4   3   0 1481.22   61.47
  -4   3   0 1420.42   70.13
  -4   3   0 1302.66   64.88
   4  -3   0 1457.07   66.94
   4   3   0 1413.35   70.89
   4  -3   0 1466.33   64.88
   5  -3   0  334.25   40.26
   5  -3   0  268.27   35.71
  -5   3   0  381.69   45.46
  -5   3   0  304.36   39.63
   5   3   0  334.29   47.17
   5   3   0  327.72   36.24
   6   3   0   -3.07   24.25
  -6   3   0   33.06   22.12
  -6   3   0   13.67   22.52
   6  -3   0   31.56   21.74
   6   3   0   45.51   22.29
   6  -3   0   -0.47   19.58
   7   3   0  -16.76   19.72
   7  -3   0   37.12   23.25
  -7   3   0  -10.21   25.40
   7   3   0  -26.37   32.22
  -7   3   0    8.88   27.63
  -8   3   0   12.52   27.44
  -8  -3   0  158.19   36.07
  -8  -3   0  110.19   32.60
   0   4   0 4625.36  109.96
   0   4   0 4663.82  105.06
   0  -4   0 4555.15  102.77
  -1   4   0 1965.66   53.73
   1   4   0 1888.06   51.29
   1  -4   0 1985.71   59.02
  -1   4   0 2021.25   59.08
  -1  -4   0 1937.96   56.09
   2  -4   0  239.63   23.13
   2   4   0  216.31   17.51
  -2   4   0  249.22   21.41
   2  -4   0  238.81   24.90
  -2  -4   0  230.87   15.98
   2   4   0  236.35   27.22
   3   4   0 1696.75   72.83
   3  -4   0 1717.71   66.37
   3   4   0 1728.75   60.07
   3  -4   0 1760.35   68.94
  -3  -4   0 1704.72   55.59
  -3   4   0 1584.37   63.90
  -3  -4   0 1641.35   65.12
  -3   4   0 1775.60   68.40
  -4   4   0  129.37   25.66
   4   4   0  167.43   32.78
   4  -4   0  151.31   25.41
  -4   4   0  126.06   28.78
   4  -4   0  143.86   26.75
   4   4   0  149.90   23.21
  -4  -4   0  151.05   20.58
   5   4   0  219.63   30.84
   5   4   0  293.14   45.63
   5  -4   0  204.57   34.48
  -5   4   0  257.10   39.64
   5  -4   0  179.73   32.35
  -5   4   0  265.37   35.82
  -5  -4   0  229.43   28.44
   6   4   0  343.30   57.10
   6   4   0  293.86   39.68
  -6   4   0  274.98   43.71
  -6   4   0  290.06   45.82
   6  -4   0  335.12   46.47
  -7   4   0  111.73   36.14
   7   4   0   94.01   42.86
   7  -4   0  121.81   36.32
   7   4   0   92.86   27.79
  -8   4   0   52.03   30.98
   0  -5   0    1.88    5.88
   0   5   0    2.46    7.52
   0   5   0   -4.11    7.91
  -1  -5   0 4636.88  112.04
   1   5   0 4792.69  110.01
  -1   5   0 4799.93  118.31
  -1   5   0 4885.93  114.93
   1  -5   0 4434.14  116.65
  -2   5   0 1498.29   51.59
   2   5   0 1581.88   63.05
  -2   5   0 1448.68   57.82
   2  -5   0 1393.32   55.85
  -2  -5   0 1398.10   52.34
   2   5   0 1450.30   47.86
   3  -5   0  634.41   41.00
  -3  -5   0  510.73   27.48
   3   5   0  591.83   42.05
   3   5   0  577.21   31.94
  -3   5   0  582.13   36.69
  -4   5   0  352.25   38.41
   4   5   0  341.69   35.58
  -4  -5   0  299.09   24.35
  -4   5   0  287.84   33.76
   4  -5   0  334.21   36.12
   4  -5   0  335.90   38.74
   4   5   0  284.52   26.22
   5   5   0  713.43   56.46
  -5   5   0  625.92   51.08
  -5  -5   0  654.10   40.39
   5  -5   0  670.16   50.36
   5   5   0  673.13   45.29
  -5   5   0  662.49   50.29
  -6   5   0   26.39   23.62
   6   5   0   28.51   20.55
   6   5   0   31.49   24.49
   6  -5   0   57.52   25.21
   7  -5   0   78.69   31.23
  -7   5   0   97.68   32.90
   7   5   0  152.55   43.77
   0  -6   0 5245.78  122.50
   0   6   0 5335.07  131.00
   0   6   0 5523.57  126.07
  -1  -6   0  853.74   36.77
  -1  -6   0  829.09   27.72
  -1   6   0  874.92   35.43
   1  -6   0  857.00   37.65
   1   6   0  844.16   31.90
  -1   6   0  897.42   39.07
   2  -6   0 1559.69   61.03
   2   6   0 1538.58   50.14
  -2  -6   0 1526.14   57.51
  -2   6   0 1566.96   54.31
   2   6   0 1504.68   63.56
  -2   6   0 1670.77   62.30
  -3   6   0 1702.82   65.25
   3  -6   0 1628.30   68.90
   3   6   0 1744.83   75.22
  -3  -6   0 1558.31   52.08
   3   6   0 1653.25   57.84
   4   6   0  152.65   22.81
  -4  -6   0  192.98   22.20
   4   6   0  189.12   33.77
   4  -6   0  191.01   30.99
  -4   6   0  174.39   28.71
  -4  -6   0  174.62   29.99
   5  -6   0  240.76   38.78
  -5  -6   0  213.09   27.07
   5   6   0  242.74   42.91
  -5   6   0  291.63   40.79
   5   6   0  218.57   31.06
  -5   6   0  218.22   43.28
   6   6   0   66.64   31.21
   6  -6   0   96.88   29.98
   6   6   0   58.03   23.59
  -6   6   0   48.81   29.24
  -6   6   0   38.12   26.87
   7   6   0   33.42   32.39
  -7   6   0    1.77   22.66
   7  -6   0    9.72   24.46
   0   7   0    5.69   11.93
   0   7   0   -4.57    8.92
   0  -7   0   -0.20    6.60
  -1  -7   0 2960.23   72.23
  -1   7   0 2886.80   84.68
  -1   7   0 3019.79   81.59
  -1  -7   0 2897.54   81.29
   1   7   0 2821.77   89.71
   1   7   0 2964.21   77.32
   2  -7   0   33.28   13.75
   2   7   0   62.88   12.29
   2   7   0   58.17   16.64
  -2   7   0   58.72   16.23
  -2  -7   0   44.15   16.81
  -2   7   0   46.78   17.94
   3   7   0  325.53   24.52
  -3  -7   0  347.38   30.14
   3  -7   0  297.17   29.48
  -3   7   0  343.98   36.45
   3   7   0  359.78   33.74
  -3   7   0  323.98   29.08
   4   7   0  220.94   25.63
   4  -7   0  215.74   32.58
   4   7   0  219.64   37.22
  -4   7   0  210.29   32.26
   5   7   0  109.94   33.95
   5  -7   0  110.44   27.76
  -5   7   0   95.39   26.25
   5   7   0  170.60   28.47
  -5   7   0  147.50   32.38
   6   7   0   70.85   34.56
   6   7   0   97.44   25.89
  -6   7   0   75.53   31.95
   6  -7   0   91.85   30.83
  -7   7   0  174.13   42.42
   7  -7   0   86.26   32.92
   7   7   0   39.65   36.34
   0   8   0  491.17   29.32
   0   8   0  496.55   29.15
   0  -8   0  497.99   26.66
  -1   8   0  587.94   30.68
   1   8   0  631.14   35.96
   1   8   0  653.29   29.85
  -1   8   0  601.38   35.78
  -1  -8   0  568.44   25.29
  -1  -8   0  623.56   32.91
  -2  -8   0  341.34   27.94
   2   8   0  354.70   30.81
  -2   8   0  336.10   30.35
  -2   8   0  324.65   27.21
   2  -8   0  306.33   27.78
   2   8   0  329.79   22.05
  -3   8   0  518.70   35.68
   3   8   0  577.88   43.81
  -3   8   0  506.35   40.09
  -3  -8   0  618.09   40.23
   3   8   0  523.76   30.07
   3  -8   0  544.40   40.56
   4   8   0  129.44   22.24
   4  -8   0  101.20   24.05
  -4  -8   0   97.69   27.33
   4   8   0  122.25   29.73
  -4   8   0   94.15   27.74
  -4   8   0   99.24   26.28
  -5   8   0  216.21   37.44
   5   8   0  288.04   34.37
   5   8   0  276.99   48.67
   5  -8   0  279.31   42.77
   6   8   0   17.07   26.14
  -6   8   0   69.21   29.53
   6   8   0   70.54   25.24
   6  -8   0   62.65   28.15
  -7   8   0   85.39   37.24
   7   8   0   48.91   34.35
   7  -8   0   31.75   31.55
   0  -9   0    7.19    7.79
   0   9   0   -4.69    9.23
   0   9   0   -2.09   12.22
  -1   9   0 1575.70   54.36
  -1   9   0 1500.23   58.42
  -1  -9   0 1556.72   48.49
  -1  -9   0 1551.82   56.27
   1   9   0 1495.32   61.88
   1   9   0 1623.49   53.86
  -2  -9   0  664.95   38.74
   2  -9   0  587.70   39.10
  -2   9   0  686.48   41.39
   2   9   0  648.21   42.39
   2   9   0  671.88   32.32
  -2   9   0  658.40   36.83
  -3   9   0  442.06   34.75
   3  -9   0  447.54   37.43
   3   9   0  514.33   41.17
  -3   9   0  478.43   40.13
  -3  -9   0  492.72   38.01
   3   9   0  522.83   30.85
  -4   9   0   69.97   26.70
  -4   9   0   92.95   27.88
   4   9   0   79.45   18.89
   4   9   0   63.56   26.42
   4  -9   0   71.13   22.38
  -4  -9   0   43.91   23.08
   5   9   0  314.70   49.77
   5   9   0  326.19   36.13
  -5   9   0  352.54   44.16
   5  -9   0  387.64   48.95
  -5   9   0  168.37   35.51
   6   9   0   34.22   29.28
   6  -9   0   67.08   25.98
  -6   9   0   30.09   22.88
   7  -9   0   72.54   32.04
   7   9   0  106.66   43.97
  -7   9   0  143.00   41.28
   0  10   0  333.00   26.76
   0 -10   0  321.74   24.28
   0  10   0  301.50   24.77
  -1 -10   0  206.98   23.64
   1  10   0  202.02   26.72
  -1 -10   0  195.58   16.89
  -1  10   0  224.19   22.50
   1  10   0  217.08   22.77
  -1  10   0  158.37   24.04
   2  10   0  263.00   21.54
   2  10   0  252.39   26.29
  -2 -10   0  309.13   28.73
   2 -10   0  320.40   29.56
  -2  10   0  354.97   32.11
  -2  10   0  255.49   26.73
  -3  10   0  278.13   34.25
   3  10   0  276.92   28.25
   3 -10   0  306.49   36.36
   3  10   0  301.66   39.63
  -3 -10   0  263.97   33.54
  -3  10   0  272.14   35.87
   4  10   0   54.60   24.81
  -4  10   0   69.24   29.73
   4  10   0  113.26   20.84
  -4 -10   0   82.88   27.65
   4 -10   0   51.90   20.17
  -4  10   0   52.13   25.68
   5  10   0    5.95   17.38
  -5  10   0   46.08   25.87
   5  10   0    4.49   22.16
   5 -10   0    0.91   19.25
  -5 -10   0    9.07   25.24
   6  10   0    5.90   25.07
   6 -10   0   36.79   25.75
  -6  10   0   21.26   22.19
   7 -10   0   53.48   30.49
   7  10   0   14.68   32.04
  -7  10   0    4.74   32.61
   0  11   0    2.92   13.48
   0  11   0  -12.86    8.42
   0 -11   0   -3.60    9.31
   1 -11   0  595.43   36.51
  -1 -11   0  642.51   35.86
   1  11   0  598.64   39.61
  -1 -11   0  576.05   29.10
  -1  11   0  586.43   32.67
  -1  11   0  591.36   37.98
   1  11   0  608.69   34.02
   2  11   0  243.22   22.70
  -2 -11   0  314.19   33.68
   2 -11   0  303.68   33.99
  -2  11   0  253.77   28.86
  -2  11   0  341.72   36.09
  -3 -11   0   52.65   21.14
   3  11   0   25.47   17.61
  -3  11   0   25.87   23.16
  -3  11   0   47.86   22.81
   3  11   0   48.47   14.38
   3 -11   0   49.37   18.02
  -4  11   0  169.70   34.15
  -4 -11   0  156.59   34.78
   4  11   0  187.40   37.99
  -4  11   0  205.25   37.89
   4 -11   0  152.75   30.90
   4  11   0  217.66   27.78
   5  11   0  103.95   31.75
   5 -11   0  180.02   37.01
  -5  11   0  128.16   34.68
  -5 -11   0  190.07   40.34
   5  11   0  135.97   27.67
   6  11   0  187.07   47.81
  -6  11   0  146.45   41.33
   6 -11   0  146.97   36.37
   7 -11   0   83.73   34.87
   7  11   0   13.71   33.86
  -7  11   0   19.51   28.24
   0  12   0  222.68   26.94
   0 -12   0  235.71   25.49
   0  12   0  232.06   26.97
   1  12   0  450.37   35.18
  -1 -12   0  493.02   27.92
  -1 -12   0  454.16   32.47
  -1  12   0  470.31   35.75
  -1  12   0  460.68   30.20
   1  12   0  483.72   31.71
   1 -12   0  428.78   33.04
  -2  12   0   33.22   21.13
   2  12   0   -7.58    7.29
   2 -12   0   55.78   18.27
  -2 -12   0   22.59   18.35
   2  12   0   45.60   14.23
  -2  12   0   22.36   19.10
   3  12   0  588.39   34.83
  -3  12   0  538.31   45.29
  -3  12   0  529.00   41.97
   3 -12   0  522.56   42.54
  -3 -12   0  557.48   43.62
   3  12   0  558.88   48.29
   4  12   0  125.26   31.66
  -4  12   0   69.94   29.72
  -4  12   0  100.06   31.01
  -4 -12   0  144.48   33.51
   4  12   0  143.90   24.05
   4 -12   0  110.73   28.03
   5  12   0   64.52   22.86
  -5  12   0   28.68   23.49
   5 -12   0    4.10   18.97
  -5 -12   0   43.32   25.57
   5  12   0   11.02   22.75
   6 -12   0  179.29   39.83
  -6  12   0  176.76   44.78
   6  12   0  214.09   46.49
  -7  12   0   14.88   26.25
   7  12   0   27.05   34.68
   7 -12   0   31.08   32.34
   0  13   0  -10.90    8.34
   0 -13   0    6.98   10.44
   0  13   0   -1.39   14.83
   1  13   0  169.10   23.56
  -1  13   0  151.03   21.43
  -1 -13   0  171.97   19.73
  -1  13   0  133.76   25.63
   1 -13   0  169.71   25.93
   1  13   0  159.22   27.04
  -1 -13   0  153.34   24.08
   2  13   0  253.31   35.11
   2  13   0  210.81   24.83
  -2  13   0  202.97   32.28
  -2 -13   0  220.82   30.67
  -2  13   0  210.95   27.71
   2 -13   0  195.40   30.35
  -3 -13   0  107.18   29.59
   3  13   0   96.94   28.38
  -3  13   0  108.03   29.36
   3  13   0  103.22   20.32
  -3  13   0  100.46   28.01
   3 -13   0   60.45   21.79
   4  13   0   80.65   26.92
   4 -13   0   84.76   25.92
   4  13   0  107.37   23.19
  -4 -13   0   94.05   27.71
  -4  13   0   90.59   31.17
   5  13   0   68.58   27.33
   5 -13   0   14.11   20.94
  -5  13   0   58.23   29.55
  -6  13   0   -0.44   29.65
   6  13   0   56.03   33.59
   6 -13   0   34.06   28.04
   7  13   0   39.82   36.10
   7 -13   0   20.21   31.01
  -7  13   0  100.20   43.56
   0  14   0   49.56   15.38
   0 -14   0   45.88   15.82
   0  14   0   39.92   19.79
  -1  14   0   47.95   23.41
  -1  14   0   77.10   18.56
   1  14   0   66.64   20.37
   1 -14   0   34.63   15.84
   1  14   0   68.20   20.31
  -1 -14   0   67.63   20.61
  -1 -14   0   54.08   14.38
   2  14   0  242.48   24.45
   2  14   0  274.15   37.60
  -2  14   0  260.96   34.98
  -2 -14   0  257.99   34.37
   2 -14   0  251.90   33.21
  -2  14   0  248.18   29.47
  -3  14   0   68.52   25.62
  -3  14   0   97.87   28.48
  -3 -14   0   87.40   27.13
   3  14   0  110.51   21.39
   3 -14   0  135.58   28.32
   3  14   0  106.72   32.49
   4  14   0   37.30   20.64
   4 -14   0   63.69   22.43
   4  14   0   55.33   19.42
  -4 -14   0  104.94   31.11
  -4  14   0  101.21   33.90
  -5 -14   0   23.06   27.40
   5  14   0   18.20   23.64
  -5  14   0   12.86   28.10
   5 -14   0   10.63   17.68
  -6  14   0   80.10   39.07
   6 -14   0  116.47   36.26
   6  14   0    9.79   27.85
   7  14   0    8.95   31.25
   7 -14   0   58.12   33.01
  -7  14   0  101.84   42.84
   0  15   0  -21.04   16.46
   0 -15   0   -0.84   11.23
   0  15   0   -3.78   11.54
   1 -15   0  151.98   26.54
  -1  15   0   95.76   26.82
  -1  15   0  154.19   23.86
  -1 -15   0  125.34   20.40
  -1 -15   0  126.31   25.60
   1  15   0  158.41   28.30
   1  15   0  126.20   24.96
  -2  15   0  740.81   52.00
   2  15   0  715.94   53.58
  -2 -15   0  750.03   37.06
   2 -15   0  774.10   50.61
  -2  15   0  747.88   42.02
  -2 -15   0  718.10   49.01
   3 -15   0  176.14   32.94
  -3 -15   0  119.96   31.57
   3  15   0  162.78   25.03
  -3  15   0   96.88   26.20
  -3  15   0   93.02   29.84
   3  15   0  123.12   31.82
   4  15   0   13.35   20.23
   4  15   0   40.59   18.62
  -4  15   0    1.51   23.14
  -4 -15   0    7.65   23.85
   4 -15   0   10.03   18.35
   5 -15   0   24.21   22.98
  -5  15   0   29.45   30.87
   5  15   0   57.48   29.34
   6  15   0    1.63   25.94
  -6  15   0   -6.40   32.03
   6 -15   0   -9.11   23.22
   7  15   0  -33.93   31.04
   7 -15   0  -17.94   30.66
  -7  15   0   24.86   35.46
   0  16   0  769.91   46.53
   0  16   0  698.95   46.12
   0 -16   0  738.00   43.75
  -1 -16   0  208.37   25.14
   1 -16   0  210.28   30.91
   1  16   0  230.66   35.11
  -1  16   0  172.19   32.22
  -1  16   0  194.47   27.78
   1  16   0  168.84   28.71
  -2  16   0  110.95   21.49
  -2  16   0  105.47   28.81
  -2 -16   0   84.24   16.83
   2  16   0   71.63   22.91
   2 -16   0   92.24   23.36
  -2 -16   0   98.83   26.46
   2  16   0   80.49   26.12
   3  16   0   94.83   21.28
   3  16   0  132.80   31.50
  -3 -16   0  112.45   31.16
   3 -16   0   93.95   26.15
  -3  16   0   74.72   30.12
  -4  16   0   18.24   27.28
   4  16   0   50.34   20.51
   4 -16   0   63.12   22.44
   4  16   0   38.05   24.10
  -4 -16   0   52.25   27.10
  -5  16   0   27.40   28.46
   5  16   0    8.58   23.00
  -5 -16   0   17.43   26.57
   5 -16   0   -7.47   19.65
  -6  16   0  158.79   45.03
   6 -16   0  105.32   35.29
   0  17   0  -10.92   11.90
   0 -17   0   -1.64   12.28
   0  17   0    4.96   20.85
   1  17   0  360.74   42.37
  -1  17   0  234.06   36.09
  -1  17   0  312.45   34.98
   1 -17   0  330.46   37.70
  -1 -17   0  294.87   31.47
   1  17   0  247.86   33.52
  -2  17   0  334.45   29.61
  -2 -17   0  360.51   28.14
  -2 -17   0  325.97   40.82
  -2  17   0  354.93   43.69
   2  17   0  401.66   50.94
   2 -17   0  297.70   39.13
   2  17   0  300.54   34.91
   3 -17   0   73.08   25.13
  -3 -17   0   61.06   26.83
   3  17   0   82.16   22.65
  -3  17   0   74.77   31.54
   3  17   0   15.76   14.11
  -4  17   0   87.86   30.03
   4  17   0  127.48   35.29
  -4 -17   0   57.45   31.21
   4 -17   0   68.41   24.06
  -5  17   0   74.54   35.81
   5  17   0   44.77   28.18
   5 -17   0   44.60   25.56
   6  17   0    8.59   30.74
  -6  17   0   -6.49   32.46
   6 -17   0    4.69   24.76
   0 -18   0   13.66   13.94
   0  18   0   15.94   22.29
   0  18   0    3.66   12.88
  -1 -18   0   39.94   14.65
   1  18   0   18.54   18.81
   1  18   0    9.08   17.64
   1 -18   0   -4.46   12.30
  -1  18   0   -1.46   21.12
  -1  18   0   17.53   15.31
   2  18   0  224.53   40.52
   2  18   0  195.53   31.17
  -2  18   0  263.60   30.52
  -2 -18   0  204.51   37.32
  -2  18   0  199.27   37.38
   3  18   0  -11.63   15.09
  -3  18   0   10.21   24.30
  -3 -18   0  -10.48   24.29
   3 -18   0    2.45   15.99
   3  18   0   14.59   20.70
  -4 -18   0   39.83   29.31
   4 -18   0   27.58   23.72
   4  18   0   79.11   31.98
  -4  18   0   71.03   29.31
   5 -18   0   36.30   24.76
  -5 -18   0   42.47   36.54
  -5  18   0   66.75   35.87
   5  18   0   88.75   35.11
  -6  18   0   22.50   36.31
   6  18   0   36.12   29.90
   6 -18   0  -69.64   21.50
   0 -19   0   -0.20   12.12
   0  19   0  -13.75   13.25
   0  19   0   16.60   22.00
  -1  19   0   82.76   21.41
  -1 -19   0  103.01   22.69
   1  19   0   72.96   26.13
  -1  19   0   61.96   29.42
   1  19   0   79.23   27.05
   1 -19   0   77.63   21.46
  -2  19   0  144.80   35.33
   2  19   0  117.62   28.22
  -2 -19   0   74.90   28.88
   2  19   0  143.18   37.44
   3 -19   0   93.38   27.04
  -3 -19   0   68.16   33.40
  -3  19   0  103.66   33.74
   3  19   0   50.34   29.68
   3  19   0   63.85   24.61
   4  19   0   53.39   30.87
  -4  19   0   79.57   32.36
   4 -19   0   70.56   28.46
   5  19   0  116.50   38.41
  -5  19   0   73.38   40.50
   5 -19   0  104.78   32.83
  -5 -19   0  174.02   42.22
  -6  19   0   23.33   36.96
   6 -19   0   -0.18   26.66
   6  19   0   34.37   31.99
   0 -20   0   84.83   21.34
   0  20   0  130.78   30.26
   0  20   0  124.11   32.80
  -1  20   0  138.12   34.49
   1  20   0  249.84   41.69
  -1  20   0  211.39   32.31
  -1 -20   0  194.07   28.24
   1 -20   0  201.10   33.02
   1  20   0  191.89   34.26
   2  20   0    1.22   18.54
  -2  20   0   68.91   28.80
   2 -20   0  -14.33   12.21
  -2 -20   0   29.05   27.90
   2  20   0   25.64   22.85
  -3  20   0   66.98   29.14
   3 -20   0   84.28   30.38
   3  20   0   97.22   30.45
   3  20   0  112.50   34.34
  -3 -20   0   15.42   25.49
   4  20   0   40.56   28.39
  -4  20   0   92.15   32.58
  -4 -20   0   18.43   30.91
   4 -20   0   85.42   29.05
   5 -20   0   -6.73   21.89
   5  20   0   55.84   33.12
  -5  20   0   44.89   37.38
  -6  20   0    1.07   35.46
   6 -20   0   -8.06   27.43
   6  20   0   34.12   30.91
   0  21   0    1.20   21.96
   0  21   0   -5.88   16.49
   0 -21   0  -14.51   11.85
  -1 -21   0  224.57   30.22
   1  21   0  194.00   34.26
   1 -21   0  241.92   37.65
  -1  21   0  237.13   41.60
  -1  21   0  283.93   37.37
   1  21   0  225.25   43.27
  -2  21   0   93.17   30.60
   2 -21   0   75.66   25.43
  -2 -21   0   76.20   27.74
   2  21   0   52.90   26.53
   2  21   0   32.91   26.34
   3  21   0   64.35   31.67
  -3  21   0   29.70   28.27
   3 -21   0   51.04   26.47
  -4 -21   0  -20.81   25.72
  -4  21   0   30.02   28.63
   4  21   0    1.30   24.32
   4 -21   0   27.59   20.92
  -5  21   0   42.48   31.60
   5 -21   0   13.97   24.24
   5  21   0   13.17   29.44
   0 -22   0  230.31   34.89
   0  22   0  150.28   36.21
   0  22   0  171.15   36.53
   1  22   0   41.48   27.84
  -1  22   0   86.65   31.20
   1 -22   0   51.30   21.68
   1  22   0   25.38   24.57
   2  22   0   21.50   23.66
   2  22   0   23.73   25.96
   2 -22   0    6.94   20.19
  -2  22   0   14.91   21.94
   3 -22   0   45.66   22.81
  -3  22   0   11.66   26.83
   3  22   0   32.36   25.83
  -3 -22   0    4.79   30.33
  -4  22   0   96.80   38.85
   4  22   0   91.15   33.51
   4 -22   0   95.41   34.76
   5  22   0   81.04   37.78
   5 -22   0   61.56   31.31
  -5  22   0   47.88   32.52
   0  23   0    7.15   22.69
   0  23   0  -16.95   21.25
   0 -23   0   -7.86   14.24
   1 -23   0   56.07   21.43
  -1  23   0   39.77   26.10
   1  23   0   51.98   26.65
   1  23   0   38.75   25.69
   2 -23   0    1.27   15.74
   2  23   0    5.67   22.36
   2  23   0   -3.98   23.86
  -2  23   0    6.87   25.23
   3  23   0  120.55   38.94
  -3  23   0  117.48   38.18
  -3 -23   0  114.22   42.39
   3 -23   0  146.81   37.51
  -4 -23   0   25.49   31.63
  -4  23   0  -14.33   28.97
   4  23   0   22.92   26.53
   4 -23   0   -6.42   23.76
   5  23   0   59.14   36.10
   5 -23   0   29.55   27.90
  -5  23   0    8.33   30.43
   0 -24   0  113.61   26.12
   0  24   0  143.94   36.18
   0  24   0  137.19   35.69
  -1  24   0   35.45   27.20
   1  24   0   -5.39   22.94
   1  24   0   12.98   24.57
   1 -24   0  -10.07   17.07
  -2  24   0   75.64   31.60
   2  24   0   13.50   25.65
   2 -24   0   70.66   27.52
   3 -24   0   39.80   21.20
  -3  24   0   -7.24   27.11
   3  24   0   -2.85   24.84
  -4  24   0   54.27   30.79
  -4 -24   0   -8.18   33.79
   4  24   0    0.43   22.89
   4 -24   0   37.47   26.46
   0 -25   0    4.80   16.90
   0  25   0   26.72   25.78
  -1  25   0   50.20   28.21
   1 -25   0  -26.86   17.53
   1  25   0   14.48   24.92
   1  25   0   55.51   27.21
   2 -25   0   88.72   28.99
   2  25   0  136.17   39.43
  -2  25   0  110.63   37.00
   3  25   0  117.02   36.87
  -3  25   0   87.24   38.65
   3 -25   0   78.29   29.08
  -4  25   0   88.59   36.30
   4 -25   0   46.50   27.90
   4  25   0   -0.68   26.61
   0  26   0   17.36   27.04
   1 -26   0    1.46   20.40
   1  26   0  -21.23   23.07
   1  26   0   27.37   26.31
  -1  26   0   66.31   32.33
  -2  26   0   43.01   30.28
   2 -26   0   25.51   26.12
   2  26   0   12.99   27.98
  -3  26   0   89.42   36.39
   3  26   0   16.26   31.06
   3 -26   0    7.12   23.92
   0  27   0   -1.43   28.15
  -1  27   0   86.95   37.26
   1  27   0  133.87   34.37
   1 -27   0   80.70   29.21
   2 -27   0  137.24   36.47
  -2  27   0   69.31   35.85
   2  27   0   39.13   35.32
   3  27   0    7.48   31.12
  -3  27   0  -21.76   29.06
   3 -27   0  -16.23   23.93
   0  28   0   69.46   33.45
  -1  28   0   40.14   32.81
   2 -28   0   28.07   27.87
  -2  28   0   25.60   30.00
   2  28   0   65.36   35.42
   0  29   0   66.49   32.30
  -1  29   0  119.32   40.91
  -7   0   1  -26.62   21.74
   6   0  -1   18.06   20.76
   6   0  -1   -9.07   22.95
   5   0  -1   42.80   17.98
   5   0  -1   52.84   23.30
   5   0  -1   58.40   21.19
   4   0  -1   23.96   16.52
   4   0  -1    6.45   15.87
   4   0  -1   51.90   15.36
   3   0  -1   41.32   14.91
   3   0  -1   52.34   17.72
   3   0  -1   81.13   15.19
   2   0  -1    7.90    8.16
   2   0  -1    0.93   10.40
   2   0  -1    4.84    9.51
   1   0  -1    4.94    8.14
   1   0  -1    6.91    6.78
   1   0  -1    3.86    7.12
   0   0   1   -1.65    2.77
   0   0  -1   -3.17    2.74
   0   0  -1   -4.42    0.75
   0   0   1   -1.42    1.67
   0   0   1   -1.91    2.36
   1   0   1 3949.93   88.17
   1   0   1 3822.20   93.31
   2   0   1 1485.45   48.36
   2   0   1 1515.44   57.82
   2   0   1 1423.31   51.86
   3   0   1 1653.04   69.38
   3   0   1 1600.19   58.59
   3   0   1 1511.66   60.78
   4   0   1   10.11   12.28
   4   0   1    5.87   16.74
   4   0   1   17.48   13.73
   5   0   1  372.57   41.70
   5   0   1  362.36   34.42
   6   0   1   -8.44   18.83
   6   0   1   16.02   17.69
  -6   0  -1   51.02   25.38
  -6   0  -1  -11.03   20.94
   7   0   1  -34.62   21.55
  -7   0  -1    9.29   23.73
  -7   0  -1   20.02   27.74
  -8   0  -1   14.32   32.52
   8   0   1  -50.47   24.27
  -8   0  -1    2.06   32.09
  -7   1   1   52.54   27.59
  -7   1   1   77.28   27.99
   6  -1  -1  153.74   31.45
   6   1  -1  137.09   30.06
   6  -1  -1  132.76   32.02
   6   1  -1  170.66   38.05
   5  -1  -1  286.63   33.89
   5  -1  -1  354.13   40.71
   5   1  -1  324.11   30.38
   5  -1  -1  331.80   43.02
   5   1  -1  332.81   44.25
   4   1  -1   15.57   15.65
   4  -1  -1   21.81   15.72
   4   1  -1   23.69   12.77
   4  -1  -1   56.96   17.22
   4  -1  -1    2.32   14.01
   4   1  -1   39.76   16.30
   3   1  -1  256.18   28.52
   3  -1  -1  251.27   23.50
   3  -1  -1  277.63   29.85
   3   1  -1  271.15   26.80
   3  -1  -1  232.57   21.51
   3   1  -1  202.96   19.68
   2  -1  -1 1015.23   38.96
   2  -1  -1 1074.34   43.58
   2  -1  -1  944.99   39.51
   2   1  -1 1006.23   36.14
   2   1  -1 1045.87   40.38
   2   1  -1  965.74   42.37
   2   1  -1  910.88   40.12
   1  -1  -1 2345.27   63.29
   1   1  -1 2457.02   64.68
   1  -1  -1 2251.58   59.90
   1  -1  -1 2323.15   59.27
  -1  -1   1 2394.97   60.15
  -1   1   1 2351.36   59.62
   1   1  -1 2236.37   59.38
   0   1   1   -6.37    2.76
   0  -1   1   18.50    4.51
   0   1   1   18.64    4.44
   0  -1  -1   -7.80    3.17
   0  -1   1   -7.50    2.73
   0   1   1    2.79    3.44
   1   1   1  143.89   13.71
   1   1   1  158.05   16.38
   1  -1   1  128.23   11.66
   1  -1   1  146.13   14.69
  -1   1  -1  138.64   15.86
   2   1   1  711.73   38.31
   2  -1   1  739.73   35.50
   2   1   1  731.81   30.13
   2  -1   1  757.46   33.21
   2   1   1  719.28   33.57
   3   1   1  248.75   21.29
   3  -1   1  255.51   27.53
   3  -1   1  253.31   25.59
   3   1   1  269.96   32.64
   3   1   1  236.20   22.80
   4   1   1   98.15   22.19
   4   1   1  108.43   27.06
   4   1   1   88.27   21.39
   4  -1   1   76.17   19.69
   4  -1   1   73.69   20.63
  -5   1  -1    6.69   20.26
   5   1   1   33.06   17.02
   5  -1   1   42.68   21.86
  -5   1  -1   42.53   25.39
   5  -1   1   25.22   17.87
   5   1   1   19.14   23.60
   5   1   1   38.85   19.84
   6   1   1   46.09   23.70
   6   1   1   29.21   19.70
   6  -1   1   34.69   21.66
   6  -1   1   42.57   21.26
  -6   1  -1   79.53   28.65
  -6   1  -1   13.36   23.87
   7   1   1  -13.01   19.83
   7  -1   1  -22.08   20.42
  -7  -1  -1   41.58   26.88
  -7  -1  -1    4.88   23.44
  -7   1  -1  -19.64   22.82
  -7   1  -1   65.01   31.30
  -8  -1  -1  156.35   43.08
  -8  -1  -1   93.39   37.26
   8   1   1   63.51   31.86
   7   2  -1   96.82   40.48
  -7   2   1   73.79   27.85
   6   2  -1   54.95   30.23
   6  -2  -1   64.86   26.84
  -6  -2   1   -2.33   18.27
   6   2  -1   32.66   19.89
  -6   2   1  100.52   30.17
   5   2  -1  149.14   25.98
   5  -2  -1  173.34   33.38
  -5  -2   1  141.65   25.60
   5  -2  -1  152.34   28.59
   5  -2  -1  146.02   29.84
   5   2  -1  123.17   29.10
   4  -2  -1  202.62   26.19
   4   2  -1  185.82   31.77
   4   2  -1  157.49   22.69
   4  -2  -1  164.76   28.92
   4  -2  -1  156.67   27.51
   3  -2  -1  157.12   23.89
   3  -2  -1  140.48   20.17
   3  -2  -1  202.20   24.27
   3   2  -1  158.39   18.59
   3   2  -1  159.64   25.84
   2  -2  -1  200.12   21.87
   2   2  -1  223.95   23.50
  -2  -2   1  186.11   18.51
   2  -2  -1  163.94   16.88
   2   2  -1  193.87   22.36
   2   2  -1  197.68   15.76
   1  -2  -1 1132.79   39.19
   1   2  -1 1151.67   37.06
  -1   2   1 1162.48   36.60
  -1  -2   1 1183.28   35.65
   1   2  -1 1087.60   39.46
   1  -2   1 1983.84   55.09
   1   2   1 2017.20   54.81
   1  -2   1 1962.72   56.76
  -1   2  -1 2074.20   59.32
   2   2   1   66.35   11.45
  -2   2  -1   75.15   18.70
  -2   2  -1   60.46   16.86
   2   2   1   95.56   19.02
   2  -2   1   87.86   15.97
   2  -2   1   66.21   14.53
   2   2   1   68.86   13.76
  -3   2  -1   77.60   22.10
   3   2   1   91.83   21.82
   3  -2   1   81.15   17.87
  -3   2  -1   96.72   21.35
   3   2   1   86.14   15.12
   3   2   1   91.94   18.53
   3  -2   1  113.41   19.88
   4   2   1   93.44   25.34
  -4   2  -1   53.26   22.94
   4  -2   1  101.51   22.15
  -4   2  -1  101.97   28.68
   4  -2   1   73.12   22.25
   4   2   1   54.03   17.23
   4   2   1  116.71   23.46
  -5   2  -1  493.95   55.07
   5   2   1  462.53   55.78
   5   2   1  449.14   39.93
   5  -2   1  414.85   39.28
   5  -2   1  428.79   38.83
  -5   2  -1  438.14   48.59
   5   2   1  502.92   37.29
   6  -2   1   90.26   26.58
   6   2   1   21.88   23.77
  -6   2  -1   84.05   27.98
  -6   2  -1   34.84   27.25
   6  -2   1   46.28   23.50
  -7  -2  -1   39.92   29.11
  -7  -2  -1   47.60   29.91
   7   2   1   29.07   25.14
   7  -2   1   14.11   24.62
  -7   2  -1  -17.64   24.60
  -7   2  -1   -6.01   22.68
  -8  -2  -1  135.24   38.07
  -8  -2  -1    5.49   29.86
  -7   3   1    2.53   22.37
   7  -3  -1   36.36   27.25
   7   3  -1  -37.47   27.89
   6  -3  -1  362.83   48.48
  -6   3   1  494.30   48.05
  -6   3   1  417.06   52.64
   6   3  -1  555.87   62.72
   6   3  -1  460.97   39.92
  -6  -3   1  410.42   43.73
  -6   3   1  428.80   48.77
   5  -3  -1  348.09   43.42
   5   3  -1  267.12   42.79
  -5  -3   1  298.62   28.99
   5   3  -1  329.23   34.58
   4   3  -1  267.67   24.41
   4  -3  -1  324.63   31.10
  -4  -3   1  294.55   26.19
   4   3  -1  344.00   40.08
   4  -3  -1  330.83   37.26
   3   3  -1  230.26   28.58
   3   3  -1  194.87   17.82
   3  -3  -1  203.55   20.98
   3   3  -1  241.38   29.76
  -3  -3   1  193.12   21.38
   3  -3  -1  218.91   27.22
   2  -3  -1  184.95   22.49
   2   3  -1  210.32   24.66
   2  -3  -1  178.55   16.85
   2   3  -1  195.47   15.33
   2   3  -1  243.05   24.72
  -2   3   1  193.27   22.48
  -2  -3   1  181.65   16.81
   1   3  -1 2510.72   71.83
  -1  -3   1 2591.61   63.39
  -1   3   1 2418.15   66.79
   1   3  -1 2468.81   65.99
   1  -3  -1 2516.25   69.57
   0  -3  -1   83.28    9.32
   0   3  -1  103.41   11.34
   0   3   1   82.67    9.46
   0   3   1  108.86   10.82
   0   3  -1   75.41    8.83
   0  -3  -1  125.09   12.09
   1  -3   1  686.24   29.26
   1   3   1  621.24   25.85
  -1   3  -1  704.06   29.93
   1  -3   1  619.25   27.85
  -2   3  -1  608.05   34.73
   2  -3   1  643.08   32.78
   2   3   1  608.10   36.86
   2  -3   1  622.90   33.59
   2   3   1  569.19   29.87
  -3   3  -1  160.01   25.18
   3  -3   1  191.41   25.15
   3  -3   1  162.88   23.24
   3   3   1  145.98   27.08
  -3   3  -1  155.10   26.84
   3   3   1  168.84   22.70
   3   3   1  170.06   18.38
  -4   3  -1  101.10   26.87
   4  -3   1  112.78   24.01
   4   3   1   89.37   18.58
   4   3   1  118.78   27.14
   4  -3   1  104.84   22.30
   4   3   1  115.55   18.91
  -4   3  -1  127.99   26.07
   5   3   1  258.13   45.46
  -5   3  -1  208.36   40.17
   5  -3   1  165.08   31.94
   5  -3   1  233.64   34.68
   5   3   1  240.04   28.99
   5   3   1  244.33   34.43
  -5   3  -1  233.57   38.73
   6  -3   1   67.96   28.23
   6   3   1   70.76   27.04
   6  -3   1   39.90   25.65
   6   3   1   60.40   36.01
  -6   3  -1   83.50   31.74
  -6   3  -1   95.94   29.39
   7   3   1  103.17   32.20
  -7   3  -1   42.02   31.51
   7  -3   1   95.13   30.85
   7  -3   1   62.15   29.76
  -8  -3  -1  105.12   36.24
  -8  -3  -1   54.75   33.79
  -7   4   1  131.03   36.31
   7  -4  -1   99.77   32.85
   7   4  -1  119.21   40.77
  -6  -4   1  105.91   24.01
   6   4  -1  116.34   28.18
  -6   4   1   43.15   22.60
   6  -4  -1   67.18   25.71
  -6   4   1  112.40   30.55
  -6   4   1  129.54   33.33
   6   4  -1  108.72   33.20
  -5   4   1  156.14   36.31
   5   4  -1  174.61   37.44
  -5   4   1  212.54   35.56
  -5   4   1  209.52   31.31
   5  -4  -1  140.67   30.75
  -5  -4   1  215.69   28.62
   5   4  -1  200.65   28.22
  -4  -4   1  188.91   24.20
  -4   4   1  162.50   32.23
   4  -4  -1  209.12   31.25
   4   4  -1  207.06   33.40
  -4   4   1  178.53   29.95
   4   4  -1  156.55   21.51
  -3   4   1   -5.28   13.62
   3  -4  -1    8.00   13.50
   3   4  -1   28.09   15.33
   3   4  -1    6.80    8.01
  -3   4   1    3.83   12.79
  -3  -4   1    1.77    9.75
   3   4  -1   11.51   12.13
  -2   4   1  126.67   19.81
  -2  -4   1  105.34   14.24
  -2   4   1  116.45   15.35
   2   4  -1  111.29   12.74
   2   4  -1  115.65   20.45
   2   4  -1  129.01   20.76
   2  -4  -1   61.30   16.49
   1  -4  -1  110.88   15.17
  -1  -4   1  153.47   13.33
   1   4  -1  173.70   18.94
   0   4  -1  123.74   15.36
   0  -4  -1   94.26   11.08
   0  -4  -1  122.71   14.45
   0   4   1   99.41   10.85
   0   4   1  135.67   14.08
   0   4  -1   99.03   11.21
   1   4   1 2538.07   65.35
   1  -4   1 2488.88   68.54
  -1   4  -1 2533.34   69.45
   1  -4   1 2116.50   66.90
   2   4   1  963.32   46.99
   2  -4   1  875.45   41.42
   2   4   1  939.36   38.06
  -2   4  -1  924.71   42.68
   2  -4   1  978.40   42.62
  -2  -4  -1  900.39   39.81
   3   4   1  186.21   29.45
   3  -4   1  169.03   24.32
   3  -4   1  167.61   24.26
  -3   4  -1  170.04   26.57
   3   4   1  183.28   23.56
   4   4   1   68.04   21.70
  -4   4  -1   70.05   21.63
   4  -4   1   34.07   16.28
   4  -4   1   41.82   17.50
  -4   4  -1   41.39   22.50
   4   4   1   56.24   18.32
   5   4   1  440.97   55.54
   5  -4   1  342.68   41.45
  -5   4  -1  431.22   50.56
  -5   4  -1  315.32   43.22
   5  -4   1  364.69   41.97
   5   4   1  369.87   35.70
   6   4   1   20.89   29.43
   6   4   1    8.52   18.79
   6  -4   1  -20.72   18.38
   6  -4   1   28.15   19.77
  -6   4  -1    0.16   23.11
  -7   4  -1   18.51   28.81
   7  -4   1   57.07   25.42
   7   4   1    2.71   23.87
  -7   5   1  146.97   35.81
   7   5  -1   54.20   39.65
   7  -5  -1  118.73   35.36
   6   5  -1  537.76   44.24
  -6   5   1  462.53   48.02
  -6   5   1  582.82   51.70
  -6   5   1  502.16   49.11
   6  -5  -1  490.91   48.76
   6   5  -1  503.26   52.06
   5   5  -1   33.82   15.79
   5  -5  -1   21.72   19.90
  -5   5   1   29.75   20.49
  -5   5   1   35.17   24.43
  -5   5   1   50.04   22.34
   5   5  -1   82.56   27.33
  -5  -5   1   78.84   19.78
   4   5  -1  122.14   27.75
   4   5  -1  129.21   19.91
  -4  -5   1  140.49   21.14
   4  -5  -1  133.93   28.15
  -4   5   1  115.94   28.46
  -4   5   1  102.06   23.35
  -3   5   1   18.55   15.65
   3  -5  -1   11.18   12.00
  -3   5   1    4.99   10.64
   3   5  -1   21.92   13.16
  -3  -5   1   -4.60    8.47
   3   5  -1    6.07    7.79
   2   5  -1  398.33   30.84
   2   5  -1  438.63   21.12
   2  -5  -1  382.33   30.34
  -2  -5   1  433.92   23.85
  -1   5   1  998.86   39.47
  -1  -5   1  986.68   33.50
  -1  -5   1 1016.36   38.59
   1   5  -1  966.59   41.52
   0  -5  -1  105.40   12.25
   0   5   1  132.44   15.37
   0   5   1  105.99   12.76
   0  -5   1  118.41   12.59
   0   5  -1  135.68   14.36
   0  -5  -1  157.30   16.78
   0   5  -1  107.59   16.85
  -1   5  -1  464.39   29.12
   1  -5   1  418.56   25.05
   1   5   1  395.37   26.88
   1   5   1  439.45   23.18
  -1  -5  -1  444.35   24.44
   2   5   1  301.70   22.30
   2  -5   1  328.41   25.77
   2   5   1  327.79   28.99
  -2   5  -1  324.76   26.57
   2  -5   1  289.25   24.63
  -3  -5  -1  305.27   27.80
  -3   5  -1  371.15   32.28
   3  -5   1  367.25   30.11
   3  -5   1  367.02   29.72
   3   5   1  375.10   33.51
   3   5   1  380.82   26.74
   4   5   1  371.92   45.75
  -4   5  -1  363.18   36.43
   4  -5   1  352.47   33.08
   4   5   1  321.53   28.90
   4  -5   1  369.35   39.61
  -5  -5  -1    2.71   13.13
  -5   5  -1   -8.05   19.17
   5   5   1    0.77   21.67
   5  -5   1   -3.15   15.90
   5  -5   1   24.50   19.13
   5   5   1   -9.62   17.50
   6  -5   1  300.44   45.53
   6   5   1  326.81   41.97
   6  -5   1  323.59   45.18
   6   5   1  346.33   55.78
  -6   5  -1  379.53   53.05
   7   5   1    7.28   37.34
   7   5   1    5.35   22.46
   7  -5   1   31.31   26.89
  -7   6   1  206.55   43.56
   7  -6  -1  107.04   36.48
   7   6  -1  130.95   45.13
   6   6  -1  145.10   38.76
   6  -6  -1  133.97   34.80
   6   6  -1  113.78   29.58
  -6   6   1  155.00   38.87
  -5  -6   1  340.76   47.26
   5  -6  -1  452.59   49.92
  -5   6   1  427.38   48.23
  -5  -6   1  344.11   34.71
   5   6  -1  359.97   31.56
  -5   6   1  389.81   39.25
   5   6  -1  416.53   52.04
  -4  -6   1   21.86   15.37
   4  -6  -1   85.96   23.36
  -4  -6   1   88.41   17.68
   4   6  -1  120.49   18.91
  -4   6   1   93.18   21.81
   4   6  -1   66.54   25.92
  -4   6   1   47.39   23.58
  -3   6   1  146.67   24.00
  -3   6   1  120.53   18.67
   3   6  -1  104.53   16.04
  -3  -6   1  129.36   17.74
  -3  -6   1  103.30   23.54
   3   6  -1  118.04   26.49
   3  -6  -1  125.89   24.67
  -2  -6   1  384.11   29.38
   2   6  -1  355.73   20.02
   2  -6  -1  383.68   31.38
   2   6  -1  368.62   31.06
  -2  -6   1  401.74   22.61
   1   6  -1 2087.84   53.72
  -1   6   1 1969.97   63.86
  -1  -6   1 2053.17   61.42
  -1  -6   1 2047.00   55.64
   0   6  -1   15.72    9.95
   0   6  -1   -2.94   11.44
   0  -6  -1    6.78    6.94
   0  -6   1    5.36    8.35
   0  -6  -1   15.11   12.10
   0   6   1   11.74   10.75
   0   6   1    7.68    7.60
   1   6   1  143.20   17.57
   1   6   1  159.01   21.29
   1  -6   1  181.47   20.15
  -1   6  -1  159.87   21.30
  -1  -6  -1  189.29   20.72
  -1   6  -1  199.64   25.82
  -2   6  -1  194.13   23.97
   2   6   1  206.08   20.32
   2  -6   1  225.10   25.70
   2  -6   1  188.43   24.16
   2   6   1  184.68   26.75
   3   6   1  433.27   36.94
  -3   6  -1  491.22   36.43
  -3  -6  -1  437.26   32.97
   3  -6   1  552.98   36.62
   3   6   1  474.02   30.92
   3  -6   1  527.26   36.14
   4  -6   1  255.57   34.80
   4   6   1  255.82   39.71
   4   6   1  278.62   31.21
  -4   6  -1  260.35   36.54
   4  -6   1  251.13   33.16
   5   6   1  237.29   32.76
  -5   6  -1  212.35   37.65
   5  -6   1  309.09   42.09
   5   6   1  186.14   39.79
   5  -6   1  178.77   33.99
  -6   6  -1   85.00   32.27
   6  -6   1   86.81   29.71
   6   6   1   83.26   33.24
   6   6   1  145.16   32.39
  -7   6  -1  166.32   39.36
   7   6   1  174.95   37.17
   7  -6   1  132.20   39.92
   7   6   1  127.87   44.37
  -7   7   1   64.08   34.24
   7  -7  -1   41.77   30.64
   7   7  -1   15.77   29.13
   6  -7  -1   52.74   26.32
   6   7  -1   16.54   24.94
  -6   7   1   42.44   28.38
  -5  -7   1  150.82   23.99
  -5   7   1  187.55   36.70
   5   7  -1  143.32   35.74
   5   7  -1  206.45   28.87
  -5   7   1  193.62   33.77
   5  -7  -1  117.72   31.02
  -4   7   1   -2.12   17.60
  -4  -7   1  -22.53   16.16
   4  -7  -1    6.06   13.96
   4   7  -1  -11.15   14.95
  -4  -7   1    9.33   12.10
  -4   7   1   11.42   14.88
   4   7  -1    1.68   10.61
   3  -7  -1  476.24   37.51
  -3  -7   1  432.29   34.56
  -3   7   1  452.76   29.62
  -3  -7   1  447.35   26.58
   3   7  -1  445.04   25.54
   3   7  -1  426.91   36.51
  -2  -7   1  276.20   18.69
  -2   7   1  280.36   26.90
  -2  -7   1  308.60   29.61
   2   7  -1  259.64   26.48
   2  -7  -1  262.03   28.53
   2   7  -1  256.61   17.20
  -1  -7   1  164.95   15.88
   1   7  -1  146.68   15.27
  -1  -7   1  208.12   23.08
  -1   7   1  186.91   23.22
   0   7  -1   28.08   12.17
   0  -7   1   26.75   10.55
   0  -7  -1   33.55   14.03
   0   7   1   21.00   12.80
   0   7   1   17.53   10.68
   0   7  -1   18.72   13.68
   0  -7  -1   15.60    9.12
  -1  -7  -1  452.50   28.65
  -1   7  -1  473.54   32.66
   1   7   1  458.15   29.81
   1   7   1  452.02   25.96
   1  -7   1  464.94   29.44
  -1   7  -1  459.95   30.22
   2   7   1  295.19   27.47
  -2  -7  -1  341.65   26.73
  -2   7  -1  365.10   29.15
  -2   7  -1  357.08   31.56
   2   7   1  369.96   24.16
   2  -7   1  370.89   28.72
   3   7   1   22.81   13.03
   3  -7   1   40.46   14.05
   3   7   1   67.46   19.82
  -3   7  -1   31.51   19.36
  -3  -7  -1    4.42    8.31
  -4   7  -1  413.57   39.73
   4   7   1  447.95   50.75
   4  -7   1  421.59   37.49
   4   7   1  424.06   32.70
   5   7   1  222.67   31.85
   5   7   1  232.98   45.82
   5  -7   1  199.56   35.52
  -5   7  -1  181.17   35.81
   6   7   1   65.09   30.60
   6   7   1   75.62   26.69
  -6   7  -1   49.81   21.40
   6  -7   1  119.19   31.02
  -6   7  -1   41.77   28.09
   7  -7   1  106.02   35.30
   7   7   1  103.13   41.48
  -7   7  -1   46.62   30.51
   7  -8  -1  247.71   47.40
   7   8  -1  261.53   57.12
  -7   8   1  243.88   50.91
   6  -8  -1   90.08   29.10
  -6   8   1   71.42   32.52
   6   8  -1  125.40   38.55
  -5  -8   1  188.85   37.62
   5   8  -1  305.49   32.45
   5  -8  -1  292.29   42.41
  -5   8   1  256.35   36.79
   5   8  -1  265.02   44.39
  -5   8   1  297.11   44.16
   4   8  -1   29.07   12.27
  -4   8   1   14.69   18.02
  -4  -8   1   40.90   12.98
  -4   8   1   -7.37   12.27
  -4  -8   1   64.73   25.03
   4   8  -1   34.30   20.23
   4  -8  -1   32.55   18.64
   3  -8  -1   81.48   21.82
   3   8  -1  119.08   26.66
  -3  -8   1   76.83   21.52
   3   8  -1   83.97   14.57
  -3   8   1   74.36   21.53
  -3  -8   1   84.36   15.42
  -2   8   1  319.12   31.94
  -2  -8   1  279.41   19.45
   2  -8  -1  288.57   28.15
   2   8  -1  284.77   18.78
  -2  -8   1  289.00   27.46
   2   8  -1  299.30   27.51
   1  -8  -1  474.00   30.69
  -1  -8   1  631.76   28.17
  -1   8   1  569.21   34.66
   1   8  -1  695.61   28.63
  -1  -8   1  698.15   35.01
   0   8  -1  966.99   38.19
   0  -8  -1  940.97   37.47
   0  -8   1  875.30   36.76
   0   8  -1  916.67   42.15
   0   8   1  858.46   37.81
   0  -8  -1  958.10   38.89
   0   8   1  909.81   39.10
   1   8   1  193.92   19.26
  -1   8  -1  231.24   27.60
   1   8   1  205.30   24.64
  -1   8  -1  199.72   23.72
  -1  -8  -1  253.30   25.19
   1  -8   1  209.83   23.63
  -2   8  -1  102.63   22.61
  -2   8  -1  157.32   25.62
  -2  -8  -1  169.62   23.14
   2   8   1  156.17   19.43
   2  -8   1  187.05   25.04
   3  -8   1  263.02   32.26
  -3   8  -1  265.81   31.68
   3   8   1  236.21   34.98
   3   8   1  261.80   26.78
  -3   8  -1  218.63   34.01
  -3  -8  -1  217.42   28.12
   4   8   1   49.64   22.52
   4   8   1   70.45   17.98
   4  -8   1   24.59   18.02
  -4   8  -1    9.24   26.09
  -4   8  -1   65.52   26.54
   5   8   1  272.59   47.44
  -5   8  -1  208.45   38.99
   5  -8   1  261.08   40.04
  -5   8  -1  191.88   44.12
   5   8   1  251.97   34.78
   6   8   1   32.46   26.76
  -6   8  -1   28.74   30.42
   6   8   1   34.32   23.92
  -6   8  -1  -16.81   16.26
   6  -8   1   49.18   26.53
   7  -8   1   42.84   27.76
   7   8   1   45.07   38.67
  -7   8  -1   93.34   34.95
  -7   9   1   61.81   32.25
   7  -9  -1   49.12   32.41
   7   9  -1   55.27   35.65
  -6   9   1   22.20   26.55
   6  -9  -1   52.98   28.56
   6   9  -1    9.48   25.18
   5   9  -1   80.17   29.09
   5   9  -1  123.59   23.29
  -5   9   1   61.25   26.74
   5  -9  -1   78.42   26.34
  -4   9   1  215.49   30.97
   4   9  -1  232.17   39.83
   4   9  -1  299.50   25.00
  -4  -9   1  261.60   22.90
   4  -9  -1  232.50   35.32
  -4  -9   1  239.97   37.28
  -3  -9   1  496.97   37.87
  -3   9   1  431.26   36.79
  -3  -9   1  436.42   26.40
   3  -9  -1  445.66   38.52
   3   9  -1  476.12   26.70
   3   9  -1  416.93   38.02
  -2  -9   1   50.73   19.74
   2   9  -1   43.14    9.96
   2  -9  -1   62.77   18.04
  -2   9   1   43.01   17.72
   2   9  -1   56.09   17.38
  -2  -9   1   46.49   11.43
  -1  -9   1  409.66   23.83
   1   9  -1  361.19   29.51
   1   9  -1  429.94   24.39
  -1   9   1  412.46   31.58
   1  -9  -1  367.28   28.26
  -1  -9   1  431.83   29.33
   0   9  -1  555.87   33.18
   0   9   1  595.80   32.42
   0   9  -1  595.95   31.68
   0   9   1  526.13   29.27
   0  -9   1  513.71   29.05
   0  -9  -1  545.67   30.34
   0  -9  -1  541.87   28.82
   1  -9   1   76.82   17.48
   1   9   1   72.60   15.03
  -1   9  -1   38.08   18.21
  -1   9  -1   88.58   19.79
  -1  -9  -1   73.47   18.76
   1   9   1   58.54   16.11
  -2   9  -1  212.24   28.89
   2  -9   1  268.86   29.31
   2   9   1  207.35   20.83
  -2   9  -1  234.72   28.97
  -2  -9  -1  230.95   27.27
  -3   9  -1  273.49   34.06
   3   9   1  281.39   39.32
  -3  -9  -1  301.46   34.03
  -3   9  -1  257.91   34.79
   3   9   1  252.69   24.45
   3  -9   1  333.72   35.90
   4   9   1  130.93   33.57
   4  -9   1  122.10   27.41
  -4   9  -1  109.37   31.96
  -4   9  -1  119.55   31.41
   4   9   1  159.71   24.58
  -5   9  -1   33.79   25.97
   5   9   1    8.61   22.84
  -5   9  -1   -5.24   23.22
   5  -9   1   48.95   23.34
   5   9   1   11.53   18.06
   6  -9   1  221.32   44.81
   6   9   1  208.29   37.08
  -6   9  -1  134.91   36.73
   6   9   1  175.79   45.63
  -7   9  -1   24.45   24.40
   7  -9   1   -4.95   27.74
   7   9   1  -41.28   27.44
  -7  10   1    7.43   30.80
   7  10  -1   73.95   41.85
   7 -10  -1   65.40   36.03
   6  10  -1    0.12   27.33
   6 -10  -1   66.07   27.67
  -6  10   1   17.37   28.08
   5  10  -1  277.64   31.40
  -5 -10   1  264.68   46.35
   5 -10  -1  297.19   44.58
   5  10  -1  261.00   46.94
   4 -10  -1  252.39   38.54
   4  10  -1  259.60   42.68
  -4 -10   1  298.76   41.91
  -4 -10   1  259.61   23.19
  -4  10   1  293.73   39.32
   4  10  -1  252.20   23.64
  -3 -10   1  497.73   28.75
   3  10  -1  544.52   30.18
   3  10  -1  533.78   43.84
  -3 -10   1  539.28   41.37
  -3  10   1  556.43   43.32
   3 -10  -1  541.60   43.16
   2  10  -1   62.97   17.75
  -2  10   1   36.98   19.10
   2  10  -1   72.57   12.25
  -2 -10   1   76.00   13.86
   2 -10  -1   81.72   20.57
  -2 -10   1   62.80   21.30
   1 -10  -1 1126.15   51.02
  -1 -10   1 1162.47   43.98
  -1  10   1 1129.27   41.49
   1  10  -1 1150.06   54.69
  -1  10   1 1174.62   52.59
   0 -10  -1  667.91   34.42
   0  10  -1  713.86   35.94
   0 -10   1  730.09   35.27
   0  10   1  817.27   39.39
   0  10   1  708.21   36.06
   0 -10  -1  756.41   36.54
   0  10  -1  712.17   39.12
   1 -10   1  214.56   24.42
   1  10   1  189.14   25.68
   1  10   1  192.02   22.69
  -1  10  -1  206.12   26.75
  -1 -10  -1  243.70   27.46
  -1  10  -1  203.33   26.11
  -2  10  -1  374.67   35.28
  -2  10  -1  413.59   34.38
   2 -10   1  456.62   34.80
   2  10   1  416.98   28.41
  -2 -10  -1  478.54   32.88
  -3 -10  -1  355.40   32.39
   3 -10   1  375.63   33.78
  -3  10  -1  348.44   40.62
   3  10   1  374.25   28.42
   3  10   1  428.83   39.21
  -3  10  -1  407.30   42.84
   4 -10   1  561.72   46.36
  -4 -10  -1  538.14   44.32
  -4  10  -1  579.40   47.93
   4  10   1  569.52   49.11
   4  10   1  625.97   39.73
  -4  10  -1  519.72   48.58
  -5  10  -1  -13.66   24.10
   5  10   1   12.72   18.59
   5  10   1   12.50   20.46
  -5 -10  -1   34.85   21.15
  -5  10  -1   14.65   25.03
   5 -10   1    9.41   18.67
  -6  10  -1   62.71   33.41
   6  10   1   82.38   33.97
   6 -10   1   58.02   27.27
   6  10   1   98.48   29.35
  -7  10  -1    5.67   25.66
   7  10   1   44.52   35.00
   7 -10   1   46.63   33.55
   7 -11  -1  102.29   39.61
  -7  11   1  118.40   43.16
   7  11  -1   91.06   41.98
   6  11  -1   76.65   33.98
  -6 -11   1  121.06   39.71
   6 -11  -1   87.54   32.36
  -6  11   1  -18.03   22.70
  -5  11   1   54.42   25.81
   5  11  -1  104.32   34.24
   5 -11  -1  118.11   31.18
   4  11  -1  165.66   21.50
   4 -11  -1  159.94   31.98
  -4 -11   1  153.91   20.44
   4  11  -1  134.82   34.65
  -4 -11   1  116.34   30.62
  -4  11   1  196.60   35.72
   3  11  -1  154.51   33.06
  -3 -11   1  174.31   19.42
  -3 -11   1  151.77   31.10
  -3  11   1  193.77   32.78
   3 -11  -1  170.30   30.21
   3  11  -1  141.53   19.35
  -2  11   1  523.41   40.51
   2  11  -1  496.00   28.36
  -2 -11   1  524.71   29.06
   2  11  -1  501.44   39.50
  -2 -11   1  570.06   38.60
   2 -11  -1  554.02   39.92
  -1  11   1  596.17   30.24
   1  11  -1  652.94   40.58
   1 -11  -1  621.66   38.03
  -1  11   1  621.43   39.95
   1  11  -1  662.72   33.68
  -1 -11   1  621.05   32.60
   0  11   1  191.82   23.22
   0  11  -1  182.42   24.57
   0  11  -1  152.05   22.41
   0 -11  -1  201.64   22.06
   0 -11   1  185.91   22.36
   0 -11  -1  188.12   24.45
   0  11   1  188.79   24.21
  -1 -11  -1  112.30   21.32
   1  11   1   83.23   19.27
  -1  11  -1  122.61   23.24
   1  11   1  109.81   20.25
  -1  11  -1  107.66   21.59
  -1 -11  -1  115.40   14.59
  -2 -11  -1  133.04   23.89
  -2  11  -1  104.16   24.43
  -2  11  -1   86.37   25.71
   2  11   1  115.12   20.29
   2 -11   1  152.34   25.90
   2  11   1  122.06   25.67
  -3  11  -1  186.67   33.65
  -3 -11  -1  262.87   34.99
   3  11   1  281.15   29.88
   3  11   1  232.64   37.25
   3 -11   1  265.08   35.00
  -3  11  -1  265.10   36.55
  -4  11  -1  267.02   41.27
  -4  11  -1  310.21   44.34
  -4 -11  -1  356.50   44.22
   4 -11   1  262.46   38.73
   4  11   1  280.83   32.79
   4  11   1  318.57   46.75
  -5  11  -1  255.55   43.62
   5 -11   1  313.78   47.00
  -5  11  -1  384.89   52.60
   5  11   1  414.43   43.35
   5  11   1  336.22   53.40
   6 -11   1  175.57   41.66
  -6  11  -1  156.24   41.82
   6  11   1  163.42   42.89
   7 -11   1   69.11   35.51
  -7  11  -1   91.35   40.31
   7  11   1  -18.15   32.09
   7  12  -1   70.45   36.77
   7 -12  -1   87.25   36.34
  -7  12   1  114.90   42.00
   6 -12  -1   70.41   31.19
  -6  12   1    9.20   21.07
   6  12  -1   25.89   27.97
   5  12  -1  100.63   32.85
   5 -12  -1  120.72   33.70
  -5 -12   1   97.08   37.31
  -5  12   1  121.39   36.68
  -4 -12   1  119.37   32.63
   4  12  -1  150.20   23.34
  -4  12   1  200.23   37.90
   4 -12  -1  232.91   36.97
   4  12  -1  196.87   39.13
   3  12  -1  182.56   22.03
  -3 -12   1  202.93   21.68
  -3  12   1  179.62   33.46
   3  12  -1  301.19   42.15
  -3 -12   1  189.90   34.27
   3 -12  -1  209.74   33.55
  -2 -12   1  107.37   16.85
  -2 -12   1   74.41   23.46
   2  12  -1  106.97   24.65
   2 -12  -1   85.84   21.78
   2  12  -1   93.39   15.96
  -2  12   1   99.89   25.66
   1  12  -1  265.09   23.53
   1  12  -1  273.12   32.44
  -1  12   1  248.95   21.07
   1 -12  -1  242.26   29.15
  -1  12   1  272.96   31.98
  -1 -12   1  257.29   22.26
   0  12  -1  573.47   36.67
   0 -12  -1  555.59   33.30
   0  12   1  592.93   35.15
   0  12  -1  596.48   35.89
   0 -12   1  588.23   34.22
   0  12   1  583.70   37.07
   1  12   1   21.61   12.10
   1  12   1   32.37   15.32
  -1 -12  -1   21.93    9.75
  -1  12  -1   15.21   15.46
  -1 -12  -1    9.05   13.73
   1 -12   1    4.81    6.61
  -1  12  -1   10.70   14.02
  -2 -12  -1  115.60   22.95
  -2  12  -1  135.02   27.84
   2  12   1   81.62   22.20
   2  12   1  118.53   20.90
   2 -12   1  114.50   23.55
  -2  12  -1  117.17   28.14
   3  12   1  898.18   58.67
  -3  12  -1  753.94   52.44
  -3  12  -1  682.79   50.00
   3  12   1  836.29   43.99
  -3 -12  -1  785.96   51.29
   3 -12   1  848.35   54.27
  -4 -12  -1  182.33   37.30
   4 -12   1  165.11   32.78
  -4  12  -1  177.01   37.21
   4  12   1  216.96   28.54
  -4  12  -1  197.85   38.71
   4  12   1  175.00   37.01
  -5  12  -1  130.26   35.81
   5 -12   1   68.80   26.21
   5  12   1   83.65   30.42
   5  12   1  128.93   28.08
  -6  12  -1  105.85   37.66
   6 -12   1  113.45   37.85
   6  12   1   94.87   38.97
   7 -12   1   18.49   32.53
  -7  12  -1   30.30   34.88
   7  12   1    8.41   31.37
  -7  13   1  -14.36   30.49
   7 -13  -1   -2.21   29.91
   7  13  -1   55.07   35.95
   6 -13  -1   49.40   30.51
   6  13  -1   81.95   35.07
  -6  13   1   77.29   36.45
   5 -13  -1   23.94   21.70
  -5  13   1   79.39   35.03
  -5 -13   1   46.98   29.91
   5  13  -1   27.20   25.70
  -4  13   1  160.16   37.41
  -4 -13   1  185.40   36.65
   4 -13  -1  157.97   34.31
   4  13  -1  179.65   24.33
   4  13  -1  192.19   39.16
  -3 -13   1    3.41   12.41
  -3  13   1   37.26   23.01
   3  13  -1    5.70   10.91
   3  13  -1   15.87   15.96
   3 -13  -1    0.94   14.38
  -3 -13   1   13.21   16.12
  -2 -13   1  310.65   24.60
   2 -13  -1  337.73   32.34
  -2 -13   1  352.68   37.47
   2  13  -1  280.23   23.79
  -2  13   1  359.81   39.04
   1 -13  -1  276.46   31.09
   1  13  -1  207.77   25.12
  -1  13   1  229.72   20.96
  -1 -13   1  287.08   23.35
  -1  13   1  296.33   34.28
   1  13  -1  284.24   34.25
   0  13  -1  256.43   29.54
   0 -13   1  240.44   26.39
   0  13   1  193.55   28.22
   0  13   1  247.41   27.43
   0  13  -1  265.87   30.79
   0 -13  -1  234.33   25.10
  -1  13  -1  274.99   30.35
   1  13   1  248.18   31.71
   1  13   1  253.88   28.57
  -1  13  -1  299.94   32.97
  -1 -13  -1  228.82   19.71
  -1 -13  -1  250.54   30.20
  -2  13  -1  140.71   28.30
   2 -13   1  177.09   29.78
   2  13   1  165.91   30.52
  -2 -13  -1  166.52   28.25
  -2  13  -1  140.44   29.51
   2  13   1  170.22   24.51
  -3  13  -1  214.53   36.91
   3  13   1  255.53   41.06
   3  13   1  279.17   30.33
   3 -13   1  252.16   36.45
  -3 -13  -1  245.02   37.56
  -3  13  -1  245.13   36.84
  -4  13  -1   46.22   26.87
   4 -13   1   31.99   16.80
   4  13   1   28.14   21.35
  -4  13  -1   11.24   28.00
   4  13   1   28.74   18.22
  -4 -13  -1   21.61   23.07
   5  13   1   38.94   23.54
   5 -13   1   24.13   21.30
  -5  13  -1   19.58   27.88
   5  13   1   31.42   23.23
   6  13   1  -42.09   23.06
  -6  13  -1   26.83   31.33
   6 -13   1   10.28   25.44
  -7  13  -1   16.93   34.04
   7 -13   1   29.25   33.48
   7  13   1  -54.95   28.52
   7 -14  -1   -3.28   32.15
  -7  14   1   18.55   29.87
   7  14  -1   16.81   31.66
   6 -14  -1   41.28   27.31
  -6  14   1   21.09   33.29
   6  14  -1   50.89   32.22
   5  14  -1    6.19   21.61
  -5  14   1   28.87   30.33
  -5 -14   1   59.11   30.27
   5 -14  -1   34.24   21.99
  -4 -14   1  262.84   43.56
   4  14  -1  302.88   50.58
  -4  14   1  292.89   45.01
   4 -14  -1  308.28   44.41
  -3 -14   1  613.81   47.91
  -3  14   1  720.05   55.48
   3 -14  -1  775.24   53.95
  -3 -14   1  706.51   36.25
   3  14  -1  590.04   35.40
   3  14  -1  659.37   54.15
  -2 -14   1  305.84   25.07
   2 -14  -1  330.81   37.16
  -2 -14   1  292.38   35.83
  -2  14   1  346.82   40.29
   2  14  -1  253.26   24.43
   1  14  -1   32.03   16.36
  -1  14   1   23.63   21.73
  -1 -14   1   53.79   15.18
  -1  14   1   18.23   11.32
   1 -14  -1   40.69   15.68
   1  14  -1   44.42   16.49
   0  14  -1   67.24   21.28
   0  14  -1   66.71   21.27
   0  14   1   63.01   17.64
   0 -14   1   59.90   17.38
   0  14   1   63.20   21.90
   0 -14  -1   72.40   17.81
   1  14   1  252.42   30.31
  -1 -14  -1  284.97   22.37
  -1  14  -1  293.82   31.97
  -1 -14  -1  290.31   32.28
  -1  14  -1  257.96   33.15
   1  14   1  326.61   36.31
  -2  14  -1  120.52   27.85
   2  14   1   89.30   20.57
   2  14   1   87.75   24.16
   2 -14   1  150.61   27.94
  -2 -14  -1  156.15   29.91
  -2  14  -1   93.53   27.12
  -3  14  -1  271.61   37.40
   3  14   1  258.30   41.87
  -3  14  -1  287.87   41.56
   3  14   1  300.34   29.80
  -3 -14  -1  312.21   41.23
   3 -14   1  289.40   39.45
   4  14   1  274.63   34.76
  -4  14  -1  252.94   42.77
  -4  14  -1  207.10   37.44
   4  14   1  276.31   48.20
  -4 -14  -1  182.30   37.21
   4 -14   1  214.53   38.57
  -5  14  -1   80.01   33.52
   5  14   1   70.51   30.74
   5 -14   1   85.83   30.11
   5  14   1   83.89   26.50
  -5 -14  -1   33.08   28.99
   6 -14   1  112.70   35.85
  -6  14  -1   55.64   37.95
   6  14   1   57.05   33.20
  -7  14  -1   55.63   35.14
   7 -14   1   54.91   35.50
   7  14   1  -12.64   28.93
   7 -15  -1   67.27   33.60
  -7  15   1  161.80   47.25
   7  15  -1   25.16   36.68
  -6  15   1  109.11   40.99
   6 -15  -1   79.89   32.47
   6  15  -1   50.97   31.62
  -6 -15   1  142.09   45.83
   5  15  -1   18.46   24.96
  -5  15   1   55.81   30.94
   5 -15  -1   13.70   24.64
  -5 -15   1  105.29   35.81
   4 -15  -1   33.02   20.35
  -4 -15   1   31.88   24.63
  -4  15   1    9.52   25.09
   4  15  -1   -9.45   19.72
  -3 -15   1  278.71   24.88
  -3  15   1  279.50   42.20
   3 -15  -1  236.89   37.21
   3  15  -1  270.40   25.98
   3  15  -1  281.27   45.26
  -3 -15   1  241.39   38.20
  -2 -15   1  256.67   35.86
   2  15  -1  225.70   26.99
  -2  15   1  293.65   39.18
  -2 -15   1  263.89   27.08
  -1  15   1  455.03   41.06
   1  15  -1  455.61   38.84
  -1 -15   1  470.11   32.14
   1  15  -1  428.53   33.72
  -1  15   1  459.10   30.73
   1 -15  -1  451.92   36.74
   0  15   1  150.25   23.78
   0 -15  -1  128.30   22.50
   0 -15   1  161.84   24.62
   0  15   1  175.57   30.13
   0  15  -1  159.20   28.32
   0  15  -1  148.57   28.62
  -1  15  -1  426.32   35.86
  -1  15  -1  401.36   37.98
   1  15   1  477.93   38.15
   1 -15   1  462.00   37.74
  -1 -15  -1  444.31   36.19
  -1 -15  -1  446.63   28.94
   1  15   1  470.07   36.80
  -2  15  -1 1861.87   81.42
   2  15   1 1743.11   84.72
  -2 -15  -1 1650.84   75.92
   2 -15   1 1744.93   81.36
  -2  15  -1 1719.43   73.63
  -3  15  -1  335.12   45.00
   3 -15   1  395.99   45.50
   3  15   1  336.76   32.15
  -3 -15  -1  342.81   43.67
  -3  15  -1  256.64   39.37
   4  15   1   21.37   22.90
  -4 -15  -1   23.80   29.22
   4 -15   1   53.88   23.30
   4  15   1   32.88   22.36
  -4  15  -1   17.65   24.94
   5 -15   1  131.08   33.75
  -5 -15  -1   97.42   37.69
  -5  15  -1  117.59   38.42
   5  15   1  139.95   38.77
   6  15   1  -27.93   23.20
   6 -15   1   45.60   27.63
  -6  15  -1   20.80   29.87
   6  16  -1   -9.85   26.31
  -6  16   1   88.12   42.73
   6 -16  -1  -36.76   23.81
   5 -16  -1   61.84   27.49
  -5  16   1   62.03   34.46
   5  16  -1   93.25   33.10
  -5 -16   1   90.17   32.10
  -4  16   1   56.37   30.64
   4  16  -1   36.42   24.88
  -4 -16   1   55.09   29.93
   4 -16  -1   60.46   24.57
   3  16  -1   96.86   19.94
   3 -16  -1  117.49   28.58
   3  16  -1  134.27   34.72
  -3 -16   1  110.98   32.32
  -3  16   1  124.91   32.25
  -2 -16   1  893.99   44.02
  -2 -16   1  678.11   49.15
  -2  16   1  813.02   56.17
   2  16  -1  829.84   59.95
   1 -16  -1  165.52   28.17
  -1 -16   1  201.50   26.46
   1  16  -1  190.80   32.81
   1  16  -1  158.22   26.34
  -1  16   1  147.12   32.23
  -1  16   1  198.89   25.01
   0  16   1  148.77   30.33
   0 -16  -1  246.48   28.28
   0  16  -1  213.88   32.05
   0 -16   1  246.89   30.01
   0  16  -1  215.62   32.55
   0  16   1  182.01   27.08
  -1  16  -1   29.16   23.78
   1 -16   1   23.86   14.57
  -1  16  -1   -6.79   14.24
  -1 -16  -1   21.18   11.68
  -1 -16  -1   55.65   24.23
   1  16   1   30.20   19.33
   1  16   1   18.02   14.10
  -2 -16  -1   89.97   27.23
  -2  16  -1   98.06   24.96
   2  16   1   72.04   22.30
   2 -16   1   79.60   23.98
   2  16   1  100.41   28.81
  -2  16  -1   62.32   26.47
   3  16   1  322.74   37.03
   3 -16   1  399.65   47.44
  -3 -16  -1  349.63   46.21
  -3  16  -1  305.14   39.41
  -3  16  -1  382.56   46.18
   4 -16   1   50.86   22.69
   4  16   1   19.04   22.18
  -4 -16  -1   36.37   27.43
   4  16   1   41.83   27.01
  -4  16  -1  129.79   35.99
  -5  16  -1   67.03   34.13
   5 -16   1   19.06   22.73
   5  16   1   12.51   25.69
  -5 -16  -1   28.19   31.13
   6  16   1   62.82   37.75
   6 -16   1   59.12   31.49
  -6  16  -1  173.70   46.76
   6  17  -1  -18.65   25.40
   6 -17  -1   46.02   27.80
  -6  17   1   17.92   32.34
   5 -17  -1   10.70   21.62
  -5 -17   1   26.26   29.71
  -5  17   1    1.05   29.80
   5  17  -1   -1.69   21.99
  -4 -17   1   58.24   30.51
  -4  17   1   90.54   33.89
   4  17  -1   61.07   29.88
   4 -17  -1   75.42   28.80
   3 -17  -1  -16.23   14.96
   3  17  -1  -12.13   18.58
  -3  17   1  -26.20   21.38
  -3 -17   1    4.64   21.50
   3  17  -1    9.32   15.60
   2  17  -1   50.03   20.35
  -2 -17   1   30.27   14.44
   2 -17  -1    4.35   11.62
  -2  17   1   33.34   25.75
   2  17  -1   21.59   20.38
   1  17  -1   15.30   17.90
  -1 -17   1    8.70   12.06
   1 -17  -1    0.54   13.24
  -1  17   1   -6.20   10.72
   1  17  -1   12.29   17.43
  -1  17   1   -9.99   21.38
   0  17   1   97.43   22.65
   0  17   1   96.02   25.87
   0  17  -1  122.98   27.01
   0 -17  -1   67.18   19.71
   0  17  -1  119.64   27.44
   0 -17   1  110.84   24.26
  -1 -17  -1  707.64   40.72
   1  17   1  687.39   48.62
  -1  17  -1  719.72   50.35
  -1  17  -1  694.53   45.49
   1  17   1  586.06   44.38
   1 -17   1  714.10   47.54
   2  17   1  277.44   35.81
   2  17   1  398.55   48.71
   2 -17   1  382.35   43.05
  -2  17  -1  342.01   32.34
  -2 -17  -1  370.93   43.67
  -2  17  -1  295.32   40.36
  -3  17  -1  150.95   29.05
   3 -17   1  176.21   34.90
  -3 -17  -1  160.50   37.08
  -3  17  -1  157.32   36.38
   3  17   1  147.64   35.33
   3  17   1  177.49   32.18
  -4 -17  -1  127.60   38.71
   4 -17   1  110.48   31.40
   4  17   1   97.84   34.47
  -4  17  -1   85.65   32.73
   4  17   1  139.02   32.59
   5  17   1   91.90   37.69
  -5  17  -1  108.43   38.39
  -5 -17  -1  137.24   39.21
   5 -17   1   99.14   30.86
   6 -17   1   25.16   24.89
  -6  17  -1   46.85   39.32
   6  17   1   37.71   26.03
  -6 -18   1    2.85   38.39
   6 -18  -1   27.04   28.32
  -6  18   1   50.97   40.88
   6  18  -1    8.35   28.06
   5  18  -1   -1.08   23.86
   5 -18  -1    6.85   25.79
  -5  18   1   26.26   32.30
   4  18  -1   92.94   33.82
  -4  18   1   64.01   34.42
   4 -18  -1   55.22   25.36
  -4 -18   1   44.94   28.63
  -3  18   1  545.64   52.17
  -3 -18   1  445.40   53.06
   3 -18  -1  549.48   50.18
   3  18  -1  630.84   57.46
  -2  18   1  311.38   44.24
  -2 -18   1  235.90   38.11
   2  18  -1  293.83   47.23
   2 -18  -1  325.92   41.21
  -2 -18   1  309.42   28.53
   2  18  -1  234.06   31.27
   1  18  -1  180.59   35.94
  -1  18   1  135.93   24.14
  -1 -18   1  163.22   26.06
  -1  18   1  141.32   34.18
   1  18  -1  103.34   26.89
   1 -18  -1  161.17   29.93
   0  18  -1    1.45   20.51
   0  18  -1   15.91   17.13
   0  18   1   23.20   14.25
   0  18   1   15.03   20.98
   0 -18   1   16.58   15.07
   0 -18  -1   25.51   14.90
   1  18   1  420.73   39.79
  -1  18  -1  433.72   42.60
  -1  18  -1  479.72   38.22
   1 -18   1  451.72   38.99
  -1 -18  -1  477.66   34.70
  -1 -18  -1  369.67   46.75
   1  18   1  533.33   45.24
   2  18   1  115.55   31.67
  -2 -18  -1  126.33   33.06
   2  18   1  133.16   28.82
   2 -18   1  126.50   29.55
  -2  18  -1  124.47   31.31
  -2  18  -1  145.29   26.66
   3  18   1  107.21   27.26
   3 -18   1  103.99   27.98
  -3 -18  -1   74.89   30.52
   3  18   1   84.77   30.28
  -3  18  -1   96.81   30.47
  -4 -18  -1   52.20   32.31
  -4  18  -1   80.79   31.73
   4  18   1  108.47   37.73
   4  18   1  146.99   32.38
   4 -18   1   77.91   26.93
   5 -18   1   14.12   23.58
   5  18   1   80.38   33.04
  -5 -18  -1   34.28   32.15
  -5  18  -1  -18.81   24.77
  -6  18  -1   51.67   35.55
   6 -18   1   51.95   29.03
   6  18   1   65.67   33.42
  -6  19   1   52.19   39.78
   6  19  -1   37.71   28.59
   6 -19  -1   12.61   26.73
   5  19  -1   35.77   27.33
  -5  19   1  100.27   39.38
   5 -19  -1   66.62   28.11
  -4 -19   1  264.84   49.30
  -4  19   1  200.08   45.38
   4 -19  -1  209.93   41.59
   4  19  -1  276.74   55.22
   3  19  -1   12.99   17.78
  -3  19   1   42.24   25.17
  -3 -19   1   -0.34   25.07
   3 -19  -1   49.95   23.03
   2  19  -1   67.94   23.04
  -2  19   1   52.99   29.80
   2  19  -1   38.39   24.60
   2 -19  -1   56.97   21.99
  -2 -19   1   71.42   19.06
  -1 -19   1  392.82   34.73
  -1  19   1  375.64   32.64
   1  19  -1  427.90   38.57
   1 -19  -1  390.59   37.02
   1  19  -1  492.63   55.33
  -1  19   1  304.46   42.72
   0  19   1   13.74   22.02
   0 -19  -1   52.50   16.81
   0  19  -1   18.59   19.48
   0  19  -1   25.02   21.09
   0  19   1   37.54   16.89
   0 -19   1   34.01   15.93
  -1  19  -1  153.26   29.90
  -1  19  -1  122.69   33.64
  -1 -19  -1  102.58   22.15
   1  19   1  121.67   28.48
   1  19   1  120.98   29.78
  -1 -19  -1  136.67   35.06
   1 -19   1  157.22   30.68
  -2 -19  -1  366.75   48.73
   2 -19   1  485.07   44.05
   2  19   1  393.56   39.28
  -2  19  -1  409.33   47.54
   2  19   1  482.03   47.41
  -2  19  -1  445.52   37.41
   3  19   1  145.16   32.27
  -3 -19  -1  137.11   36.05
   3  19   1  174.35   39.08
  -3  19  -1  119.20   35.23
   3 -19   1  139.05   33.25
   4  19   1  233.30   51.26
  -4 -19  -1  118.64   41.69
   4 -19   1  222.12   40.16
  -4  19  -1  176.64   41.30
   5  19   1   39.24   28.21
  -5  19  -1   26.02   28.37
   5 -19   1   12.77   20.05
  -6  19  -1    0.40   34.83
   6 -19   1  -33.09   23.02
   6  19   1    0.42   28.75
  -6  20   1   19.20   35.78
   6 -20  -1   11.07   26.83
   6  20  -1   18.93   30.36
   5  20  -1   46.07   30.88
  -5 -20   1    6.27   35.50
  -5  20   1   25.39   36.69
   5 -20  -1   48.27   30.10
  -4 -20   1   -0.99   34.33
   4  20  -1   61.87   32.74
  -4  20   1   53.57   33.67
   4 -20  -1   53.33   26.68
  -3  20   1   62.12   30.66
   3  20  -1   14.77   19.00
   3 -20  -1   60.62   25.83
  -3 -20   1  148.92   37.46
  -2  20   1   50.22   30.06
   2 -20  -1   86.38   28.69
   2  20  -1   91.37   24.11
   2  20  -1   52.18   28.40
   1 -20  -1  149.58   30.27
  -1 -20   1  128.52   24.39
   1  20  -1  125.42   28.66
   1  20  -1  141.83   35.80
  -1  20   1  115.10   32.75
   0  20   1  564.14   49.14
   0  20  -1  634.99   51.30
   0  20   1  624.41   44.61
   0 -20   1  608.88   45.29
   0 -20  -1  566.35   42.42
   0  20  -1  566.47   45.78
  -1 -20  -1  433.54   52.08
  -1 -20  -1  591.14   40.18
  -1  20  -1  591.22   48.14
   1  20   1  585.25   50.05
   1 -20   1  517.86   45.08
  -1  20  -1  538.55   48.65
   1  20   1  453.98   43.33
   2  20   1   94.76   29.48
  -2  20  -1   91.82   31.68
   2 -20   1   59.84   22.72
  -2 -20  -1   95.99   34.44
   2  20   1   89.69   29.04
   3 -20   1  145.19   35.81
  -3  20  -1  179.37   39.30
   3  20   1  159.28   41.13
   3  20   1  158.83   34.10
  -3 -20  -1  124.58   37.56
  -4 -20  -1   59.93   36.33
  -4  20  -1   65.41   32.28
   4 -20   1   84.15   28.34
   4  20   1   -1.01   21.47
   5 -20   1   14.43   23.27
  -5  20  -1   30.20   31.09
   5  20   1   -5.06   25.04
   5  21  -1  107.82   37.95
   5 -21  -1   93.65   32.73
  -5  21   1   85.04   41.46
   4  21  -1  121.08   38.17
  -4  21   1  122.69   38.89
   4 -21  -1  165.18   38.19
  -3 -21   1  205.00   42.70
   3 -21  -1  245.68   45.18
  -3  21   1  267.36   47.02
   2 -21  -1   54.08   21.56
   2  21  -1   46.35   22.56
  -2  21   1   44.25   29.96
   2  21  -1   47.18   29.94
   1  21  -1   57.59   29.42
   1  21  -1   88.03   28.08
  -1  21   1   59.75   26.28
   1 -21  -1   79.42   21.94
  -1 -21   1   49.76   18.33
   0  21  -1  366.59   45.35
   0  21  -1  438.11   50.77
   0 -21  -1  460.82   37.89
   0 -21   1  402.09   37.37
   0  21   1  368.84   47.34
   0  21   1  397.69   46.03
  -1  21  -1   17.63   21.19
  -1  21  -1   60.06   25.42
   1 -21   1   36.02   17.88
   1  21   1    4.24   20.60
   1  21   1   35.76   23.99
   2  21   1   66.68   27.20
   2  21   1   82.80   29.62
  -2 -21  -1   71.86   37.64
  -2  21  -1  104.28   32.95
   3 -21   1   87.86   27.48
   3  21   1   52.98   27.66
   3  21   1   39.05   26.95
  -3  21  -1   46.82   28.74
  -3 -21  -1   22.12   32.44
  -4  21  -1  143.41   39.75
   4 -21   1  175.17   44.04
   5  21   1  171.61   48.90
   5 -21   1  181.65   40.49
  -5  22   1   83.28   42.35
   5 -22  -1   16.39   22.74
   5  22  -1   45.95   34.82
  -5 -22   1   33.51   32.93
  -4  22   1   45.79   32.85
   4  22  -1   14.93   29.81
   4 -22  -1  -14.66   24.14
  -3  22   1   91.06   32.73
   3 -22  -1   80.60   29.36
  -3 -22   1   80.37   37.29
   3  22  -1   70.88   32.25
   2  22  -1   -8.33   22.94
   2 -22  -1   45.62   20.08
  -2  22   1   28.04   27.91
   1  22  -1   27.99   25.88
   1  22  -1   62.67   26.18
  -1  22   1   27.77   25.50
   1 -22  -1   38.19   19.01
  -1 -22   1   37.74   17.48
   0  22  -1  174.05   36.89
   0  22  -1  151.31   33.49
   0  22   1  119.02   30.78
   0  22   1  149.29   37.25
   0 -22  -1  119.24   28.24
   0 -22   1  138.78   29.16
   1 -22   1   92.91   25.71
   1  22   1   96.40   32.52
  -1  22  -1   97.38   34.49
  -1  22  -1   90.57   28.57
   1  22   1  121.88   31.73
   2  22   1   48.86   26.40
   2  22   1   31.74   29.04
   2 -22   1    2.13   16.05
  -2  22  -1   68.94   31.02
  -3  22  -1  259.14   48.46
   3  22   1  289.20   52.79
   3  22   1  248.55   41.89
   3 -22   1  257.62   46.14
  -3 -22  -1  204.15   47.56
   4 -22   1  107.81   37.26
   4  22   1   50.44   33.22
  -4  22  -1  123.81   39.40
  -5 -22  -1   -6.93   33.37
  -5  22  -1   12.74   31.55
   5 -22   1  -38.01   20.81
   5  22   1  -16.07   27.49
   5  23  -1   30.16   33.13
  -5  23   1  -19.17   32.98
   5 -23  -1   93.85   35.30
  -4  23   1   65.66   34.12
  -4 -23   1  122.05   42.43
   4 -23  -1  219.69   46.33
   4  23  -1  153.43   47.27
   3 -23  -1   11.20   21.65
  -3  23   1   13.68   27.75
   3  23  -1   61.87   33.33
   2 -23  -1   21.67   22.17
  -2  23   1    2.87   29.88
   2  23  -1   24.20   28.20
  -1  23   1  120.18   34.47
   1  23  -1  133.76   32.03
   1 -23  -1  142.62   31.54
   1  23  -1   88.12   33.38
   0 -23   1   18.82   17.50
   0  23  -1   38.87   27.20
   0  23   1   15.47   25.30
   0 -23  -1   44.55   22.33
   0  23  -1   50.74   25.38
   1  23   1   54.02   27.03
   1  23   1   44.71   24.96
   1 -23   1   74.23   22.67
  -1  23  -1  111.03   30.34
   2  23   1   69.42   30.01
   2  23   1   72.07   32.09
  -2  23  -1   60.15   32.13
   2 -23   1   31.13   18.26
   3 -23   1   30.23   25.13
  -3  23  -1   41.29   32.08
   3  23   1   26.42   27.28
  -3 -23  -1  -21.96   31.49
  -4  23  -1    8.99   30.08
   4  23   1   67.38   35.10
   4 -23   1   51.84   30.41
   5 -23   1   27.46   27.28
  -5  23  -1   22.53   30.83
   5  23   1   28.36   32.73
  -4  24   1  -14.74   28.71
   4 -24  -1   58.55   31.13
   4  24  -1   43.16   34.13
   3  24  -1   83.75   36.32
  -3  24   1   91.74   37.34
   3 -24  -1   -4.04   26.44
  -2  24   1   13.52   28.66
   2  24  -1   -2.37   27.77
   2 -24  -1    1.45   21.29
  -1  24   1   61.31   32.49
   1  24  -1  -14.40   25.15
   1 -24  -1   35.50   22.43
   1  24  -1   36.29   30.00
   0 -24   1   36.02   19.98
   0  24  -1  105.75   33.79
   0  24  -1   48.88   29.54
   0  24   1   32.99   30.07
  -1  24  -1  288.05   45.28
   1  24   1  293.28   48.44
   1 -24   1  355.21   47.48
   1  24   1  292.19   43.97
  -2 -24  -1  100.89   41.28
   2  24   1   92.37   32.77
   2 -24   1   83.01   28.39
   2  24   1   74.87   28.28
  -2  24  -1   32.62   28.67
   3  24   1  117.16   37.85
  -3  24  -1   41.83   35.19
   3 -24   1   43.08   25.74
  -4 -24  -1  -56.08   32.78
  -4  24  -1  -12.01   27.71
   4 -24   1   50.31   28.88
   4  24   1   54.65   35.62
   4 -25  -1  103.27   32.86
  -4  25   1  -24.79   30.63
   4  25  -1   37.31   29.23
   3 -25  -1   11.32   20.95
  -3  25   1   70.92   38.51
   3  25  -1   47.04   31.32
   2 -25  -1   80.54   31.69
  -2  25   1  123.98   37.92
   2  25  -1   25.85   30.54
   1  25  -1  122.22   37.38
  -1  25   1  140.52   38.36
   1 -25  -1  135.47   32.66
   1  25  -1  140.94   35.02
   0  25   1  115.40   37.99
   0 -25   1   55.80   23.41
   0  25  -1   81.80   35.78
   0  25  -1  117.08   35.73
   1  25   1   28.98   28.30
   1 -25   1  -14.04   20.22
   1  25   1   30.45   27.45
  -1  25  -1   26.24   27.78
   2  25   1   85.62   33.75
   2 -25   1  150.45   37.76
   2  25   1   98.89   36.17
  -2  25  -1  166.20   42.89
  -3  25  -1   90.97   36.82
   3  25   1   25.88   30.79
   3 -25   1   34.57   28.29
  -4  25  -1   64.90   38.00
   4  25   1   27.38   34.61
  -4 -25  -1  -17.18   35.31
   4 -25   1   32.57   26.78
  -3  26   1   63.49   37.18
   3  26  -1   95.02   39.43
   3 -26  -1   61.63   31.73
   2  26  -1  111.27   39.21
  -2  26   1  131.75   42.64
   2 -26  -1  176.01   37.20
   1 -26  -1    8.55   21.00
  -1  26   1   10.61   30.83
   1  26  -1   -8.75   27.17
   0  26   1  235.73   45.96
   0  26  -1  129.29   37.32
   0 -26   1  219.61   40.14
  -1  26  -1  102.55   32.11
   1  26   1   61.46   30.29
   1 -26   1   90.26   28.78
   2 -26   1   43.13   28.55
  -2  26  -1  -11.86   26.31
   2  26   1   57.31   33.12
   3  26   1   79.22   36.28
   3 -26   1  123.48   38.16
  -3  26  -1   27.99   34.47
   3  27  -1   29.78   34.47
   3 -27  -1   41.08   28.49
  -3  27   1   78.06   37.94
   2 -27  -1  120.65   36.30
  -2  27   1  110.04   40.01
   2  27  -1  106.28   39.76
   1  27  -1   93.89   41.81
  -1  27   1  140.87   45.07
   0  27  -1   13.12   31.53
   0  27   1   16.85   27.37
  -1  27  -1  113.33   37.60
   1 -27   1  125.30   33.09
   1  27   1   93.15   35.45
   2  27   1  154.99   40.98
  -2  27  -1  142.90   43.80
   2 -27   1  211.47   41.82
  -3  27  -1  -28.30   31.11
   3  27   1   -0.41   28.38
   3 -27   1   30.53   27.03
  -2  28   1  103.00   38.29
   2  28  -1  -40.32   27.71
   2 -28  -1  -11.13   24.03
  -1  28   1   85.62   39.33
   0  28   1  159.94   40.99
   0  28  -1  149.99   38.93
   1  28   1  124.07   39.15
  -1  28  -1  192.63   41.86
   1 -28   1  242.17   43.30
   2 -28   1    5.41   23.69
  -2  28  -1   51.70   31.78
  -1  29   1   96.44   37.48
   0  29   1   86.20   36.83
   1 -29   1    5.36   25.03
  -1  29  -1   32.56   36.46
   1  29   1   43.52   35.38
  -7   0   2   38.83   24.23
   6   0  -2   24.95   26.08
  -6   0   2    5.79   19.01
   5   0  -2  647.36   48.86
   4   0  -2   56.72   20.40
   4   0  -2   63.10   18.05
   4   0  -2   51.81   15.29
   3   0  -2  186.00   25.39
   3   0  -2  203.59   24.90
   2   0  -2   13.22   11.02
   2   0  -2   13.22   10.43
  -2   0   2    6.99    9.96
  -1   0   2 9562.55  209.57
   1   0  -2 9437.80  216.84
   1   0  -2 9764.77  204.44
  -1   0   2 9757.43  205.53
   0   0   2 1906.90   49.02
   0   0   2 1831.17   47.69
   0   0  -2 1905.32   52.49
  -1   0  -2 4803.26  123.54
   1   0   2 4407.93  113.03
   1   0   2 4996.08  106.16
  -2   0  -2  249.53   24.77
   2   0   2  229.32   18.29
  -2   0  -2  270.96   31.15
   2   0   2  266.03   22.52
  -3   0  -2  279.44   38.38
   3   0   2  284.19   26.17
   3   0   2  296.34   23.30
  -4   0  -2  367.78   41.55
  -4   0  -2  409.77   51.32
   4   0   2  434.32   31.41
   4   0   2  375.01   32.91
   5   0   2  111.18   22.57
  -5   0  -2   90.01   32.94
   5   0   2  111.98   26.02
  -5   0  -2   81.71   29.43
  -6   0  -2  130.76   37.87
  -6   0  -2  139.44   40.45
   6   0   2  165.39   35.36
   6   0   2  135.62   27.93
   7   0   2   85.04   29.65
  -7   0  -2  139.52   41.10
  -7   0  -2   37.46   35.92
   8   0   2   46.40   31.89
  -8   0  -2   -6.39   32.30
  -7  -1   2   22.93   25.58
  -7   1   2   -3.71   24.14
   7   1  -2  -42.43   30.04
   6  -1  -2  132.87   32.99
  -6  -1   2   63.04   26.35
   6   1  -2   71.17   29.99
  -6   1   2   66.62   26.20
   5   1  -2   27.17   23.00
   5  -1  -2   28.24   19.53
   5  -1  -2   16.89   19.14
   5   1  -2   -3.40   14.43
  -5  -1   2   16.03   18.81
   4  -1  -2  299.49   34.47
   4  -1  -2  290.17   35.16
   4   1  -2  285.06   25.10
   4   1  -2  301.45   35.51
   4   1  -2  259.69   32.65
   3  -1  -2  204.97   21.35
   3  -1  -2  254.46   28.57
  -3   1   2  236.00   26.14
  -3  -1   2  227.03   22.36
   3   1  -2  249.42   28.00
   3   1  -2  231.52   18.99
   3   1  -2  271.23   29.16
   2  -1  -2  160.21   21.25
  -2   1   2  183.61   19.66
   2  -1  -2  208.95   22.98
   2   1  -2  188.49   21.93
   2   1  -2  182.38   21.13
  -2  -1   2  224.09   21.61
   2  -1  -2  160.74   16.96
   1  -1  -2 7477.74  162.99
   1  -1  -2 7447.08  170.33
  -1   1   2 7420.63  163.63
   1   1  -2 7602.02  163.25
   1   1  -2 7556.11  173.97
   0  -1   2 2002.30   51.84
   0  -1  -2 2134.25   56.84
   0  -1   2 2139.95   54.25
   0   1   2 2081.92   53.19
   0   1  -2 2250.39   59.92
   0   1   2 2113.49   54.29
  -1  -1  -2 2615.55   78.11
   1  -1   2 2632.22   64.72
  -1  -1  -2 2638.21   77.08
   1  -1   2 2390.84   69.55
   1   1   2 2563.46   69.95
   2   1   2  920.61   34.06
   2  -1   2  969.70   38.11
   2   1   2  940.25   47.94
  -2   1  -2  978.28   48.70
   2  -1   2  949.59   42.39
   2   1   2  934.30   40.68
   3   1   2 1336.46   49.91
   3   1   2 1315.28   56.28
   3  -1   2 1342.59   52.46
  -3   1  -2 1275.42   64.50
   3  -1   2 1361.34   58.48
   3   1   2 1324.38   65.37
   4  -1   2  169.60   28.57
   4  -1   2  148.53   24.04
  -4   1  -2  116.87   33.62
   4   1   2  188.84   23.67
   4   1   2  181.36   28.68
  -4   1  -2  150.74   31.67
   5  -1   2  383.77   38.75
  -5  -1  -2  498.06   62.02
   5  -1   2  409.25   35.19
   5   1   2  428.14   40.91
  -5   1  -2  426.20   56.53
   5   1   2  429.39   34.49
  -5   1  -2  472.84   53.59
  -6  -1  -2  -16.53   21.88
  -6  -1  -2   55.92   28.10
   6   1   2   48.38   24.46
  -6   1  -2   21.18   25.64
  -6   1  -2   57.72   28.59
   6  -1   2   34.12   23.73
   6  -1   2   53.90   22.96
   7   1   2   22.79   25.13
  -7  -1  -2   57.25   29.09
   7  -1   2   20.43   24.27
  -7  -1  -2   23.67   27.36
  -7   1  -2   24.30   30.82
  -7   1  -2   -3.37   29.56
   8  -1   2  170.59   41.34
  -8  -1  -2  196.66   47.70
  -8   1  -2  101.03   43.26
   8   1   2   81.71   33.96
  -7   2   2   87.38   29.58
   7   2  -2  139.73   40.52
   6  -2  -2   80.53   26.18
   6   2  -2   30.62   29.16
   6   2  -2   37.94   20.87
  -6   2   2   41.64   21.85
  -6  -2   2   13.02   18.76
   5  -2  -2  628.07   46.44
   5  -2  -2  629.37   49.37
   5   2  -2  598.81   38.85
  -5   2   2  569.98   44.57
  -5  -2   2  612.86   44.15
   5   2  -2  578.50   47.41
   4  -2  -2  143.19   24.33
   4   2  -2  118.97   26.24
   4   2  -2  102.60   25.18
   4   2  -2  133.26   19.38
  -4   2   2  115.71   25.69
   4  -2  -2  141.62   27.78
  -4  -2   2  108.05   22.40
   3   2  -2  273.28   30.23
   3  -2  -2  194.21   20.70
  -3   2   2  277.59   27.27
   3   2  -2  249.67   19.16
   3  -2  -2  234.02   29.81
   3   2  -2  259.12   30.36
  -3  -2   2  241.73   25.84
   2   2  -2   32.43   14.78
   2   2  -2   41.04   13.69
   2  -2  -2   14.84   12.86
  -2   2   2   36.31   13.23
   2  -2  -2   22.75   12.81
  -2  -2   2   31.54   12.09
   2  -2  -2   23.32   10.24
   1  -2  -2  156.88   17.01
   1   2  -2  151.76   16.54
   1  -2  -2  146.74   18.39
  -1   2   2  163.16   15.96
   0  -2  -2 9178.40  206.04
   0  -2   2 9112.47  195.00
   0   2   2 8445.31  191.00
   0  -2   2 8777.72  192.54
   0   2  -2 9999.67  212.05
  -2   2  -2 1181.69   53.02
   2  -2   2 1140.84   42.98
   2   2   2 1100.61   45.39
   2  -2   2 1105.68   47.43
   2   2   2 1078.01   52.42
   3   2   2 1479.32   59.62
   3  -2   2 1485.73   62.03
   3   2   2 1432.43   50.66
   3   2   2 1493.27   69.69
   3  -2   2 1468.57   57.00
  -3   2  -2 1421.44   67.30
  -3   2  -2 1455.25   68.87
   4   2   2  590.09   47.43
   4  -2   2  551.26   38.69
   4   2   2  603.22   34.48
  -4   2  -2  584.60   46.90
   4  -2   2  556.32   39.80
  -4   2  -2  564.21   48.26
   4   2   2  586.43   40.71
   5  -2   2   32.90   18.93
  -5   2  -2   17.17   25.86
  -5   2  -2   22.61   22.77
   5  -2   2   21.31   19.71
   5   2   2   27.02   19.69
   5   2   2  -10.88   13.73
  -6  -2  -2   55.09   28.87
   6  -2   2  -28.42   19.04
   6   2   2    5.87   21.85
  -6  -2  -2   91.79   35.24
   6  -2   2   19.08   20.99
  -6   2  -2   32.40   28.70
  -6   2  -2   17.51   28.66
  -7  -2  -2   88.98   37.55
  -7  -2  -2  142.00   39.37
   7  -2   2   90.95   29.77
   7   2   2  152.22   36.30
  -7   2  -2  112.11   41.95
  -7   3   2  124.25   32.66
   7   3  -2   60.40   34.86
  -6  -3   2  119.93   29.81
   6   3  -2  187.59   39.81
   6   3  -2  152.55   28.02
  -6   3   2  176.30   35.08
   6  -3  -2  171.50   38.29
   5   3  -2  140.04   22.63
   5  -3  -2   99.44   28.20
  -5   3   2  121.01   30.10
   5   3  -2  113.70   30.66
  -5  -3   2  153.96   27.56
   5  -3  -2  130.83   27.95
  -4  -3   2  770.95   44.00
   4  -3  -2  811.97   44.33
  -4   3   2  762.36   46.52
   4   3  -2  686.02   44.79
   4   3  -2  749.67   49.83
   4  -3  -2  732.33   49.88
   4   3  -2  829.37   40.60
  -3  -3   2  563.54   34.05
  -3   3   2  564.65   35.42
   3   3  -2  649.75   39.89
   3   3  -2  607.91   29.41
   3   3  -2  569.84   36.39
   3  -3  -2  562.06   31.48
   3  -3  -2  566.45   40.08
   2   3  -2   94.87   18.47
   2  -3  -2   72.85   17.84
   2   3  -2   86.20   18.42
   2  -3  -2   82.33   17.35
  -2   3   2   72.58   16.42
  -2  -3   2   78.15   15.59
  -1   3   2 3860.81   97.36
   1  -3  -2 4000.29   96.58
   1   3  -2 3978.17  104.05
  -1  -3   2 4011.82   98.03
   0   3  -2  552.79   26.56
   0  -3   2  476.91   21.46
   0  -3  -2  461.34   21.86
   0  -3   2  502.83   19.20
   0  -3  -2  373.56   19.91
   1   3   2 2449.89   68.20
   1  -3   2 2512.66   66.46
  -1   3  -2 2677.55   75.49
   1   3   2 2114.97   73.18
   2   3   2  731.21   41.73
   2  -3   2  746.12   35.09
   2  -3   2  732.33   37.90
   2   3   2  743.02   35.33
  -2   3  -2  712.91   40.60
   3  -3   2   94.11   18.97
  -3   3  -2   49.52   20.18
   3  -3   2   77.91   18.31
   3   3   2   91.77   18.11
   3   3   2   64.42   20.21
   4   3   2  219.10   36.67
   4  -3   2  193.64   28.22
  -4   3  -2  213.03   35.25
   4   3   2  221.05   28.67
   4   3   2  190.35   22.50
   4  -3   2  211.20   32.02
  -4   3  -2  172.01   35.26
  -5   3  -2  794.98   63.13
   5   3   2  771.66   61.71
   5  -3   2  820.30   52.05
   5   3   2  800.50   44.87
   5   3   2  798.51   52.66
   5  -3   2  798.12   55.47
  -5   3  -2  796.88   63.24
   6  -3   2   96.90   29.83
   6  -3   2   89.77   27.22
   6   3   2   89.91   26.52
  -6   3  -2   86.66   32.29
  -7  -3  -2   11.91   27.72
   7   3   2   28.57   25.33
  -7  -3  -2   78.56   33.22
  -7   3  -2   15.87   30.31
   7  -3   2   43.16   25.09
  -8   4   2  -36.15   28.60
  -7   4   2   71.05   30.98
   7   4  -2   52.44   32.84
   7  -4  -2    7.36   26.23
   6   4  -2   60.74   29.93
   6  -4  -2   78.51   30.07
  -6  -4   2  131.81   29.87
  -6   4   2   91.59   28.18
  -5  -4   2  388.82   34.07
   5   4  -2  398.62   49.26
   5  -4  -2  412.58   47.48
   5   4  -2  381.69   30.76
  -5   4   2  375.17   37.78
  -4  -4   2  405.22   31.20
   4  -4  -2  412.75   43.87
   4   4  -2  407.41   27.92
   4   4  -2  355.59   34.15
   4   4  -2  368.69   35.04
   4  -4  -2  387.19   31.77
  -4   4   2  392.27   34.77
   3  -4  -2  449.69   27.38
   3   4  -2  451.79   33.59
  -3  -4   2  434.37   30.39
   3   4  -2  435.27   34.22
  -3   4   2  480.72   33.06
   3   4  -2  463.36   24.61
   3  -4  -2  425.19   34.90
   2   4  -2 1421.39   57.43
   2   4  -2 1399.02   53.55
  -2  -4   2 1404.56   50.65
  -2   4   2 1451.75   53.52
   2  -4  -2 1405.27   57.57
  -1   4   2  637.50   30.56
   1  -4  -2  607.42   30.44
   1   4  -2  559.40   30.35
  -1  -4   2  617.87   28.32
   0  -4  -2  930.48   34.29
   0  -4  -2  898.83   31.83
   0   4   2  921.57   34.73
   0  -4   2  960.15   31.00
   0   4   2  967.46   32.82
   0  -4   2  894.83   33.03
  -1   4  -2 1641.38   57.12
   1  -4   2 1606.34   51.27
   1   4   2 1574.44   51.63
   1   4   2 1622.65   58.60
   2  -4   2 1372.02   54.19
  -2   4  -2 1330.50   55.74
   2  -4   2 1320.39   51.00
   2   4   2 1303.68   50.52
   2   4   2 1271.80   58.52
   3  -4   2  405.92   31.34
   3   4   2  411.91   36.19
   3   4   2  364.79   27.75
  -3   4  -2  344.38   33.26
   3  -4   2  403.24   30.22
   4   4   2  630.80   50.66
   4  -4   2  700.10   44.26
  -4   4  -2  679.60   51.40
   4   4   2  670.54   41.86
   4  -4   2  663.61   46.13
  -5   4  -2   11.83   22.52
   5  -4   2   18.07   18.26
   5   4   2    9.30   16.50
   5  -4   2   14.05   17.56
   5   4   2   26.13   22.52
  -6   4  -2  327.01   54.05
   6   4   2  345.24   43.96
   6  -4   2  297.40   42.48
   6  -4   2  258.19   42.29
   7   4   2  183.57   36.86
  -7   4  -2  154.42   44.58
   7  -4   2  148.75   34.08
   7  -4   2  125.26   36.79
  -7  -4  -2  234.88   51.68
   7   5  -2    1.61   28.99
   7  -5  -2   28.30   29.93
  -7   5   2   38.02   29.71
   6   5  -2   22.95   27.70
  -6  -5   2   90.67   25.09
   6  -5  -2   63.15   26.85
  -6   5   2   84.20   29.04
  -5   5   2   49.29   24.00
  -5  -5   2   49.03   19.39
   5   5  -2   19.95   15.09
  -5   5   2   53.08   21.80
   5  -5  -2   50.48   23.41
   5   5  -2   36.35   23.02
   4  -5  -2  534.54   44.22
   4   5  -2  530.19   31.12
  -4   5   2  606.49   39.59
  -4   5   2  523.87   41.69
   4   5  -2  512.00   42.04
   4   5  -2  515.80   40.52
  -4  -5   2  608.86   38.10
  -3  -5   2  836.75   40.68
  -3   5   2  790.70   44.35
   3   5  -2  798.82   45.46
   3  -5  -2  797.36   47.52
   3   5  -2  805.41   47.81
   2  -5  -2   71.93   19.02
  -2   5   2  121.88   19.87
   2   5  -2  103.88   20.71
  -2  -5   2   85.49   15.07
   2   5  -2  115.00   22.00
   0  -5  -2   -0.40    7.09
   0  -5  -2   12.75   12.17
   0  -5   2    4.41    5.38
   0   5  -2  -19.16    6.76
   0   5   2    0.96   10.34
   0   5  -2    5.23    3.73
   0   5   2    7.54    7.90
   1  -5   2  137.75   17.34
  -1   5  -2  202.63   27.25
   1   5   2  119.65   19.98
   1   5   2  164.94   18.47
   2   5   2 2628.89   79.51
   2  -5   2 2515.57   83.44
   2   5   2 2695.75   92.29
   2  -5   2 2536.97   81.07
  -2   5  -2 2613.65   86.78
   3  -5   2 1449.71   61.07
   3   5   2 1406.81   58.29
   3   5   2 1509.04   72.15
   3  -5   2 1450.24   63.70
  -3   5  -2 1398.45   66.73
   4   5   2  273.69   27.27
   4  -5   2  290.90   35.63
   4  -5   2  321.61   35.78
   4   5   2  255.02   40.43
  -4   5  -2  286.85   39.66
   5   5   2  550.92   43.78
  -5   5  -2  543.77   51.27
   5   5   2  530.30   51.98
   5  -5   2  487.64   43.05
   5  -5   2  519.65   42.90
   6   5   2   70.48   31.49
  -6   5  -2   95.55   35.50
   6  -5   2   92.33   28.49
   6   5   2   70.61   26.43
   6  -5   2   81.46   27.08
  -7   5  -2   36.61   33.14
   7  -5   2   47.37   27.56
   7   5   2   69.35   28.98
   7  -5   2   20.73   26.01
   7  -6  -2   30.45   30.48
   7   6  -2   49.65   36.59
  -7   6   2  104.87   36.09
   6   6  -2   88.33   33.42
   6  -6  -2   58.89   26.57
  -6   6   2   86.17   31.25
   5  -6  -2  132.43   32.53
  -5  -6   2   73.28   21.59
   5   6  -2   89.87   28.86
  -5   6   2  131.19   27.42
  -5   6   2  150.44   31.51
   5   6  -2  167.39   23.75
  -4   6   2   13.11   20.03
   4   6  -2   10.33   16.53
   4  -6  -2   30.56   17.31
  -4   6   2   17.25   15.58
  -4  -6   2   31.21   13.84
   4   6  -2   28.42   12.21
   3  -6  -2  473.79   37.60
  -3   6   2  447.28   34.38
  -3  -6   2  475.56   30.14
   3   6  -2  469.20   37.49
   2  -6  -2 2964.24   97.42
   2   6  -2 3044.11  100.24
  -2   6   2 2956.37   92.37
  -2  -6   2 3167.53   86.50
   1   6  -2  814.81   39.43
  -1   6   2  791.28   36.01
   1  -6  -2  703.55   36.29
  -1  -6   2  769.53   32.31
   0  -6  -2 1512.37   47.71
   0  -6  -2 1504.64   50.22
   0   6  -2 1485.35   56.17
   0   6   2 1580.69   52.64
   0   6   2 1450.13   48.13
   0   6  -2 1454.93   46.20
   1   6   2    5.33    9.54
   1  -6   2    4.13    8.50
  -1  -6  -2   14.60   12.07
  -1   6  -2   35.11   19.88
   1  -6   2   -2.63    8.65
   1   6   2   -6.07    8.18
  -2   6  -2  972.61   48.36
   2  -6   2  982.37   45.99
   2  -6   2  938.88   44.94
   2   6   2  987.37   42.42
   3  -6   2   58.91   16.94
  -3   6  -2   39.84   20.96
   3   6   2   67.85   17.43
   3   6   2   76.37   20.97
   3  -6   2   37.43   16.37
   4  -6   2  334.20   37.63
   4   6   2  336.87   29.97
  -4   6  -2  397.08   45.12
   4  -6   2  347.63   34.79
   4   6   2  309.07   44.26
   5   6   2   -4.91   23.25
   5  -6   2   16.02   17.94
   5   6   2   -4.02   16.32
   5  -6   2   14.24   18.30
  -5   6  -2  -10.95   20.06
   6   6   2   44.97   24.66
   6  -6   2   49.94   23.70
  -6   6  -2   41.37   28.71
   6  -6   2   58.19   26.33
   6   6   2   30.22   31.70
  -7   6  -2  -30.36   29.48
   7  -6   2   68.42   29.37
   7   6   2  101.58   31.26
   7  -7  -2  -19.81   23.92
  -7   7   2    8.22   29.04
   7   7  -2  -29.55   32.25
   6   7  -2   48.97   30.92
  -6   7   2   21.63   26.15
   6  -7  -2   52.49   23.93
   5   7  -2  188.40   24.12
  -5   7   2  205.44   36.78
   5   7  -2  126.45   33.13
   5   7  -2  126.95   33.10
  -5  -7   2  149.36   25.66
   5  -7  -2  164.01   34.37
  -5  -7   2  102.93   34.81
  -4  -7   2  616.98   49.74
  -4  -7   2  631.48   38.80
   4   7  -2  666.93   35.08
  -4   7   2  698.72   47.47
   4   7  -2  655.51   49.69
   4  -7  -2  681.55   50.27
  -4   7   2  652.30   39.56
  -3   7   2  655.46   43.07
   3  -7  -2  698.94   46.23
  -3  -7   2  688.20   36.46
   3   7  -2  669.98   45.62
   2   7  -2  854.25   46.85
   2  -7  -2  785.90   45.09
  -2  -7   2  805.92   36.76
   1  -7  -2  343.67   26.72
  -1   7   2  325.27   27.13
  -1  -7   2  361.01   26.17
   1   7  -2  333.50   26.77
  -1  -7   2  331.04   21.90
   0   7  -2  377.99   23.98
   0  -7  -2  381.90   24.01
   0   7  -2  409.53   31.48
   0  -7  -2  431.01   27.46
   0   7   2  405.53   27.66
   0   7   2  384.45   23.31
   1   7   2  559.26   31.17
  -1   7  -2  491.31   37.61
  -1   7  -2  456.20   33.06
   1   7   2  519.02   33.32
   1  -7   2  533.84   30.32
  -1  -7  -2  539.18   30.29
   2  -7   2 2615.88   85.18
  -2   7  -2 2530.31   85.48
   2   7   2 2481.11   78.83
   2  -7   2 2542.97   84.25
   3  -7   2  148.10   25.63
   3   7   2  154.36   22.88
   3   7   2  120.59   27.04
   3  -7   2  111.64   21.50
  -3   7  -2  115.67   29.28
   4  -7   2   33.75   17.65
   4   7   2   20.74   20.21
  -4   7  -2   44.39   24.95
   4   7   2   82.33   20.06
   4  -7   2   80.15   21.68
   5   7   2  268.62   48.32
   5  -7   2  331.65   42.85
  -5   7  -2  312.01   47.32
   5   7   2  313.88   38.56
   5  -7   2  272.32   40.83
  -6   7  -2   93.28   37.82
   6   7   2  187.18   36.58
   6  -7   2  127.94   34.62
   6   7   2   91.38   35.84
   6  -7   2   87.51   30.63
   7   7   2   10.49   37.09
   7   7   2  123.63   35.70
   7  -7   2   47.33   29.97
  -7   8   2   54.25   33.25
   7   8  -2   15.50   35.84
   7  -8  -2   64.93   32.66
   6   8  -2  119.94   36.01
   6  -8  -2  123.20   35.82
  -6  -8   2   23.69   25.70
  -6   8   2   88.27   32.09
  -5   8   2  117.65   32.13
   5   8  -2  117.06   33.81
   5  -8  -2   34.68   23.10
  -5  -8   2  112.39   23.24
   4  -8  -2   32.97   18.17
  -4  -8   2   53.78   27.15
   4   8  -2   69.47   23.96
   4   8  -2   81.17   16.05
  -4   8   2  108.81   27.38
  -4  -8   2   64.69   17.52
   3  -8  -2  237.49   33.36
  -3  -8   2  222.55   21.56
   3   8  -2  250.89   34.75
  -3  -8   2  203.80   31.19
  -2  -8   2  657.01   33.00
   2   8  -2  666.55   42.43
   2  -8  -2  652.43   41.45
  -2   8   2  689.41   39.97
  -2  -8   2  661.18   39.83
  -1   8   2  333.43   28.35
  -1  -8   2  312.20   22.08
   1  -8  -2  329.61   28.16
   1   8  -2  351.44   26.88
   0   8  -2 2571.37   74.09
   0  -8  -2 2696.91   77.74
   0   8   2 2694.37   78.33
   0   8  -2 2763.27   86.28
   0  -8  -2 2666.51   75.73
   0   8   2 2654.80   80.94
  -1  -8  -2  726.30   36.15
   1  -8   2  675.29   35.44
  -1   8  -2  653.50   40.33
  -1   8  -2  652.29   37.53
   1   8   2  608.62   36.25
   1   8   2  698.64   35.27
  -2   8  -2  545.90   40.29
  -2  -8  -2  481.24   32.28
   2  -8   2  538.80   35.63
   2   8   2  518.24   31.56
   3   8   2  110.81   25.72
   3  -8   2   84.11   22.22
  -3   8  -2  133.58   29.08
   3  -8   2   92.81   20.50
   3   8   2  118.96   21.32
   4   8   2  335.48   46.77
  -4   8  -2  331.76   45.10
   4  -8   2  365.18   40.47
   4   8   2  340.67   31.60
   4  -8   2  386.98   38.31
   5   8   2   35.67   22.02
  -5   8  -2   62.33   30.15
   5  -8   2   68.16   24.49
   5  -8   2   40.63   21.44
   5   8   2   46.85   26.55
  -6   8  -2   85.89   36.86
   6  -8   2  154.39   36.85
   6   8   2  109.99   36.28
   6   8   2  169.38   35.43
   7  -8   2   93.59   37.67
   7   8   2   -6.86   34.55
   7   8   2  114.83   31.47
  -7   8  -2  -14.99   25.40
   7  -9  -2   16.47   27.51
  -7   9   2   52.60   34.21
   7   9  -2   55.66   35.52
   6   9  -2  356.42   58.49
  -6   9   2  312.30   49.79
   6  -9  -2  376.25   55.49
  -5  -9   2  140.48   36.11
   5   9  -2  180.29   39.21
  -5  -9   2  157.13   25.45
   5  -9  -2  158.70   35.03
  -5   9   2  185.38   36.66
   4   9  -2  355.38   46.41
  -4  -9   2  322.84   43.61
   4  -9  -2  323.50   42.24
  -4   9   2  350.53   42.82
  -4  -9   2  351.04   28.70
  -3   9   2  -12.02    9.25
  -3  -9   2   34.17   15.64
   3   9  -2    4.66   15.50
   3  -9  -2   16.26   15.87
  -3  -9   2   37.54   13.84
   2   9  -2  902.06   50.45
   2  -9  -2  855.30   49.24
  -2  -9   2  905.09   38.91
  -2   9   2  879.00   48.27
  -2  -9   2  910.25   45.80
  -1  -9   2  954.63   40.26
  -1   9   2  945.51   46.38
   1  -9  -2  981.19   47.28
   0   9   2 1429.93   54.73
   0   9  -2 1268.77   55.32
   0   9   2 1329.45   49.07
   0   9  -2 1276.94   46.74
   0  -9  -2 1293.90   50.78
   0  -9  -2 1355.35   48.73
   0  -9   2 1267.09   49.59
   1   9   2   65.15   17.58
   1  -9   2   77.28   17.02
  -1   9  -2   62.83   18.66
  -1  -9  -2   84.39   19.63
  -1   9  -2   36.31   22.17
   1   9   2   72.47   16.27
   2   9   2  431.87   34.85
  -2   9  -2  429.10   36.70
  -2  -9  -2  442.54   32.08
  -2   9  -2  475.88   37.15
   2  -9   2  429.05   32.17
   2   9   2  455.59   30.64
  -3  -9  -2   -0.01    9.42
   3   9   2    9.46   12.76
   3   9   2   18.41   14.11
   3  -9   2    2.32    9.84
  -3   9  -2   35.41   23.12
   4  -9   2  165.38   30.69
   4   9   2  151.29   27.85
  -4   9  -2  153.57   34.92
   4   9   2  148.33   32.79
   5   9   2    7.03   21.51
  -5   9  -2   25.31   29.80
   5  -9   2   17.93   19.95
   5   9   2   13.84   20.29
   6  -9   2   39.84   23.73
  -6   9  -2    8.11   29.69
  -6   9  -2   -8.38   27.11
   6   9   2   56.97   23.46
   6   9   2    3.77   27.73
   7  -9   2    7.56   30.10
  -7   9  -2   17.24   29.34
   7   9   2   -3.01   30.50
  -7  10   2  115.73   42.91
   7 -10  -2   57.78   32.92
   7  10  -2   36.86   38.25
   6  10  -2   29.73   24.97
  -6  10   2   58.75   31.87
   6 -10  -2   24.14   28.18
  -5 -10   2   38.54   28.52
  -5  10   2  108.68   31.33
   5 -10  -2   79.07   27.11
   5  10  -2   47.96   25.64
   4 -10  -2  288.99   41.05
  -4 -10   2  284.25   26.18
   4  10  -2  329.74   45.47
  -4 -10   2  340.94   43.44
  -3 -10   2   65.08   23.40
   3 -10  -2   96.96   22.76
  -3  10   2   87.43   25.47
  -3 -10   2   87.67   17.75
   3  10  -2  107.30   27.26
  -2 -10   2 1404.08   60.09
   2 -10  -2 1316.15   63.64
   2  10  -2 1425.67   66.46
  -2 -10   2 1338.93   50.56
  -2  10   2 1326.30   61.70
   1 -10  -2  444.72   32.42
  -1  10   2  443.83   34.43
   1  10  -2  453.55   25.32
  -1 -10   2  471.31   27.90
   0  10   2 1212.45   52.11
   0 -10  -2 1238.57   50.53
   0  10  -2 1180.34   54.51
   0  10   2 1215.79   48.61
   0 -10   2 1167.15   48.63
   0  10  -2 1253.38   47.00
   0 -10  -2 1228.45   47.79
   1 -10   2  235.13   26.16
  -1  10  -2  254.75   27.70
  -1  10  -2  218.85   30.57
   1  10   2  214.84   21.72
   1  10   2  232.74   27.85
  -1 -10  -2  203.05   27.30
  -2  10  -2  503.66   41.46
   2  10   2  549.48   33.66
  -2 -10  -2  555.71   36.35
  -2  10  -2  490.39   38.46
   2 -10   2  526.48   37.41
   2  10   2  502.91   39.40
   3 -10   2  179.11   28.96
  -3  10  -2  159.63   31.11
  -3  10  -2  193.13   36.65
  -3 -10  -2  209.24   30.81
   3  10   2  195.39   34.07
   3  10   2  207.62   27.30
   4 -10   2  440.40   39.64
   4  10   2  454.26   46.23
  -4  10  -2  476.35   54.71
  -4  10  -2  479.34   48.83
   4  10   2  495.25   38.85
  -5  10  -2  154.54   39.57
   5  10   2  192.34   40.35
   5  10   2  252.64   36.92
  -5  10  -2  168.16   39.56
   5 -10   2  140.13   33.17
  -6  10  -2   77.64   36.24
   6  10   2  156.31   42.83
   6 -10   2  173.12   35.57
   6  10   2  166.18   35.14
   7  10   2   22.77   30.40
   7 -10   2    2.99   29.77
  -7  10  -2   81.24   34.21
  -7  11   2   46.28   35.34
   7 -11  -2   49.51   33.10
   7  11  -2  -55.11   34.61
  -6  11   2   85.72   38.25
   6  11  -2   18.65   26.31
   6 -11  -2   37.45   28.58
  -6 -11   2   77.18   37.68
   5 -11  -2  126.35   30.62
  -5 -11   2   85.56   33.55
  -5  11   2  103.82   31.00
   5  11  -2   58.25   27.29
  -4 -11   2  120.01   20.44
  -4 -11   2  127.75   31.29
  -4  11   2   47.93   21.29
   4 -11  -2  107.29   27.10
   4  11  -2  114.43   29.14
   3  11  -2  462.91   43.15
  -3 -11   2  407.58   43.49
   3 -11  -2  435.22   40.17
  -3  11   2  492.13   44.63
  -3 -11   2  476.48   30.02
   2  11  -2    2.12   11.17
  -2  11   2   33.10   20.98
  -2 -11   2   28.16   15.42
   2 -11  -2   -2.79    9.87
  -2 -11   2   -1.00    9.43
   1 -11  -2  468.43   33.76
  -1 -11   2  445.61   28.57
  -1  11   2  470.24   35.93
   0  11   2  531.38   35.50
   0  11  -2  507.18   35.88
   0 -11   2  475.00   31.15
   0 -11  -2  458.40   32.38
   0  11   2  508.11   30.27
   0  11  -2  488.28   30.75
   0 -11  -2  485.64   29.73
  -1 -11  -2  288.73   26.84
  -1  11  -2  327.11   31.91
   1  11   2  268.29   26.60
  -1  11  -2  226.98   32.00
   1  11   2  291.89   25.16
   1 -11   2  272.99   25.60
  -2  11  -2  667.58   44.96
  -2  11  -2  613.52   45.36
   2  11   2  657.71   45.57
   2 -11   2  634.46   42.92
  -2 -11  -2  696.88   41.66
   2  11   2  699.48   39.35
   3 -11   2   11.58   13.90
   3  11   2    2.84   13.36
  -3  11  -2    0.19   19.15
  -3  11  -2    3.28   26.80
  -3 -11  -2   29.18   18.17
   3  11   2   20.30   14.94
  -4  11  -2   57.79   32.16
  -4  11  -2   65.18   28.46
   4  11   2   38.14   19.30
   4  11   2   71.42   25.16
  -4 -11  -2   20.23   20.26
   4 -11   2   83.54   23.65
   5 -11   2   24.82   21.96
   5  11   2   29.55   26.02
  -5  11  -2   10.22   23.69
   5  11   2   72.87   24.37
  -5  11  -2   26.39   31.19
   6  11   2  -14.67   24.42
   6  11   2   53.25   27.12
   6 -11   2   84.97   29.01
  -6  11  -2   56.52   32.47
   7 -11   2   37.56   31.23
  -7  11  -2   60.23   34.33
   7  11   2  -23.82   28.25
   7  12  -2  -18.46   30.92
  -7  12   2   38.91   36.01
   7 -12  -2   42.81   30.42
  -6 -12   2  143.73   41.51
   6  12  -2  106.51   36.83
   6 -12  -2  122.93   31.85
  -6  12   2  169.39   43.12
  -5  12   2   -1.49   15.50
   5  12  -2   37.60   25.22
   5 -12  -2   25.53   22.05
  -5 -12   2   -8.99   28.34
  -4  12   2  112.03   33.07
   4 -12  -2  137.47   31.26
  -4 -12   2  149.22   34.51
  -4 -12   2  127.46   21.28
   4  12  -2  131.43   32.20
   3  12  -2  178.27   35.02
  -3 -12   2  156.31   21.39
  -3  12   2  179.76   34.52
  -3 -12   2  163.04   31.40
   3 -12  -2  156.11   29.68
   2  12  -2  338.20   33.37
  -2  12   2  379.43   39.75
  -2 -12   2  384.24   34.41
  -2 -12   2  358.99   27.01
  -1  12   2   67.92   22.59
   1 -12  -2   48.23   15.68
   1  12  -2   45.70   14.64
  -1 -12   2   52.87   14.26
   1  12  -2   62.70   20.59
   0 -12  -2   19.51   15.47
   0  12   2   29.98   11.00
   0 -12   2   47.42   14.61
   0 -12  -2   32.93   12.64
   0  12   2   33.65   17.36
   0  12  -2   29.85   16.02
   0  12  -2   28.97   17.38
   1  12   2  527.43   34.30
  -1  12  -2  499.72   38.97
   1  12   2  545.20   37.62
   1 -12   2  434.25   33.01
  -1  12  -2  472.61   35.74
  -1 -12  -2  532.30   37.05
   2  12   2   81.64   20.40
  -2  12  -2   98.88   24.95
   2  12   2   95.76   23.81
  -2 -12  -2   87.94   21.94
   2 -12   2  104.76   23.65
  -2  12  -2   80.98   28.21
   3  12   2  109.37   22.15
   3 -12   2  126.26   26.67
  -3  12  -2   77.88   26.25
   3  12   2   54.63   21.32
  -3  12  -2   91.73   31.20
  -3 -12  -2  120.09   29.55
   4  12   2  326.08   48.57
  -4 -12  -2  362.80   45.01
  -4  12  -2  334.00   46.64
  -4  12  -2  282.83   46.71
   4 -12   2  353.52   44.54
   4  12   2  359.27   38.65
  -5  12  -2   21.65   32.65
   5  12   2   28.25   23.65
  -5  12  -2   22.48   26.17
   5  12   2    0.18   20.06
   5 -12   2   37.24   21.18
  -6  12  -2  121.14   37.90
   6  12   2   66.34   26.21
   6  12   2   52.62   33.32
   6 -12   2   75.57   30.04
   7  12   2   19.89   33.70
  -7  12  -2  126.00   42.42
   7 -12   2  137.16   39.62
   7  13  -2  174.52   47.49
   7 -13  -2  158.12   42.55
  -7  13   2  253.68   57.32
   6  13  -2  205.58   46.53
   6 -13  -2  238.66   48.12
  -6 -13   2  281.73   57.64
  -6  13   2   70.52   34.04
  -5  13   2    2.25   27.37
   5  13  -2   69.95   27.52
  -5 -13   2   55.31   29.54
   5 -13  -2   43.21   26.12
   4 -13  -2    2.17   17.49
  -4 -13   2    8.96   14.42
  -4 -13   2   -4.67   24.09
  -4  13   2   15.37   24.52
   4  13  -2   32.94   20.02
   3  13  -2   32.31   20.49
   3 -13  -2   20.29   16.86
  -3 -13   2   24.73   21.35
  -3 -13   2   20.04   13.91
  -3  13   2   12.58   22.77
   2  13  -2  187.49   33.89
  -2  13   2  157.27   32.18
  -2 -13   2  200.72   23.20
  -2 -13   2  151.96   28.76
   2  13  -2  101.33   15.84
  -1  13   2   61.30   23.38
   1  13  -2   38.05   16.29
   1 -13  -2   55.58   18.27
   1  13  -2   49.49   18.99
  -1 -13   2   76.42   18.62
   0  13   2   84.91   23.57
   0 -13  -2  110.97   17.99
   0  13  -2   90.19   23.63
   0  13  -2  102.28   21.29
   0 -13  -2  123.42   22.56
   0 -13   2  102.36   20.61
   0  13   2  118.05   18.69
  -1  13  -2   51.20   22.13
   1 -13   2   53.80   16.68
  -1  13  -2   55.90   21.35
   1  13   2   65.09   18.44
   1  13   2   75.43   20.03
  -1 -13  -2   81.44   22.33
  -2 -13  -2  330.99   39.12
   2 -13   2  329.61   36.38
   2  13   2  329.12   33.38
  -2  13  -2  404.45   41.40
  -2  13  -2  274.92   40.95
   2  13   2  308.07   29.79
   3 -13   2  147.52   29.52
  -3  13  -2  127.46   37.30
   3  13   2  173.03   27.95
  -3 -13  -2  166.23   33.33
  -3  13  -2  161.30   32.22
  -4  13  -2   44.45   26.57
   4 -13   2   68.71   22.75
   4  13   2   57.89   24.17
   4  13   2   61.16   21.98
  -4  13  -2   18.74   30.44
   5  13   2  165.12   33.54
   5 -13   2  111.13   29.97
   5  13   2  132.90   35.79
  -5  13  -2  199.54   42.86
   6 -13   2   42.44   26.70
   6  13   2   16.49   23.50
   6  13   2   -2.48   26.76
  -6  13  -2   81.34   35.74
  -7  13  -2   44.71   38.28
   7  13   2   61.33   35.71
   7 -13   2   79.15   36.84
   7 -14  -2  133.01   42.08
  -7  14   2   77.84   47.50
   7  14  -2   47.32   42.27
  -6  14   2   18.39   24.40
   6  14  -2   90.99   34.42
   6 -14  -2   84.71   33.09
  -5 -14   2   66.68   34.06
   5  14  -2   32.39   23.57
  -5  14   2   35.55   32.86
   5 -14  -2   37.24   23.54
   4  14  -2   81.69   30.37
  -4  14   2  121.11   34.49
  -4 -14   2   86.76   30.57
   4 -14  -2  130.77   30.98
  -3  14   2  478.17   51.14
   3  14  -2  447.15   45.85
  -3 -14   2  476.41   42.86
   3 -14  -2  481.51   44.38
  -3 -14   2  482.02   33.89
   2  14  -2  127.16   31.70
  -2  14   2  112.27   30.07
  -2 -14   2  108.14   24.59
  -2 -14   2  118.98   20.01
   2  14  -2   88.83   17.59
   1 -14  -2   15.59   14.30
   1  14  -2   14.44   15.16
  -1 -14   2    8.22   12.76
  -1  14   2    4.84   20.50
   1  14  -2   43.51   19.04
   0  14  -2  120.46   23.78
   0  14  -2   57.22   22.36
   0 -14   2   91.81   20.22
   0  14   2  116.08   20.00
   0  14   2  101.42   24.81
   0 -14  -2  123.91   25.08
   0 -14  -2  104.90   18.81
  -1  14  -2  526.71   40.58
   1  14   2  531.71   39.02
  -1  14  -2  537.11   40.53
   1  14   2  541.54   38.54
  -1 -14  -2  556.39   40.79
  -2 -14  -2  101.56   27.97
   2 -14   2   79.89   21.80
   2  14   2  103.81   26.41
  -2  14  -2   72.11   24.19
  -2  14  -2    8.05   26.83
   2  14   2   92.54   21.60
  -3 -14  -2  116.18   31.23
  -3  14  -2   84.11   28.63
   3  14   2  135.58   27.72
  -3  14  -2  141.99   36.56
   3 -14   2   93.69   25.06
   4 -14   2  118.76   30.71
   4  14   2   45.74   27.55
  -4  14  -2   93.23   29.94
   4  14   2  105.24   27.74
  -4  14  -2   73.17   35.69
  -4 -14  -2  111.10   32.01
   5 -14   2   53.22   27.14
   5  14   2   37.69   28.67
  -5  14  -2   21.71   29.68
   5  14   2   -2.57   24.48
   6 -14   2   40.41   29.84
  -6  14  -2   99.62   37.27
   6  14   2   90.28   35.82
   7 -14   2   25.61   33.78
   7  14   2  -49.66   26.57
  -7  14  -2  -41.57   32.22
   6 -15  -2   15.16   25.44
   6  15  -2    8.85   27.94
  -6  15   2   22.56   32.78
  -5 -15   2   30.42   27.92
   5 -15  -2    7.27   21.26
  -5  15   2  -12.45   26.25
   5  15  -2   25.40   26.51
  -4 -15   2   31.64   26.69
   4  15  -2   29.87   21.81
  -4  15   2   40.23   28.10
   4 -15  -2   30.46   21.28
   3 -15  -2  139.44   30.69
   3  15  -2  175.99   38.69
  -3  15   2  186.26   38.71
  -3 -15   2  235.95   27.19
  -3 -15   2  192.32   36.34
   2 -15  -2   37.89   16.83
  -2  15   2   60.58   27.32
   2  15  -2   28.22   16.77
  -2 -15   2   73.11   24.08
  -2 -15   2   66.28   17.73
   2  15  -2   22.86   15.96
  -1  15   2   41.59   23.47
   1  15  -2  114.13   27.33
   1  15  -2   49.85   18.87
  -1 -15   2   78.95   17.79
   1 -15  -2   49.36   18.62
   0  15   2  105.86   26.90
   0  15  -2  115.60   26.21
   0 -15  -2  112.21   25.14
   0  15   2   80.36   18.40
   0 -15   2  102.86   22.32
   0 -15  -2   99.05   19.40
   0  15  -2   79.84   24.21
   1  15   2  218.32   31.05
   1  15   2  259.47   33.30
  -1 -15  -2  273.96   39.10
  -1  15  -2  241.10   32.55
  -1  15  -2  266.92   36.42
  -2  15  -2  120.51   27.09
  -2 -15  -2  110.87   29.43
   2  15   2   66.65   24.34
   2  15   2   63.85   20.25
   2 -15   2   88.31   22.36
  -2  15  -2   75.66   29.33
  -3 -15  -2  223.49   38.07
   3 -15   2  206.26   34.73
   3  15   2  248.83   34.36
   3  15   2  237.49   42.89
  -3  15  -2  226.89   38.05
  -3  15  -2  192.57   37.98
   4  15   2  155.86   30.79
   4 -15   2   90.17   28.25
  -4  15  -2   84.88   36.85
  -4  15  -2   83.25   29.16
  -4 -15  -2   64.27   30.91
   4  15   2   96.99   32.63
  -5  15  -2   38.98   32.48
   5 -15   2   47.32   25.88
   5  15   2    7.73   22.66
  -5 -15  -2   46.52   31.72
   5  15   2   34.41   26.03
  -6  15  -2    1.36   28.87
   6 -15   2  -22.78   22.45
   6  15   2   -4.60   26.43
   6 -16  -2   39.86   28.35
  -6 -16   2  211.46   51.26
   6  16  -2   69.64   33.57
  -6  16   2  175.47   50.62
  -5  16   2   -6.69   29.78
   5  16  -2   15.15   24.11
   5 -16  -2   44.58   24.34
  -5 -16   2   57.86   31.77
   4 -16  -2  180.19   39.44
  -4 -16   2  209.83   40.62
   4  16  -2  208.73   44.26
  -4  16   2  132.01   38.17
  -3  16   2   56.59   30.10
  -3 -16   2   41.78   27.57
   3  16  -2   38.56   24.42
  -3 -16   2   73.02   19.08
   3 -16  -2   60.70   21.91
   2 -16  -2  352.39   41.49
  -2 -16   2  323.86   29.67
   2  16  -2  300.42   27.68
  -2  16   2  305.67   42.58
  -1 -16   2   72.65   18.43
   1  16  -2   41.01   23.86
   1  16  -2   32.04   19.20
  -1  16   2   74.86   26.34
   1 -16  -2   55.06   18.10
   0 -16  -2   24.89   14.35
   0  16  -2   22.16   20.44
   0  16  -2   24.28   16.18
   0  16   2   34.78   22.41
   0  16   2   43.05   15.34
   0 -16   2   40.18   16.62
   1  16   2  736.14   47.56
  -1 -16  -2  774.76   40.09
  -1 -16  -2  681.60   50.17
  -1  16  -2  729.59   48.53
  -1  16  -2  740.08   49.47
   1  16   2  745.04   48.68
  -2  16  -2  210.32   35.67
   2 -16   2  178.43   31.53
   2  16   2  245.21   33.90
  -2  16  -2  163.51   33.31
  -2 -16  -2  191.99   36.02
   2  16   2  246.76   39.32
   3  16   2   63.25   27.22
  -3  16  -2   25.48   23.60
  -3  16  -2   51.53   27.89
   3 -16   2   39.62   19.94
  -3 -16  -2   17.96   24.72
   3  16   2   60.57   24.46
   4  16   2   31.36   25.84
  -4 -16  -2    4.82   27.14
   4 -16   2   15.57   18.32
  -4  16  -2   12.03   22.41
   4  16   2    8.72   21.73
   5  16   2   -3.17   23.76
  -5  16  -2    1.99   24.56
   5  16   2  -46.82   20.87
   5 -16   2    1.23   17.94
  -6  16  -2    1.51   30.80
   6 -16   2   43.58   29.64
   6  16   2   24.23   29.71
  -6  17   2   54.69   41.42
   6 -17  -2   30.13   31.86
   6  17  -2    1.99   27.35
  -5 -17   2  118.76   38.17
   5 -17  -2  135.30   33.80
   5  17  -2   54.21   27.58
  -5  17   2   97.20   38.41
  -4 -17   2   15.61   25.64
  -4  17   2    3.72   30.97
   4 -17  -2   16.36   19.05
   4  17  -2   28.72   22.62
   3  17  -2  119.78   34.45
  -3  17   2  141.94   37.02
   3 -17  -2  195.52   37.07
  -3 -17   2  149.44   36.44
   2  17  -2   75.21   19.76
   2 -17  -2  149.72   32.42
  -2  17   2  115.42   33.60
  -2 -17   2  200.32   27.85
   1 -17  -2  323.72   37.15
  -1  17   2  285.87   40.53
   1  17  -2  383.57   48.99
   1  17  -2  242.26   31.74
  -1 -17   2  366.90   31.87
   0  17  -2  100.21   26.89
   0  17   2  108.37   30.41
   0 -17  -2  129.86   23.05
   0 -17   2   97.93   21.89
   0  17   2  112.86   21.45
   0  17  -2  147.62   32.04
  -1 -17  -2   28.50   26.34
   1  17   2   59.32   18.95
  -1  17  -2   46.77   21.75
   1 -17   2   -7.80    9.17
  -1 -17  -2   36.56   13.87
   1  17   2   35.14   21.38
  -1  17  -2   38.93   20.78
  -2  17  -2   72.81   27.42
   2  17   2   61.45   23.38
   2  17   2   55.48   24.60
  -2 -17  -2   93.49   29.32
   2 -17   2   63.53   19.09
  -2  17  -2   54.95   25.59
  -3 -17  -2   29.34   25.44
  -3  17  -2   -0.03   22.83
   3 -17   2   10.71   14.84
   3  17   2  -21.22   17.73
   3  17   2   19.45   21.18
  -3  17  -2   17.59   25.48
   4  17   2    2.38   21.34
  -4 -17  -2  -29.79   23.10
   4 -17   2   18.75   19.24
   4  17   2   13.10   20.88
  -4  17  -2   13.53   26.43
  -5  17  -2   44.19   28.87
   5  17   2   82.94   29.17
   5  17   2   64.55   34.12
  -5 -17  -2  123.32   40.91
   5 -17   2   42.08   27.84
  -6  17  -2  138.74   44.13
   6  17   2   73.06   36.09
   6 -17   2   37.61   29.73
  -6  18   2   81.95   43.13
   6  18  -2   -6.47   29.14
   6 -18  -2   -3.80   25.77
  -5 -18   2   39.80   35.63
   5  18  -2   20.41   24.35
  -5  18   2   18.46   31.38
   5 -18  -2    6.99   24.11
   4  18  -2  101.45   32.87
  -4 -18   2   53.13   28.32
   4 -18  -2   39.81   24.40
  -4  18   2   71.57   35.32
  -3  18   2   94.34   32.06
  -3 -18   2   51.30   27.05
   3 -18  -2   73.46   25.27
   3  18  -2   88.36   31.37
   2  18  -2   51.33   19.93
   2 -18  -2   38.37   20.51
  -2 -18   2   80.54   20.30
  -2  18   2   34.90   28.17
   2  18  -2   59.36   27.54
  -1 -18   2  147.30   25.70
   1  18  -2  156.42   26.99
   1 -18  -2  132.82   27.52
  -1  18   2  145.13   22.01
  -1  18   2  114.95   31.66
   1  18  -2  116.50   32.26
   0 -18   2   29.60   16.56
   0  18  -2   28.20   21.62
   0  18   2   40.33   24.32
   0 -18  -2    9.90   15.03
   0  18  -2   39.64   23.32
   0  18   2   31.75   15.80
  -1  18  -2  158.52   30.09
  -1  18  -2  129.73   31.88
   1  18   2  137.59   26.04
  -1 -18  -2  160.22   36.55
   1 -18   2  166.02   30.09
  -1 -18  -2  126.44   21.30
   1  18   2  161.03   30.72
  -2 -18  -2   43.03   28.06
  -2  18  -2   26.44   21.99
   2  18   2   10.38   19.86
  -2  18  -2   -6.57   20.14
   2  18   2    7.85   18.51
   2 -18   2   13.58   16.19
   3 -18   2  174.53   35.87
  -3  18  -2   98.74   34.04
  -3  18  -2  146.69   33.62
   3  18   2  129.61   35.52
  -3 -18  -2  161.36   38.76
   3  18   2  153.36   32.70
   4  18   2   -0.53   19.09
   4  18   2   46.92   26.67
   4 -18   2   21.52   22.01
  -4  18  -2   29.28   28.27
  -4 -18  -2   13.49   26.19
   5  18   2   35.61   27.40
  -5  18  -2  -23.77   23.63
   5 -18   2   11.72   23.03
   6 -18   2   13.15   27.40
  -6  18  -2   33.77   38.17
   6  18   2   47.76   34.17
   6  19  -2   -0.39   31.32
   6 -19  -2   13.86   28.25
  -6  19   2  117.19   47.04
   5  19  -2   57.43   33.56
  -5 -19   2   13.10   31.26
  -5  19   2   56.36   36.88
   5 -19  -2   92.69   33.20
   4  19  -2   -6.47   22.11
  -4 -19   2   43.51   26.91
   4 -19  -2   29.94   25.11
  -4  19   2  -20.17   26.82
   3 -19  -2  120.17   32.35
  -3  19   2  136.48   37.22
   3  19  -2  113.76   34.20
  -2  19   2    4.91   24.21
  -2 -19   2   63.85   20.28
   2  19  -2   43.85   19.80
   2  19  -2   86.47   30.30
   2 -19  -2   41.33   22.55
  -1 -19   2    4.17   13.71
   1  19  -2   12.34   19.47
   1  19  -2  -11.87   18.54
   1 -19  -2   33.19   14.88
  -1  19   2  -18.47   21.39
   0  19   2   65.01   26.89
   0  19  -2  124.71   30.81
   0 -19   2  115.89   25.20
   0  19   2   92.37   22.59
   0  19  -2   97.82   26.54
   0 -19  -2   93.43   21.88
   1  19   2  204.69   35.90
   1  19   2  241.04   37.62
  -1 -19  -2  152.25   35.45
  -1  19  -2  241.51   37.06
  -1  19  -2  205.53   36.01
   1 -19   2  262.77   37.41
  -2  19  -2  122.49   32.39
   2 -19   2  108.40   28.49
   2  19   2   80.34   29.26
   2  19   2   61.39   24.19
  -2 -19  -2   80.39   31.92
  -2  19  -2  109.41   25.53
   3  19   2   27.29   24.17
  -3  19  -2    7.99   26.68
  -3 -19  -2    1.88   26.33
   3  19   2   16.42   25.58
   3 -19   2   25.44   18.28
  -4  19  -2   12.25   30.58
   4 -19   2   46.80   26.23
   4  19   2   22.12   22.07
  -4 -19  -2   35.56   32.67
   4  19   2   92.79   30.95
   5  19   2   74.14   33.24
  -5  19  -2   11.25   30.52
   5 -19   2   -7.86   19.72
   6 -19   2   -1.84   23.53
  -6  19  -2   41.48   39.11
   6  19   2   36.97   29.70
   5  20  -2   91.56   37.34
  -5  20   2   98.50   43.10
  -5 -20   2   -1.25   27.81
   5 -20  -2  137.81   37.18
  -4  20   2  155.91   45.46
   4 -20  -2  209.16   42.42
  -4 -20   2  119.50   39.45
   4  20  -2  168.74   45.17
  -3 -20   2   -1.63   22.21
   3  20  -2   32.76   25.57
  -3  20   2   24.66   26.77
   3 -20  -2  -13.16   16.47
   2  20  -2  100.52   34.22
  -2 -20   2  125.79   26.08
   2 -20  -2  117.41   30.63
  -2  20   2  105.49   34.11
  -1 -20   2   87.48   22.30
   1  20  -2  114.97   26.87
  -1  20   2  132.05   32.68
   1  20  -2  106.97   34.20
   1 -20  -2  103.56   25.84
   0  20   2  122.52   25.54
   0  20   2   69.83   29.56
   0 -20  -2  111.75   25.87
   0 -20   2  120.19   26.20
   0  20  -2  156.08   36.68
   0  20  -2  124.77   29.73
   1 -20   2   21.95   15.80
   1  20   2   -8.52   18.21
  -1  20  -2  -14.74   21.21
   1  20   2   -4.13   19.82
  -1  20  -2    5.94   18.04
   2 -20   2   91.77   28.62
   2  20   2   79.46   25.87
  -2 -20  -2   87.60   35.99
  -2  20  -2  104.78   29.19
   2  20   2  102.48   29.99
  -2  20  -2   76.41   24.74
   3  20   2   -0.58   24.21
   3 -20   2   10.38   18.88
  -3  20  -2   -7.76   24.31
  -3 -20  -2   18.59   28.25
   3  20   2   -0.56   23.43
   4  20   2   62.02   27.93
  -4 -20  -2   38.57   32.67
  -4  20  -2   30.65   26.06
   4  20   2   17.18   28.02
   4 -20   2   28.04   21.08
  -5  20  -2  -10.58   27.78
   5 -20   2    7.15   25.36
  -5 -20  -2   -9.81   33.65
   5  20   2   36.02   32.68
   5 -21  -2   52.07   28.17
  -5 -21   2   32.38   33.55
   5  21  -2   -5.48   27.59
  -5  21   2   32.20   37.29
   4 -21  -2   13.79   26.23
  -4  21   2   15.47   33.68
   4  21  -2   -3.33   22.72
  -3  21   2  113.61   37.79
   3 -21  -2   47.87   24.30
   3  21  -2  121.91   40.41
   2  21  -2   73.77   31.69
  -2  21   2   56.84   30.59
   2 -21  -2   65.66   25.84
   1  21  -2   13.93   20.97
   1  21  -2   11.61   23.24
  -1 -21   2   27.99   18.39
   1 -21  -2   17.41   18.74
  -1  21   2   40.58   29.49
   0  21  -2   91.98   26.94
   0 -21   2   98.51   27.73
   0  21   2   89.70   22.44
   0  21   2  113.71   32.29
   0 -21  -2  106.21   24.53
   0  21  -2  136.17   31.88
   1 -21   2   13.21   18.08
  -1  21  -2   22.36   22.54
   1  21   2   -3.24   19.31
   1  21   2   31.07   23.04
  -1  21  -2   28.73   24.23
  -1 -21  -2   -4.74   26.68
  -2 -21  -2   22.34   31.15
  -2  21  -2   90.74   25.66
   2  21   2   10.38   22.02
  -2  21  -2  101.99   32.85
   2 -21   2   27.32   19.41
   2  21   2   16.86   20.47
  -3  21  -2   15.30   26.08
  -3 -21  -2   20.52   28.45
   3  21   2   39.04   29.73
   3 -21   2   32.92   21.10
   3  21   2   49.48   28.20
   4  21   2   52.81   29.30
  -4  21  -2   50.76   34.46
   4 -21   2    2.28   21.33
  -4 -21  -2    2.68   34.38
   4  21   2   25.02   28.34
   5  21   2  -30.57   27.23
   5 -21   2   -7.12   24.47
  -5  21  -2   62.56   35.39
   5 -22  -2   71.96   33.16
  -5  22   2   84.48   43.73
   5  22  -2   35.23   33.35
   4 -22  -2  109.67   36.56
   4  22  -2  125.17   41.90
  -4  22   2    1.83   27.98
   3  22  -2  -19.61   18.21
   3 -22  -2    0.18   16.83
  -3  22   2   -2.70   30.53
   2 -22  -2   54.87   24.53
  -2  22   2   16.77   27.22
   2  22  -2   33.31   25.34
  -1  22   2  100.61   34.09
   1  22  -2  101.49   34.32
   1 -22  -2   62.48   23.79
  -1 -22   2  111.48   24.46
   1  22  -2   82.21   29.61
   0 -22   2   52.52   20.10
   0 -22  -2   49.67   18.01
   0  22  -2   66.17   26.15
   0  22  -2   74.17   30.00
   0  22   2   68.76   27.91
   1  22   2   12.30   19.46
   1  22   2   64.27   26.96
  -1  22  -2    7.37   21.11
  -1  22  -2   35.34   25.56
   1 -22   2    8.38   14.89
   2  22   2   87.14   31.75
  -2  22  -2  124.52   35.85
   2  22   2  128.39   36.86
   2 -22   2  113.07   29.71
   3 -22   2   56.22   24.93
   3  22   2   31.70   30.13
   3  22   2   57.72   30.18
  -3  22  -2   74.06   32.46
  -4  22  -2   73.17   35.73
   4 -22   2  156.92   39.32
   4  22   2  100.96   34.76
   5 -22   2  -13.12   23.80
   5  22   2   34.65   33.12
  -5 -22  -2   -4.99   34.22
  -5  22  -2  -38.82   25.97
   5 -23  -2  125.98   36.98
   5  23  -2   37.63   34.16
  -5  23   2   92.71   43.09
   4  23  -2    6.20   27.75
  -4  23   2    5.35   30.62
   4 -23  -2   12.22   26.95
   3 -23  -2  -28.29   17.00
   3  23  -2    9.81   22.89
  -3  23   2   37.73   31.57
  -2  23   2    7.48   24.60
   2  23  -2   20.02   27.20
   2 -23  -2    7.03   22.31
  -1 -23   2   16.83   18.54
   1 -23  -2   10.89   17.87
   1  23  -2   32.24   25.36
  -1  23   2  105.56   31.43
   1  23  -2   34.09   28.41
   0 -23   2    7.98   18.22
   0  23  -2   87.37   28.65
   0  23  -2   38.76   23.32
   0  23   2   44.75   29.05
   1  23   2    7.19   21.47
  -1  23  -2   21.26   28.44
   1 -23   2   36.82   20.00
  -1  23  -2   48.46   25.06
   1  23   2   24.60   22.43
   2  23   2   57.03   25.65
   2  23   2   45.41   26.61
  -2  23  -2   42.54   27.21
   2 -23   2   23.63   18.24
  -3 -23  -2  -31.55   35.50
   3 -23   2   30.66   27.00
  -3  23  -2  -26.52   27.13
   3  23   2  -22.85   26.25
   3  23   2  -14.98   27.63
   4 -23   2   39.54   30.03
  -4  23  -2   59.23   32.38
   4  23   2   66.52   30.69
  -4 -23  -2   24.62   36.11
   5  23   2  -24.15   26.15
  -5  23  -2  -37.72   29.93
   5 -23   2   14.46   26.97
   4 -24  -2  139.48   36.88
   4  24  -2  134.23   47.63
   3 -24  -2   45.66   23.62
   3  24  -2   18.92   29.47
  -3  24   2  -39.22   24.51
  -2  24   2   31.07   29.47
   2  24  -2    9.84   26.62
   2 -24  -2   20.80   22.04
  -1  24   2   77.26   32.86
  -1 -24   2   31.66   19.83
   1  24  -2   61.20   33.49
   1 -24  -2   33.93   21.20
   0  24   2   38.64   26.14
   0 -24   2   34.44   21.91
   0  24  -2   24.90   24.36
   0  24  -2   83.79   28.61
   1 -24   2   23.26   20.55
  -1  24  -2   31.78   26.67
   1  24   2    3.96   23.37
  -1  24  -2    1.49   23.29
   2  24   2  -14.96   20.74
   2 -24   2   20.64   16.13
  -2  24  -2   27.19   29.32
   2  24   2   21.15   26.39
   3  24   2   10.90   32.39
  -3  24  -2   -0.29   29.18
   3 -24   2   32.02   29.73
   3  24   2   -2.40   26.04
   4 -24   2   -4.96   20.59
  -4  24  -2   37.38   34.96
   4  24   2   30.15   27.77
   4  25  -2  -36.19   29.09
  -4  25   2   65.91   34.83
   4 -25  -2  -17.60   25.43
   3 -25  -2   48.55   29.51
  -3  25   2   43.18   33.58
   3  25  -2   71.52   39.37
  -2  25   2   46.88   31.01
   2 -25  -2   48.07   25.41
   2  25  -2   49.44   32.56
  -1  25   2  -10.28   26.73
   1 -25  -2  -13.82   18.84
   1  25  -2   10.02   29.90
   0  25   2   39.35   26.18
   0  25  -2   37.48   28.00
   0  25  -2    0.90   25.67
   0 -25   2  -10.81   17.08
   1 -25   2    3.15   20.57
  -1  25  -2    6.18   26.00
   1  25   2   -6.54   24.61
   2  25   2   19.54   27.27
   2  25   2   11.66   23.61
  -2  25  -2   47.65   33.17
   2 -25   2    7.61   18.01
  -3  25  -2   44.58   34.61
   3  25   2   35.51   31.68
   3 -25   2   10.42   24.06
   4  25   2  -19.34   27.12
   4 -25   2  -10.55   22.14
  -4  25  -2  -40.04   30.78
  -4 -25  -2   11.46   39.54
   3  26  -2   44.61   38.05
   3 -26  -2   26.28   26.06
  -3  26   2   71.78   33.18
   2 -26  -2   74.15   30.28
   2  26  -2   42.51   32.77
  -2  26   2   38.83   33.76
   1  26  -2  -28.66   27.31
  -1  26   2  112.93   36.02
   0  26  -2   58.17   29.31
   0  26  -2  -17.63   25.49
   0  26   2   47.07   30.51
   0 -26   2    9.70   20.17
   1 -26   2   29.60   22.86
  -1  26  -2   41.71   29.66
   1  26   2   41.48   29.98
   2  26   2    4.21   25.53
  -2  26  -2   88.27   38.02
   2  26   2    6.36   29.50
   2 -26   2   14.19   21.95
  -3 -26  -2   -2.36   37.57
   3  26   2   42.87   30.04
   3 -26   2  -13.40   22.91
  -3  26  -2   14.65   31.63
   3  27  -2   82.99   42.88
  -3  27   2   95.48   37.58
   3 -27  -2   24.09   24.91
   2 -27  -2    0.83   27.90
  -2  27   2   64.43   38.42
   2  27  -2   16.13   32.07
   1  27  -2   64.20   35.61
  -1  27   2  126.89   40.02
   0  27   2   58.48   32.41
   0 -27   2  -14.66   19.04
   1 -27   2   60.81   28.23
  -1  27  -2   36.62   28.58
   1  27   2   32.78   31.14
   2 -27   2    0.29   22.95
  -2  27  -2   -8.99   29.28
   2  27   2   56.66   34.80
   3 -27   2   16.20   27.94
   3  27   2   49.10   31.61
  -3  27  -2   25.61   31.78
   2  28  -2   20.37   37.62
   2 -28  -2   31.59   26.27
  -2  28   2   67.06   34.42
  -1  28   2   91.92   37.52
   1  28  -2   80.10   39.87
   0  28   2    9.45   29.58
   1 -28   2   44.50   25.10
  -1  28  -2   77.87   35.50
   1  28   2   46.29   31.33
  -2  28  -2   20.03   28.71
   2 -28   2   52.06   31.04
  -1  29   2   31.06   35.08
   0  29   2   52.41   35.28
   1 -29   2   47.78   28.66
  -1  29  -2  116.16   37.71
   1  29   2   37.86   39.37
  -7   0   3   25.38   25.11
  -6   0   3  125.34   27.25
   6   0  -3   95.72   31.28
  -6   0   3  108.08   31.21
   5   0  -3   47.89   22.54
  -5   0   3   65.13   21.74
  -5   0   3   34.85   20.84
   4   0  -3   18.97   14.02
  -4   0   3   16.95   15.30
  -4   0   3    4.28   14.47
   4   0  -3   -5.07   13.15
   3   0  -3  741.33   39.06
  -3   0   3  748.34   41.63
  -3   0   3  695.15   35.60
   3   0  -3  728.52   39.39
  -2   0   3  507.37   26.67
  -2   0   3  548.53   32.15
   2   0  -3  497.36   29.19
   2   0  -3  516.65   30.86
   1   0  -3  919.24   35.54
   1   0  -3  933.10   36.44
  -1   0   3  869.25   29.81
  -1   0   3  894.68   38.51
   0   0   3   25.06    9.10
   0   0  -3   35.43   15.39
   0   0   3   16.37    8.81
   1   0   3   10.85    6.75
  -1   0  -3   -4.29   12.13
   1   0   3   -1.85    6.56
   2   0   3  349.56   21.53
  -2   0  -3  385.43   33.59
   2   0   3  341.49   27.09
  -3   0  -3  278.39   38.32
   3   0   3  247.73   28.90
  -3   0  -3  203.13   31.31
   3   0   3  206.41   19.87
  -4   0  -3   48.74   21.85
   4   0   3   63.06   19.34
  -4   0  -3   46.79   26.68
   4   0   3   68.60   17.93
   5   0   3  170.82   33.98
   5   0   3  206.35   29.54
  -5   0  -3  234.55   46.18
   6   0   3   15.10   23.02
  -6   0  -3  -30.35   26.64
  -6   0  -3   51.72   30.63
   7   0   3   24.72   26.21
  -7   0  -3    9.60   33.76
  -7   0  -3   57.19   34.00
   7   1  -3   23.51   33.87
  -7   1   3  -29.15   25.01
  -7  -1   3   61.06   26.90
   6   1  -3   93.00   31.98
  -6   1   3   81.39   31.67
  -6  -1   3   44.36   23.50
  -6   1   3   94.76   27.34
   6  -1  -3   87.51   30.48
  -5  -1   3  514.95   44.14
  -5   1   3  518.35   40.06
   5  -1  -3  552.74   42.91
  -5  -1   3  566.06   38.84
   5   1  -3  556.90   44.88
   4   1  -3  325.75   37.07
   4  -1  -3  293.31   28.10
   4   1  -3  338.10   39.13
  -4   1   3  288.28   28.32
  -4  -1   3  288.87   25.44
  -4  -1   3  289.39   33.93
  -3  -1   3  171.94   25.29
  -3   1   3  159.36   21.41
  -3  -1   3  123.87   17.79
   3  -1  -3  175.72   22.44
   3   1  -3  157.71   23.53
   3   1  -3  147.20   23.90
   3  -1  -3  155.02   24.43
   2   1  -3 1565.86   55.52
  -2   1   3 1523.25   49.92
  -2   1   3 1492.66   56.89
   2   1  -3 1531.47   55.22
   2  -1  -3 1501.96   51.38
   2  -1  -3 1540.26   54.81
   1  -1  -3  414.57   22.91
   1   1  -3  404.33   25.59
  -1   1   3  397.26   25.75
  -1  -1   3  440.61   26.20
   1  -1  -3  451.30   24.95
  -1   1   3  414.85   22.19
   0  -1   3  371.29   19.53
   0  -1   3  429.47   22.19
   0  -1  -3  394.08   25.71
   0   1   3  402.06   21.60
   0   1  -3  428.75   29.25
   0   1   3  418.99   21.22
  -1   1  -3   46.09   16.55
  -1  -1  -3   32.24   15.36
   1  -1   3   42.54   10.25
   1   1   3   55.29   13.22
   1   1   3   36.47    8.82
  -2  -1  -3  763.19   46.33
   2   1   3  800.52   30.64
   2  -1   3  782.11   40.09
  -2  -1  -3  791.22   45.37
   2   1   3  783.75   38.92
   2  -1   3  739.81   32.85
   3  -1   3  248.77   28.83
  -3  -1  -3  273.51   34.64
   3   1   3  268.82   20.42
   3   1   3  262.96   25.63
  -3   1  -3  251.42   36.70
  -3   1  -3  230.26   33.09
   3  -1   3  245.42   21.76
   4   1   3  272.01   35.27
   4  -1   3  321.79   36.21
  -4  -1  -3  276.27   42.00
   4   1   3  262.02   24.64
  -4  -1  -3  253.55   45.04
  -4   1  -3  295.79   44.19
   4  -1   3  274.69   25.54
   5  -1   3  170.19   28.44
   5  -1   3  236.14   37.43
  -5  -1  -3  131.74   34.84
   5   1   3  213.31   35.44
  -5   1  -3  204.37   43.34
  -5  -1  -3  179.33   42.71
  -5   1  -3  220.62   43.17
   5   1   3  160.65   25.67
  -6  -1  -3   -9.41   18.62
   6  -1   3   20.72   22.32
  -6  -1  -3   38.28   31.57
   6   1   3   19.39   20.96
  -6   1  -3   63.59   30.16
  -6   1  -3   -3.70   26.84
  -7   1  -3  -25.68   28.58
  -7  -1  -3   25.03   35.74
   7   1   3   31.84   27.63
   7  -1   3   46.35   26.77
  -7  -1  -3   70.81   38.67
   7   2  -3   44.92   34.52
  -7  -2   3  130.71   30.41
  -7   2   3   89.21   34.85
   6   2  -3  172.89   36.55
   6  -2  -3  207.83   41.66
  -6   2   3  177.37   34.32
  -6  -2   3  215.30   37.13
  -5  -2   3  455.47   34.83
   5  -2  -3  452.50   50.74
   5  -2  -3  437.39   37.40
  -5   2   3  411.88   37.69
  -5  -2   3  387.39   37.39
   5   2  -3  424.94   41.71
  -4  -2   3   80.41   22.26
  -4   2   3   32.50   18.91
   4   2  -3   29.96   20.63
   4  -2  -3   86.99   23.14
   4   2  -3   75.52   20.97
   4  -2  -3   47.36   18.11
   3  -2  -3  242.33   26.75
  -3  -2   3  303.13   27.36
   3  -2  -3  255.52   22.71
   3   2  -3  288.39   27.09
  -3   2   3  252.41   23.54
   3   2  -3  288.67   27.78
   3  -2  -3  294.85   32.74
   2   2  -3  529.89   30.31
  -2   2   3  523.73   28.90
   2   2  -3  529.43   31.23
   2  -2  -3  530.64   34.54
   2  -2  -3  513.97   31.39
  -1   2   3 1360.24   44.06
  -1   2   3 1389.61   49.05
   1   2  -3 1418.22   49.85
  -1  -2   3 1310.78   47.91
   1  -2  -3 1442.35   48.47
   0   2   3  200.67   15.78
   0  -2   3  187.48   14.68
   0   2  -3  289.83   29.04
   0  -2  -3  196.91   19.06
   0  -2   3  190.60   16.63
   0  -2  -3  209.59   18.75
   0   2   3  183.02   17.03
   1   2   3  295.21   22.06
  -1  -2  -3  375.48   28.15
  -1  -2  -3  262.31   26.08
  -1   2  -3  298.61   24.54
   1  -2   3  310.24   19.82
  -2   2  -3 1046.82   52.42
  -2  -2  -3  981.96   52.53
   2  -2   3  966.35   45.80
  -2  -2  -3 1000.32   55.09
   2  -2   3 1020.14   40.17
   2   2   3  989.97   44.74
   3   2   3  100.13   19.83
   3  -2   3   75.94   17.86
   3  -2   3   64.04   18.13
  -3   2  -3   50.67   21.69
   4   2   3  112.05   19.48
   4   2   3  145.36   27.36
   4  -2   3  145.12   27.59
  -4   2  -3  111.36   32.70
   4  -2   3  110.26   22.11
  -4  -2  -3   84.92   34.88
   5   2   3  189.92   34.26
  -5   2  -3  198.82   42.78
   5   2   3  218.90   27.75
   5  -2   3  235.47   36.65
  -5  -2  -3  203.89   42.94
   5  -2   3  246.73   32.15
  -5  -2  -3  199.12   44.02
   6  -2   3    9.05   20.40
  -6  -2  -3   28.45   23.48
   6  -2   3   27.35   20.67
   6   2   3   17.90   22.42
  -6   2  -3   24.51   25.80
  -6  -2  -3   42.22   28.49
  -7  -2  -3   37.24   30.42
   7  -2   3   17.76   24.48
  -7   2  -3  -22.71   29.59
  -7  -2  -3   -6.92   25.84
   7   2   3   11.61   24.68
   7   3  -3   22.28   33.33
  -7   3   3  -18.26   25.29
  -6   3   3  165.38   34.24
  -6  -3   3  201.40   36.32
   6   3  -3  156.12   38.35
  -5  -3   3  178.58   31.10
   5  -3  -3  155.54   29.84
   5   3  -3  199.15   34.54
  -5   3   3  117.77   26.52
   5  -3  -3  132.01   32.24
  -4   3   3   95.84   23.29
   4   3  -3  100.28   24.23
  -4  -3   3  127.26   24.39
   4  -3  -3  107.21   27.14
   4  -3  -3  104.64   21.11
   4   3  -3   87.17   23.10
   3   3  -3  177.06   26.63
  -3  -3   3  164.63   24.44
  -3   3   3  192.20   25.05
   3  -3  -3  177.17   27.92
   3  -3  -3  155.58   19.50
   3   3  -3  181.10   27.41
   2   3  -3  995.82   44.73
  -2  -3   3 1020.39   44.99
   2  -3  -3  983.01   48.01
   2  -3  -3  995.80   42.93
  -2   3   3 1018.93   42.16
   2   3  -3 1060.77   45.33
  -1   3   3   26.75   13.02
   1  -3  -3    3.97    5.08
   1   3  -3   13.88    8.13
  -1  -3   3   44.42   11.40
   1  -3  -3   19.03   14.79
   1   3  -3   32.08   15.30
   0   3  -3  322.14   32.18
   0  -3   3  265.06   16.29
   0  -3  -3  285.22   20.19
   0   3   3  265.65   17.59
   0  -3   3  263.22   18.74
  -1  -3  -3  256.77   26.33
  -1  -3  -3  279.52   31.03
   1  -3   3  281.97   19.89
   1   3   3  252.10   21.44
   1  -3   3  267.74   20.71
   2   3   3  467.08   37.00
   2   3   3  463.87   29.47
   2  -3   3  516.91   28.53
  -2   3  -3  510.50   36.69
   2  -3   3  461.36   31.93
  -3   3  -3  128.42   29.11
   3   3   3  127.08   21.34
   3   3   3  130.29   27.84
   3  -3   3  130.83   23.68
   3  -3   3  110.24   20.08
  -4   3  -3   78.29   26.85
   4   3   3   85.95   21.79
   4  -3   3   63.72   17.43
   4  -3   3   40.50   20.03
  -5   3  -3  126.49   36.49
   5  -3   3  180.42   34.14
   5   3   3  122.82   30.18
   5  -3   3  172.21   29.52
   6   3   3   73.85   28.62
   6  -3   3   76.81   28.75
  -6   3  -3   73.35   32.85
  -6  -3  -3   10.67   29.55
   6  -3   3   78.65   26.21
  -6  -3  -3   44.06   32.62
   7  -3   3   30.53   23.19
  -7  -3  -3  -21.95   24.88
  -7   3  -3   -2.59   33.39
  -7  -3  -3   61.19   35.24
   7   3   3  -10.48   22.44
   7   4  -3   89.79   35.85
  -6  -4   3  252.80   38.48
   6  -4  -3  339.75   50.69
  -6   4   3  292.87   42.12
   6   4  -3  262.87   46.49
   5  -4  -3  147.58   34.49
  -5   4   3  144.04   30.11
  -5  -4   3  136.83   29.01
   5  -4  -3  144.23   29.02
   5   4  -3  177.65   35.30
   4  -4  -3   44.93   20.17
   4   4  -3  104.59   25.47
   4  -4  -3  109.86   20.57
   4   4  -3  120.13   16.79
  -4   4   3  106.89   23.41
  -4  -4   3   79.38   20.94
   4   4  -3   85.01   24.47
   3  -4  -3  322.92   26.35
   3   4  -3  359.56   30.11
   3   4  -3  337.76   30.81
  -3  -4   3  350.18   28.35
   3  -4  -3  343.62   36.47
  -3   4   3  359.57   29.71
  -2  -4   3  217.83   23.04
   2  -4  -3  230.31   27.63
  -2   4   3  205.46   23.51
   2  -4  -3  206.35   23.65
   2   4  -3  223.07   25.91
   2   4  -3  210.12   25.82
   1  -4  -3 1824.59   59.71
  -1   4   3 1857.64   58.42
   1   4  -3 1787.92   63.60
   0  -4   3  285.22   17.30
   0  -4  -3  314.83   21.69
   0   4  -3  357.05   33.53
   0  -4   3  272.88   19.97
   0  -4  -3  259.28   20.70
   0   4   3  283.73   18.40
   1   4   3  344.53   28.54
   1   4   3  339.03   24.16
   1  -4   3  359.31   23.91
   1  -4   3  316.82   22.95
   2   4   3 1010.39   54.59
   2  -4   3 1096.68   49.50
  -2   4  -3 1133.03   55.56
   2  -4   3 1111.56   45.88
   2   4   3 1141.52   48.90
   3   4   3  215.60   26.78
   3   4   3  176.87   31.97
  -3   4  -3  191.20   33.07
   3  -4   3  209.50   24.79
   3  -4   3  254.18   31.01
   4   4   3   84.12   26.57
   4  -4   3   68.14   23.29
   4  -4   3  116.97   24.91
   4   4   3   84.13   23.10
  -4   4  -3  101.55   29.15
  -5   4  -3  182.65   41.05
   5  -4   3  247.29   34.17
   5   4   3  205.42   36.90
   5  -4   3  276.13   40.95
  -6  -4  -3  145.31   37.81
  -6   4  -3   33.60   29.62
   6  -4   3   30.45   21.81
   6   4   3   30.82   26.53
  -6  -4  -3  128.15   34.55
   6  -4   3   74.80   27.03
  -7  -4  -3   41.09   33.87
  -7   4  -3  -12.81   30.39
   7  -4   3   16.41   25.46
   7   4   3    0.57   23.02
  -7  -4  -3   10.61   30.57
  -7   5   3   12.69   27.78
   7   5  -3  -15.88   31.99
  -6  -5   3  119.98   29.79
   6   5  -3  179.90   39.52
   6  -5  -3  109.96   33.57
  -6   5   3  127.55   32.69
  -5  -5   3  262.47   34.67
  -5   5   3  257.71   36.70
   5   5  -3  203.16   37.02
   5  -5  -3  194.74   36.87
   4  -5  -3  103.35   27.18
   4   5  -3  127.20   28.69
  -4  -5   3   60.21   19.04
   4   5  -3  102.31   25.58
  -4   5   3   75.86   24.14
  -3   5   3  111.97   22.31
   3  -5  -3   75.39   22.83
   3   5  -3   84.03   20.39
   3   5  -3   66.18   20.04
  -3  -5   3   67.76   17.55
   2   5  -3  815.17   43.15
  -2  -5   3  820.73   39.80
  -2   5   3  833.15   41.01
   2  -5  -3  786.92   45.60
   2   5  -3  842.40   41.18
   2  -5  -3  772.42   38.82
   1  -5  -3  470.79   30.26
   1   5  -3  471.71   27.32
   1  -5  -3  431.38   28.92
   1   5  -3  450.87   31.05
  -1   5   3  466.88   29.13
   0   5   3  131.50   18.61
   0  -5  -3  231.46   25.15
   0   5  -3  174.09   28.92
   0  -5   3  137.90   14.46
   0  -5  -3  111.34   14.71
   0  -5   3  155.73   17.77
   0  -5  -3   90.90   18.24
   1   5   3  994.89   41.95
   1   5   3  935.59   45.78
   1  -5   3 1002.39   41.36
   1  -5   3 1001.10   41.17
  -1   5  -3  952.33   48.74
  -2   5  -3  570.75   40.68
   2  -5   3  568.94   34.76
   2  -5   3  549.15   32.55
   2   5   3  591.60   34.21
   3  -5   3  336.56   31.78
   3   5   3  357.88   36.36
   3  -5   3  313.35   27.77
  -3   5  -3  371.37   40.74
   3   5   3  325.38   28.01
   4  -5   3   -4.51   14.87
  -4   5  -3   38.84   26.62
   4  -5   3   31.22   17.16
   4   5   3   42.37   21.96
   4   5   3   26.78   17.52
   5   5   3  228.10   35.74
   5   5   3  143.39   35.66
   5  -5   3  166.16   33.76
  -5   5  -3  153.81   39.43
   5  -5   3  183.81   31.88
  -6   5  -3   14.31   28.30
   6  -5   3   35.23   23.85
   6  -5   3   27.81   23.13
   6   5   3   40.37   24.56
   7   5   3   80.59   28.66
  -7   5  -3   15.14   33.10
   7  -5   3   88.92   29.62
  -7  -5  -3    1.48   31.95
  -7  -5  -3  116.60   39.06
   7   6  -3  170.58   45.18
   7  -6  -3  239.68   50.48
  -7   6   3  128.94   38.62
  -6  -6   3   72.45   27.50
  -6   6   3   66.08   29.12
   6   6  -3   21.38   26.17
   6  -6  -3   41.16   29.53
   5   6  -3  319.42   46.32
  -5  -6   3  350.97   38.40
  -5   6   3  280.70   38.84
   5  -6  -3  276.77   43.66
   4   6  -3  640.66   48.10
  -4  -6   3  690.68   42.63
   4  -6  -3  651.82   52.56
  -4   6   3  619.33   44.99
   4   6  -3  644.60   46.77
   3   6  -3   11.31   14.94
   3  -6  -3   26.06   17.58
  -3  -6   3   40.23   15.63
  -3   6   3   27.07   19.90
   3   6  -3   20.97   15.96
   2   6  -3  344.45   27.85
  -2  -6   3  318.54   25.18
   2   6  -3  330.28   29.65
   2  -6  -3  312.39   29.58
  -2   6   3  327.32   29.24
   1   6  -3   15.04   15.17
   1  -6  -3   11.66   11.50
  -1  -6   3   16.09    9.72
  -1   6   3   -1.42    4.53
   1  -6  -3    7.06   15.50
   0  -6  -3  480.59   26.06
   0  -6   3  467.88   27.36
   0   6  -3  518.01   32.84
   0   6   3  470.21   29.40
   0  -6  -3  498.61   31.78
   0   6   3  476.45   26.36
   1   6   3 1262.07   49.66
   1   6   3 1294.00   54.76
   1  -6   3 1290.98   49.35
   1  -6   3 1323.10   49.74
  -1   6  -3 1233.29   56.21
   2   6   3  966.34   44.93
  -2   6  -3 1034.75   53.52
   2  -6   3  997.44   45.65
   2  -6   3  985.71   48.37
   3  -6   3   80.58   21.72
   3   6   3   54.44   15.89
  -3   6  -3   60.45   25.60
   3   6   3   55.25   18.71
   3  -6   3   91.33   19.24
   4  -6   3  136.12   29.46
   4   6   3  107.41   29.54
  -4   6  -3  100.00   32.68
   4   6   3   90.36   23.10
   4  -6   3   96.87   23.53
   5  -6   3  184.76   32.24
   5   6   3  162.52   32.46
   5  -6   3  129.40   30.78
   5   6   3  164.23   40.08
  -5   6  -3  163.80   38.49
   6   6   3   30.74   24.63
  -6   6  -3   14.86   30.44
   6  -6   3   41.60   23.98
   6  -6   3   61.85   28.16
  -7  -6  -3  121.30   41.48
   7  -6   3  -23.58   25.77
   7   6   3   16.49   28.27
   7  -6   3  -45.08   24.98
  -7   6  -3  -41.93   32.61
  -7  -6  -3   47.23   37.27
   7  -7  -3   66.63   35.08
   7   7  -3  118.67   41.55
  -7   7   3  109.59   37.64
  -6   7   3  220.82   42.41
   6   7  -3  117.15   36.54
  -6  -7   3  113.46   31.10
   6  -7  -3  145.56   37.27
   5   7  -3   56.42   24.97
  -5  -7   3   37.44   19.88
  -5   7   3   70.10   26.22
   5  -7  -3   32.73   21.85
   4  -7  -3  123.97   29.29
  -4   7   3  161.19   31.04
   4   7  -3  146.61   31.14
  -4  -7   3  164.60   25.43
   3  -7  -3   54.84   20.87
   3   7  -3   71.44   21.08
  -3   7   3   80.96   23.21
  -3  -7   3   50.94   16.44
   3   7  -3   49.18   19.47
  -2   7   3  216.72   26.36
  -2  -7   3  222.01   23.60
   2  -7  -3  189.79   26.98
   2   7  -3  194.07   28.92
   2  -7  -3  180.51   26.28
   2   7  -3  222.38   27.19
   1  -7  -3  637.57   36.40
   1   7  -3  684.04   39.28
  -1  -7   3  674.34   33.11
  -1   7   3  588.36   33.08
   1  -7  -3  629.54   36.37
   0  -7  -3  623.36   31.08
   0   7   3  632.19   30.49
   0  -7   3  608.35   31.27
   0  -7  -3  650.76   34.83
   0   7  -3  566.42   28.56
   0   7   3  582.09   33.40
   1  -7   3 1024.15   43.54
  -1   7  -3 1086.28   53.59
   1   7   3 1025.09   44.49
  -1  -7  -3  991.19   43.99
   1  -7   3  946.26   42.87
   1   7   3  949.17   47.57
   2  -7   3  127.04   20.76
  -2   7  -3  115.44   27.92
   2  -7   3  129.70   21.37
   2   7   3   81.69   19.63
  -2  -7  -3   72.00   15.37
   2   7   3  104.74   19.30
   3   7   3   47.18   16.91
   3  -7   3   40.53   16.80
   3   7   3   37.67   16.64
  -3   7  -3   56.46   28.54
   3  -7   3   63.31   18.06
   4   7   3  123.17   30.95
  -4   7  -3   85.40   34.96
   4  -7   3  159.33   29.55
   4  -7   3  152.53   29.05
   4   7   3  121.51   26.64
   5  -7   3   70.51   26.68
   5   7   3   76.30   25.16
   5  -7   3   34.93   20.40
  -5   7  -3   35.11   29.75
   5   7   3   84.39   31.61
  -6   7  -3   85.13   37.52
   6  -7   3   96.10   28.72
   6   7   3   90.96   29.83
   6   7   3  114.32   42.49
   6  -7   3   48.17   25.82
  -7  -7  -3   61.52   39.77
   7  -7   3   36.53   28.95
  -7   7  -3  -40.96   34.27
   7   7   3   10.41   28.03
   7   8  -3  -13.20   35.13
  -7   8   3   26.54   32.36
   7  -8  -3  -20.22   30.09
   6   8  -3   21.66   32.20
   6  -8  -3   24.17   29.14
  -6   8   3   34.30   27.03
   5  -8  -3   76.27   30.11
  -5  -8   3   59.24   22.80
  -5   8   3  109.75   30.24
   5   8  -3   74.48   27.03
  -5  -8   3  148.47   39.78
  -4  -8   3  104.06   22.82
   4   8  -3  168.88   33.38
   4  -8  -3   84.29   28.06
  -4   8   3  194.27   33.90
   3   8  -3  319.59   33.68
  -3   8   3  340.72   34.37
  -3  -8   3  297.61   26.85
   3  -8  -3  311.34   37.18
  -2  -8   3  116.47   18.91
   2   8  -3  149.54   27.88
   2  -8  -3   93.05   22.22
  -1   8   3 4306.65  118.32
   1   8  -3 4081.38  124.85
   1  -8  -3 4308.50  118.75
  -1  -8   3 4135.95  110.85
   1  -8  -3 4093.50  112.39
   0   8  -3  635.81   31.12
   0   8   3  617.44   36.13
   0   8   3  665.96   32.10
   0  -8  -3  670.37   36.77
   0  -8  -3  696.90   33.18
   0  -8   3  637.84   33.17
   1  -8   3  351.24   26.71
  -1  -8  -3  418.70   30.55
   1   8   3  381.50   28.03
  -1   8  -3  424.19   38.17
   1   8   3  373.22   28.95
   2   8   3   91.37   22.38
   2   8   3  147.98   22.34
  -2   8  -3  160.31   31.61
   2  -8   3  133.86   21.67
   2  -8   3  136.01   22.24
   3   8   3  313.95   40.77
   3   8   3  343.83   30.63
   3  -8   3  323.66   35.36
  -3   8  -3  308.52   42.49
   3  -8   3  325.21   30.48
   4  -8   3  166.10   30.07
   4   8   3  181.23   35.99
  -4   8  -3  175.72   41.37
   4   8   3  235.95   33.82
   4  -8   3  115.31   26.50
   5   8   3   35.89   24.87
   5   8   3   63.10   24.90
  -5   8  -3   58.07   33.43
   5  -8   3   54.94   24.08
   5  -8   3   97.87   27.70
   6   8   3  -11.71   22.04
   6   8   3    6.83   28.20
  -6   8  -3   17.39   32.03
   6  -8   3   15.68   25.68
   6  -8   3   26.07   23.47
   7  -8   3  110.84   32.56
   7   8   3  143.95   35.51
   7   9  -3   -1.46   35.60
  -7   9   3   27.37   32.16
   7  -9  -3   25.54   31.71
   6  -9  -3   -8.65   25.00
   6   9  -3   14.78   29.07
  -6  -9   3   14.20   31.13
  -6   9   3   44.21   29.93
   5   9  -3  129.51   35.96
   5  -9  -3  170.44   38.41
  -5  -9   3  127.80   37.24
  -5   9   3  184.81   36.86
  -5  -9   3  161.09   29.90
  -4  -9   3  287.73   27.45
  -4   9   3  218.19   37.55
   4   9  -3  253.57   40.73
   4  -9  -3  257.25   40.46
  -4  -9   3  210.25   39.12
   3  -9  -3   47.06   20.02
  -3  -9   3   44.59   22.05
  -3  -9   3   60.15   16.47
  -3   9   3   65.51   23.68
   3   9  -3   72.00   22.63
   2  -9  -3 1142.66   58.09
  -2  -9   3 1196.11   56.05
  -2  -9   3 1101.52   48.80
   2   9  -3 1134.26   59.36
   1   9  -3  446.82   33.83
  -1  -9   3  414.95   27.93
   1  -9  -3  428.55   32.76
   1  -9  -3  445.31   31.73
  -1   9   3  405.85   32.28
   0   9  -3  700.02   43.31
   0  -9   3  544.19   32.14
   0   9   3  671.55   38.24
   0   9  -3  603.44   31.91
   0  -9  -3  680.02   33.98
   0   9   3  738.51   34.25
   0  -9  -3  639.50   37.78
   1   9   3   40.06   16.04
  -1  -9  -3   63.62   19.32
  -1   9  -3   48.67   24.25
   1   9   3   51.57   15.28
   1  -9   3   57.34   14.93
  -1   9  -3   42.07   17.61
   2  -9   3  401.76   31.80
   2  -9   3  329.41   29.30
   2   9   3  403.98   30.45
  -2   9  -3  408.38   38.70
   2   9   3  469.17   37.77
  -2  -9  -3  413.95   31.08
   3   9   3  228.82   29.32
   3  -9   3  216.78   30.66
  -3   9  -3  197.36   36.42
   3  -9   3  245.09   31.17
   3   9   3  188.73   34.06
  -4   9  -3  128.61   36.03
   4  -9   3  108.98   26.12
   4   9   3  104.52   26.73
   4   9   3   67.64   24.32
   4  -9   3   82.92   23.95
   5  -9   3  210.42   36.81
   5  -9   3  241.61   41.47
  -5   9  -3  183.74   43.12
   5   9   3  201.45   41.66
   5   9   3  250.42   37.75
   6  -9   3   45.45   23.55
   6   9   3   70.28   26.30
   6   9   3   -9.71   28.44
  -6   9  -3    1.47   35.71
   7   9   3   51.37   31.37
   7  -9   3  -16.31   28.83
  -7   9  -3   46.49   32.98
   7 -10  -3   61.35   36.03
   7  10  -3   37.90   36.01
  -7  10   3   37.70   36.76
   6 -10  -3   84.17   33.35
   6  10  -3   -8.79   25.81
  -6  10   3  -19.37   26.17
  -6 -10   3  -20.41   30.15
   5 -10  -3   39.02   23.42
  -5  10   3   41.04   28.85
   5  10  -3   47.95   25.05
  -5 -10   3   60.92   20.42
  -5 -10   3   -7.47   27.30
  -4  10   3  309.78   42.94
  -4 -10   3  239.77   40.69
  -4 -10   3  297.74   31.65
   4 -10  -3  290.59   42.31
   4  10  -3  300.75   45.14
   3 -10  -3   42.62   18.40
  -3 -10   3   60.68   22.05
  -3 -10   3   56.67   16.24
   3  10  -3   51.92   19.55
  -2  10   3  444.12   37.42
   2  10  -3  493.30   39.68
  -2 -10   3  469.58   30.63
  -2 -10   3  524.85   36.27
   1 -10  -3  252.29   28.23
  -1  10   3  259.70   30.43
   1 -10  -3  209.72   28.22
   1  10  -3  268.93   32.06
  -1 -10   3  250.79   26.10
   0 -10  -3  345.15   30.36
   0  10   3  339.32   24.59
   0  10   3  289.04   27.73
   0 -10  -3  382.36   26.45
   0  10  -3  361.77   25.99
   0  10  -3  349.05   32.62
  -1  10  -3  571.05   38.06
  -1  10  -3  614.16   45.06
   1 -10   3  623.42   36.28
   1  10   3  613.48   36.65
   1  10   3  601.25   38.08
  -1 -10  -3  543.45   36.35
  -2 -10  -3   51.51   16.86
   2  10   3   35.94   16.97
   2 -10   3   68.78   19.04
  -2  10  -3   69.18   25.50
   2  10   3   59.53   16.67
  -2  10  -3   44.54   27.64
   3 -10   3  322.36   36.08
  -3  10  -3  254.04   43.01
   3  10   3  278.41   28.19
   3  10   3  225.42   36.23
  -4  10  -3  155.65   40.26
   4 -10   3  211.09   34.41
   4  10   3  231.96   43.19
   4  10   3  231.29   34.11
   5  10   3   49.71   23.04
   5  10   3   26.02   21.85
  -5  10  -3   69.05   33.88
   5 -10   3   63.23   24.28
  -6  10  -3   29.54   36.08
   6 -10   3   22.42   22.41
   6  10   3   15.23   28.95
   6  10   3   48.27   26.21
  -6  10  -3   25.01   29.75
   7 -10   3   33.56   32.30
  -7  10  -3   56.79   33.91
   7  10   3   34.13   33.76
   7  10   3   56.73   30.29
  -7  11   3  116.01   43.76
   7 -11  -3  -20.19   27.86
   7  11  -3   -7.78   34.52
   6  11  -3  190.84   46.34
   6 -11  -3  259.43   49.14
  -6  11   3  240.21   47.31
  -5  11   3  197.75   41.53
   5  11  -3  203.04   41.90
   5 -11  -3  230.67   43.03
  -5 -11   3  197.92   43.61
   4  11  -3   49.51   24.91
   4 -11  -3   33.19   20.97
  -4 -11   3   33.98   25.19
  -4 -11   3   50.81   17.43
  -4  11   3    4.50   21.39
   3  11  -3   38.72   22.02
  -3  11   3   57.86   24.10
   3 -11  -3   38.26   18.10
  -3 -11   3   -3.35   19.38
  -3 -11   3   48.14   16.57
  -2 -11   3   56.39   20.85
   2  11  -3   58.61   20.49
   2 -11  -3    6.72   10.05
  -2 -11   3   56.09   17.27
  -2  11   3   69.28   24.14
   1  11  -3  493.20   35.66
   1 -11  -3  507.84   36.93
  -1 -11   3  435.72   30.08
  -1  11   3  510.32   37.25
   0  11  -3  192.44   29.60
   0  11   3  194.34   26.87
   0  11   3  202.16   20.34
   0  11  -3  217.72   23.28
   0 -11  -3  219.78   24.56
   0 -11  -3  144.11   25.20
   1 -11   3   69.49   17.26
   1  11   3   41.47   13.68
  -1  11  -3   90.68   21.36
   1  11   3   60.94   17.98
  -1  11  -3   66.83   27.03
  -1 -11  -3   53.26   19.55
   2 -11   3    6.15   12.01
  -2  11  -3   34.72   30.43
   2  11   3   10.13   12.09
  -2  11  -3  -16.47   17.92
  -2 -11  -3   34.65   16.86
   2  11   3   20.33   12.61
   3 -11   3  212.45   31.96
  -3  11  -3  187.02   40.22
  -3  11  -3  221.98   37.97
  -3 -11  -3  179.34   31.59
   3  11   3  184.17   29.04
   4  11   3  296.69   47.95
   4 -11   3  277.46   39.69
   4  11   3  353.55   35.40
  -4  11  -3  290.58   46.31
  -4  11  -3  254.88   46.44
   5  11   3   -8.44   21.61
   5 -11   3   -2.15   19.35
  -5  11  -3   48.67   32.79
  -5  11  -3  -50.13   22.13
   5  11   3   15.43   22.40
   6  11   3   11.95   23.18
   6  11   3   -6.61   24.40
  -6  11  -3   -3.01   23.81
  -6  11  -3   25.03   35.77
   6 -11   3   17.20   26.22
   7  11   3  -50.55   32.42
  -7  11  -3   13.44   29.86
   7 -11   3  -11.84   30.51
  -7  12   3  141.29   46.95
   7 -12  -3   72.79   36.53
   7  12  -3   78.02   42.89
   6  12  -3   63.41   34.40
  -6  12   3   73.02   34.72
   6 -12  -3   56.24   31.70
  -5 -12   3   43.69   28.27
   5 -12  -3   25.31   23.21
   5  12  -3  100.47   32.22
  -5  12   3   32.76   31.31
   4 -12  -3    0.06   15.95
  -4 -12   3   19.45   26.60
  -4  12   3   -1.19   14.63
  -4 -12   3   37.03   15.84
   4  12  -3   13.28   18.34
  -3  12   3  134.69   33.01
   3  12  -3  179.82   36.26
   3 -12  -3  152.99   30.80
  -3 -12   3  150.04   31.75
  -3 -12   3  150.67   22.82
   2  12  -3  140.69   29.30
  -2  12   3  103.86   28.42
  -2 -12   3  175.00   23.44
   1 -12  -3  301.96   34.62
   1 -12  -3  303.15   29.72
  -1  12   3  360.49   34.51
  -1 -12   3  361.82   28.28
   0  12   3  217.42   20.98
   0 -12  -3  249.67   25.87
   0  12   3  230.83   29.96
   0  12  -3  224.34   24.68
   0  12  -3  231.03   33.60
   0 -12  -3  250.37   30.81
  -1  12  -3  280.92   31.92
  -1 -12  -3  287.51   33.65
   1  12   3  263.32   26.67
   1 -12   3  281.03   30.64
  -1  12  -3  234.72   35.95
   1  12   3  253.34   30.59
   2  12   3   86.80   21.74
   2  12   3   67.96   20.57
   2 -12   3   80.76   20.35
  -2  12  -3   75.64   31.93
  -2 -12  -3   87.20   23.72
  -2  12  -3   72.47   23.83
   3  12   3  120.78   25.53
  -3  12  -3   49.01   24.29
  -3  12  -3   71.41   34.13
   3 -12   3  105.63   24.66
  -3 -12  -3   91.12   27.47
   4 -12   3  503.23   44.52
  -4  12  -3  461.46   58.20
   4  12   3  575.71   44.74
   4  12   3  435.32   57.72
  -4  12  -3  511.23   49.42
   5 -12   3   24.32   20.45
  -5  12  -3   11.92   22.15
  -5  12  -3   37.99   35.69
   5  12   3    9.37   21.58
   5  12   3   38.31   24.11
  -6  12  -3   62.00   32.32
   6  12   3   85.25   30.99
   6 -12   3   68.56   33.23
   6  12   3   22.07   31.57
   7  12   3  -19.18   31.21
  -7  12  -3   55.28   33.10
   7 -12   3  110.42   38.96
   7 -13  -3   57.90   30.75
   7  13  -3    9.58   35.63
  -7  13   3  -63.41   35.72
   6  13  -3  282.66   54.05
   6 -13  -3  158.61   41.96
  -6  13   3  223.63   49.08
   5  13  -3   -4.28   22.48
  -5 -13   3   -8.58   24.10
  -5  13   3  -43.38   17.18
   5 -13  -3   -8.57   21.75
   4 -13  -3   81.72   27.38
  -4 -13   3  168.85   26.15
  -4 -13   3   80.45   34.21
   4  13  -3   99.61   31.74
  -4  13   3  143.09   35.13
  -3 -13   3  371.21   29.50
  -3  13   3  367.90   45.51
  -3 -13   3  286.40   39.48
   3  13  -3  291.11   43.68
   3 -13  -3  326.13   42.38
   2 -13  -3   79.43   22.70
  -2 -13   3  108.66   21.20
   2  13  -3  140.67   32.06
  -2  13   3  102.02   29.40
  -1  13   3  425.71   37.94
   1  13  -3  359.20   26.38
   1 -13  -3  440.33   35.46
  -1 -13   3  402.69   31.14
   1 -13  -3  328.90   36.61
   0  13  -3   37.96   17.73
   0 -13   3   31.16   13.97
   0  13   3   54.09   13.99
   0 -13  -3   58.55   15.51
   0  13  -3   35.02   17.66
   0 -13  -3   69.34   22.20
   0  13   3   28.63   18.54
   1 -13   3  331.43   33.84
   1  13   3  334.55   30.37
  -1  13  -3  311.14   34.51
  -1  13  -3  229.93   37.47
   1  13   3  286.67   32.39
  -1 -13  -3  307.20   34.47
  -2  13  -3  950.75   61.23
   2  13   3  979.11   53.44
  -2  13  -3 1022.10   58.74
   2 -13   3 1056.11   58.31
  -2 -13  -3  952.87   56.01
   2  13   3 1047.12   60.47
  -3 -13  -3  537.35   44.78
  -3  13  -3  592.61   49.60
   3  13   3  522.99   48.67
  -3  13  -3  502.49   52.78
   3 -13   3  471.83   41.63
   3  13   3  565.72   41.67
   4 -13   3  123.41   29.26
  -4  13  -3   76.03   37.66
  -4  13  -3   58.28   28.40
   4  13   3  118.32   31.24
   4  13   3   82.72   31.96
   5 -13   3  149.80   36.64
   5  13   3  184.73   43.73
  -5  13  -3  140.31   38.76
   5  13   3  224.44   39.02
  -5  13  -3  156.40   44.43
   6  13   3    1.30   26.53
  -6  13  -3    0.53   26.58
   6  13   3   -6.41   27.16
   6 -13   3   34.83   24.83
   7  13   3  -48.72   31.57
  -7  13  -3   64.60   34.72
   7 -13   3   35.11   36.51
  -7  14   3  236.10   52.83
   7 -14  -3   83.93   34.07
   7  14  -3   89.23   43.06
   6  14  -3   30.08   33.52
  -6  14   3  106.61   40.59
   6 -14  -3  -17.26   26.08
  -5 -14   3   -8.78   25.00
   5  14  -3   -5.64   22.92
   5 -14  -3   22.12   23.54
  -5  14   3   27.50   20.57
   4  14  -3    9.61   20.85
  -4 -14   3   32.29   27.31
  -4  14   3  -20.56   24.63
   4 -14  -3    0.51   17.33
  -4 -14   3   28.56   14.68
   3  14  -3   -9.91   18.45
   3 -14  -3   14.64   16.13
  -3  14   3   19.93   26.49
  -3 -14   3   11.63   14.66
  -3 -14   3   27.24   21.91
  -2  14   3  191.69   35.38
   2  14  -3  191.70   36.73
  -2 -14   3  274.10   28.86
  -2 -14   3  151.87   30.27
   2 -14  -3  128.76   28.12
   1 -14  -3  392.93   35.12
  -1 -14   3  358.57   29.71
   1  14  -3  304.26   26.56
  -1  14   3  335.82   38.49
   0 -14   3  220.62   28.05
   0  14   3  202.87   24.36
   0 -14  -3  223.04   26.59
   0  14   3  145.11   27.82
   0  14  -3  197.65   33.41
   0 -14  -3  197.77   31.33
   0  14  -3  183.60   26.92
   1  14   3  520.73   38.69
   1 -14   3  482.94   36.44
  -1  14  -3  491.84   39.53
  -1  14  -3  433.30   42.26
   1  14   3  503.07   37.80
  -1 -14  -3  507.62   41.05
  -2 -14  -3   76.22   27.06
   2  14   3   57.56   19.69
  -2  14  -3   50.11   32.21
   2  14   3   98.61   25.15
  -2  14  -3   93.93   25.02
   2 -14   3   91.59   23.32
  -3  14  -3   26.23   22.89
   3 -14   3   48.86   19.31
   3  14   3   33.06   21.26
  -3 -14  -3   50.76   25.74
  -3  14  -3   46.78   34.04
   3  14   3   40.02   20.22
   4  14   3   36.93   25.26
   4 -14   3   20.24   17.00
  -4  14  -3   16.78   23.73
  -4  14  -3   -5.96   30.68
   4  14   3   25.58   23.66
   5  14   3   -1.83   25.47
  -5  14  -3  -11.24   31.25
   5  14   3   -6.28   26.47
  -5  14  -3   -7.51   22.81
   5 -14   3   23.73   25.81
   6 -14   3   68.97   32.94
   6  14   3   85.40   33.62
   6  14   3   23.40   31.38
  -6  14  -3   62.39   36.03
   6  15  -3   -4.14   31.42
   6 -15  -3    2.84   27.43
  -6  15   3  -15.70   21.03
   5  15  -3   73.38   31.30
  -5 -15   3   80.85   36.07
  -5  15   3   69.16   35.63
   5 -15  -3   69.71   29.98
   4 -15  -3   48.21   22.72
   4  15  -3   55.41   27.43
  -4  15   3   52.11   30.80
  -4 -15   3   77.23   30.77
   3  15  -3   50.26   25.72
  -3 -15   3   71.27   20.74
   3 -15  -3  104.08   26.33
  -3 -15   3   85.43   30.20
  -3  15   3   56.70   31.57
  -2 -15   3   97.06   20.47
   2  15  -3   70.75   25.72
   2 -15  -3   60.56   20.86
  -2  15   3   26.49   25.73
  -1 -15   3   39.77   17.80
   1  15  -3   68.01   18.15
   1 -15  -3   66.21   19.62
   1  15  -3   50.53   25.62
   1 -15  -3   45.00   25.50
  -1  15   3   27.68   23.33
   0 -15  -3  141.52   30.96
   0  15   3  202.97   25.69
   0 -15   3  217.47   29.47
   0  15   3  205.25   32.14
   0 -15  -3  211.39   27.14
   0  15  -3  195.19   28.44
   0  15  -3  184.92   35.06
  -1  15  -3  380.88   39.28
  -1  15  -3  262.55   38.97
   1 -15   3  324.75   35.88
   1  15   3  264.01   33.53
   1  15   3  291.93   34.95
  -1 -15  -3  239.51   36.82
  -2  15  -3  426.71   40.51
  -2  15  -3  394.76   48.00
   2  15   3  464.89   39.42
   2 -15   3  433.28   38.25
  -2 -15  -3  462.73   48.73
   2  15   3  468.47   43.34
   3  15   3  284.82   37.91
  -3  15  -3  209.95   41.60
  -3 -15  -3  228.89   38.21
   3  15   3  277.02   44.82
  -3  15  -3  292.80   42.21
   3 -15   3  228.00   37.31
   4  15   3  117.81   31.59
  -4  15  -3  108.95   41.53
  -4  15  -3  105.46   33.95
   4  15   3   99.54   30.20
   4 -15   3   72.53   25.37
  -4 -15  -3   84.44   29.80
   5  15   3   51.68   27.65
  -5  15  -3   29.98   29.10
   5  15   3   65.17   30.65
   5 -15   3   64.03   27.33
  -6  15  -3   48.63   34.78
   6  15   3   30.50   32.62
   6 -15   3   -8.66   26.76
   6  15   3   11.16   28.38
   6  16  -3   -2.76   27.06
   6 -16  -3  -15.62   26.84
  -6  16   3   -8.93   26.29
  -5  16   3  -17.70   31.57
   5 -16  -3   19.96   23.41
   5  16  -3   70.55   33.24
  -4  16   3  -11.84   26.79
   4  16  -3   -2.67   22.20
   4 -16  -3    3.46   20.79
  -4 -16   3   37.18   25.82
  -3  16   3  315.60   46.18
   3  16  -3  265.31   46.69
  -3 -16   3  315.73   34.31
   3 -16  -3  303.76   43.72
  -2 -16   3  482.77   36.70
   2 -16  -3  420.20   39.54
   2  16  -3  447.56   44.84
  -2  16   3  382.63   48.57
   1 -16  -3  282.61   35.90
  -1  16   3  246.80   38.06
   1  16  -3  195.26   27.11
   1  16  -3  353.91   47.84
  -1 -16   3  353.05   32.73
   0  16  -3   86.34   27.85
   0 -16  -3   45.93   26.56
   0  16   3   48.61   23.06
   0 -16  -3   30.12   15.65
   0  16   3   77.73   17.95
   0 -16   3   85.10   21.63
   0  16  -3   82.52   24.83
  -1  16  -3  351.21   41.98
  -1  16  -3  331.08   38.01
  -1 -16  -3  233.45   38.76
   1 -16   3  338.07   38.52
   1  16   3  296.54   35.56
   1  16   3  267.70   35.54
   2  16   3   29.14   20.58
  -2  16  -3   23.14   22.19
   2  16   3   12.92   19.17
   2 -16   3   13.19   15.05
  -2 -16  -3   37.27   27.59
  -2  16  -3   45.37   29.82
  -3  16  -3  306.95   43.65
  -3 -16  -3  342.34   47.47
   3  16   3  341.97   41.30
   3 -16   3  305.33   42.59
  -3  16  -3  216.01   43.94
   3  16   3  292.91   46.88
   4  16   3   17.46   22.56
  -4  16  -3  110.07   38.50
  -4  16  -3   50.97   26.96
  -4 -16  -3   68.92   31.74
   4  16   3  146.64   34.12
   4 -16   3   90.60   27.47
   5  16   3   20.76   25.52
   5 -16   3   -0.13   19.04
  -5  16  -3   -2.61   25.13
   5  16   3   32.53   25.77
   6 -16   3  -27.37   22.76
  -6  16  -3    0.58   31.88
   6  16   3  -17.53   24.97
   6  17  -3    1.60   29.48
   6 -17  -3   12.41   27.63
  -6  17   3   30.56   38.10
  -5 -17   3   23.46   29.68
   5 -17  -3    0.89   25.46
  -5  17   3   21.51   31.28
   5  17  -3    2.97   27.40
  -4 -17   3   97.80   35.37
  -4  17   3   88.19   35.94
   4 -17  -3   86.96   28.02
   4  17  -3   99.03   34.22
  -3 -17   3  277.34   33.28
  -3 -17   3  241.67   42.17
   3  17  -3  232.78   45.00
  -3  17   3  252.32   44.84
   3 -17  -3  265.08   41.85
   2 -17  -3   62.00   20.98
   2  17  -3   48.90   24.52
  -2 -17   3   56.60   19.45
  -2  17   3   38.34   27.13
   1 -17  -3   62.61   20.94
  -1 -17   3   50.19   18.56
   1  17  -3   45.33   25.03
  -1  17   3   33.58   26.74
   1  17  -3   35.23   19.24
   0  17   3   84.75   19.16
   0  17  -3   53.39   23.02
   0 -17   3   75.28   21.19
   0  17  -3   53.36   25.02
   0 -17  -3   85.75   21.63
   0 -17  -3   63.56   26.46
   0  17   3   81.19   25.01
  -1  17  -3  134.71   32.75
   1  17   3  128.65   25.43
  -1 -17  -3   86.72   31.73
   1  17   3  103.31   28.94
   1 -17   3  110.48   25.88
  -1  17  -3  108.56   27.14
   2 -17   3 1238.16   69.25
  -2  17  -3 1076.22   64.91
   2  17   3 1094.18   62.37
  -2 -17  -3 1127.10   69.97
   2  17   3 1125.41   70.03
   3  17   3  128.68   30.26
   3 -17   3  167.00   34.26
  -3  17  -3  128.74   34.74
   3  17   3   90.32   29.79
  -3  17  -3  109.96   32.86
  -3 -17  -3   94.49   31.25
   4 -17   3   70.91   24.55
   4  17   3   54.87   27.83
  -4 -17  -3   85.72   36.76
  -4  17  -3  105.86   33.46
  -4  17  -3   51.64   28.35
  -5  17  -3  -24.99   25.25
   5  17   3   71.54   29.36
   5  17   3   84.74   36.05
   5 -17   3   69.73   28.32
   6  17   3   61.66   32.62
  -6  17  -3  -25.89   25.69
   6 -17   3   31.13   29.67
   6 -18  -3   62.01   35.00
  -6  18   3    3.66   34.15
   6  18  -3  -39.68   29.67
  -5  18   3   92.49   41.87
   5  18  -3   19.82   27.72
  -5 -18   3   34.72   35.85
   5 -18  -3   71.25   29.58
   4  18  -3  114.88   36.69
  -4 -18   3  109.54   36.00
  -4  18   3   78.33   35.95
   4 -18  -3  106.13   31.98
  -3 -18   3  111.73   26.39
   3  18  -3   60.66   31.72
  -3 -18   3  110.57   32.09
   3 -18  -3  103.50   26.24
  -3  18   3   72.86   33.21
   3 -18  -3  104.51   26.24
  -2  18   3  139.22   36.06
   2 -18  -3  167.54   32.51
  -2 -18   3  208.64   32.61
   1  18  -3  286.83   46.29
  -1  18   3  305.04   43.46
   1 -18  -3  310.47   38.04
  -1 -18   3  346.09   38.34
   1  18  -3  214.67   30.77
   0  18  -3  107.73   27.99
   0  18   3  159.08   24.16
   0 -18   3  117.62   26.59
   0 -18  -3  110.21   32.91
   0 -18  -3  155.65   27.81
   0  18   3  114.42   30.66
   0  18  -3  117.37   33.67
   1  18   3  323.68   41.08
  -1  18  -3  378.09   37.74
  -1  18  -3  386.02   46.76
  -1 -18  -3  315.33   44.34
   1  18   3  329.06   33.50
   2 -18   3   82.04   25.15
   2  18   3   57.63   23.07
  -2 -18  -3   80.15   33.43
   2  18   3   53.10   24.01
  -2  18  -3  120.70   34.15
  -2  18  -3   58.19   27.25
  -3  18  -3  299.05   45.64
   3 -18   3  344.65   46.00
  -3 -18  -3  334.13   50.58
   3  18   3  353.71   45.35
   3  18   3  362.86   51.78
  -3  18  -3  275.30   43.20
  -4 -18  -3   29.27   29.66
   4  18   3  112.34   34.11
  -4  18  -3   90.82   34.99
   4  18   3   86.40   32.62
   4 -18   3  104.27   31.77
   5 -18   3   -2.17   23.21
   5  18   3   14.77   30.61
   5  18   3   10.95   25.80
  -5  18  -3    2.80   27.47
   6 -18   3  -44.80   26.17
   6  18   3   17.65   29.45
  -6  18  -3  -22.80   27.23
  -6  19   3  -45.34   30.85
   6 -19  -3   -8.25   29.07
   6  19  -3    3.28   30.06
  -6 -19   3   58.27   38.75
  -5  19   3   55.94   38.31
   5 -19  -3   29.78   27.02
   5  19  -3   44.38   32.11
   4  19  -3  123.17   36.73
   4 -19  -3  149.64   36.02
  -4  19   3  146.46   43.13
   3  19  -3  108.02   35.70
  -3  19   3  176.01   41.00
  -3 -19   3  112.73   36.15
   2 -19  -3  120.08   28.29
  -2 -19   3  139.21   27.54
  -2  19   3  110.67   36.68
   1  19  -3  191.31   39.94
  -1  19   3  145.13   36.31
  -1 -19   3  201.53   32.61
   1 -19  -3  204.82   33.42
   1  19  -3  160.03   27.96
   0 -19   3  341.55   39.54
   0  19   3  243.99   39.95
   0  19  -3  285.84   36.71
   0  19  -3  323.36   47.58
   0  19   3  319.21   29.63
   0 -19  -3  285.83   35.42
   1  19   3   79.35   25.24
  -1  19  -3   45.42   23.38
   1 -19   3   21.30   12.80
   1  19   3   57.97   25.28
  -1  19  -3   44.54   23.93
   2 -19   3   60.24   22.88
   2  19   3  109.82   30.42
  -2  19  -3   96.63   28.92
  -2 -19  -3   90.63   34.36
  -2  19  -3   52.81   27.02
   2  19   3   63.73   24.79
  -3  19  -3   21.41   28.27
   3  19   3   45.14   25.07
  -3 -19  -3   12.04   27.40
  -3  19  -3   79.90   29.34
   3 -19   3   68.63   25.06
   3  19   3   71.46   27.83
   4  19   3   25.12   28.14
   4 -19   3    3.99   23.62
   4  19   3   18.39   24.36
  -4  19  -3   35.02   30.91
  -4 -19  -3  -32.59   26.01
  -5  19  -3   10.16   32.49
   5 -19   3   18.55   23.24
   5  19   3   78.11   34.06
   5  19   3  147.69   41.54
  -6  19  -3  -14.68   33.14
   6  19   3   -8.31   29.30
   6 -19   3   14.66   29.00
  -5  20   3   79.52   39.75
   5 -20  -3   62.91   31.84
   5  20  -3   53.85   32.72
   4 -20  -3  174.76   37.41
  -4  20   3  134.99   45.63
   4  20  -3   90.35   35.79
  -4 -20   3   17.91   31.73
   3  20  -3   20.03   27.41
   3 -20  -3    8.25   14.89
  -3  20   3   58.76   29.91
   2 -20  -3  177.64   33.68
  -2  20   3  123.83   35.65
  -2 -20   3  148.02   29.70
   1  20  -3  222.22   47.12
   1  20  -3  192.64   30.92
  -1  20   3  209.77   40.22
  -1 -20   3  273.91   36.91
   1 -20  -3  212.18   34.12
   0  20  -3   99.36   31.14
   0 -20   3   36.28   19.50
   0 -20  -3   77.87   24.29
   0  20   3   33.61   25.12
   0  20  -3   64.72   26.58
  -1 -20  -3   79.85   34.77
   1  20   3   50.51   20.99
  -1  20  -3   93.60   27.88
  -1  20  -3  108.55   28.67
   1  20   3   72.69   26.48
   2  20   3   33.78   23.44
  -2  20  -3   72.31   26.92
   2 -20   3    8.29   16.95
  -2  20  -3   13.75   22.70
   2  20   3   -2.95   19.60
  -2 -20  -3   33.09   29.86
   3 -20   3   43.85   23.61
  -3 -20  -3   81.98   34.65
  -3  20  -3  126.98   31.71
   3  20   3   11.46   22.25
   3  20   3   40.91   29.71
  -3  20  -3   84.37   31.32
   4  20   3  236.47   44.67
  -4  20  -3  151.55   44.57
   4  20   3  185.51   44.34
   4 -20   3  220.41   41.97
  -4 -20  -3  188.29   48.54
  -5  20  -3    5.69   32.02
   5 -20   3  -16.94   20.30
  -5 -20  -3   12.49   38.87
   5  20   3   32.43   30.58
   5  21  -3   40.35   33.10
  -5  21   3   15.22   36.37
  -5 -21   3   17.64   30.40
   5 -21  -3  -23.15   26.34
   4  21  -3   30.51   30.53
  -4  21   3   88.61   36.21
  -4 -21   3   -8.10   28.89
   4 -21  -3   26.93   24.70
  -3  21   3   45.61   31.23
   3 -21  -3   15.15   17.82
   3  21  -3   59.01   29.81
   2 -21  -3   85.43   26.71
   2  21  -3   63.48   33.22
  -2  21   3   32.82   28.39
  -2 -21   3   83.40   25.12
  -1  21   3  152.56   39.99
  -1 -21   3  196.84   33.14
   1 -21  -3  180.38   33.49
   1  21  -3  188.01   41.07
   0  21  -3  256.43   36.96
   0  21   3  255.41   44.91
   0  21  -3  391.56   52.75
   0 -21   3  276.78   39.83
   0 -21  -3  327.41   38.71
  -1  21  -3  194.78   38.07
   1  21   3  150.91   33.43
  -1  21  -3  177.41   35.05
  -1 -21  -3  136.31   40.37
   1  21   3  157.65   33.79
   1 -21   3  180.65   35.87
   2 -21   3  172.80   34.41
   2  21   3  151.81   35.61
  -2 -21  -3  119.71   40.73
   2  21   3   99.56   31.28
  -2  21  -3  191.04   38.37
  -2  21  -3  145.95   32.31
   3  21   3   44.34   27.10
  -3  21  -3   38.90   29.17
   3  21   3   32.48   27.56
   3 -21   3   20.45   21.74
   4  21   3   13.09   32.24
   4  21   3    8.51   25.48
  -4 -21  -3  -22.22   30.75
   4 -21   3   18.02   24.17
  -4  21  -3   33.44   31.17
   5 -21   3   -1.90   22.65
  -5 -21  -3  -56.52   34.59
  -5  21  -3  -33.43   28.65
   5  21   3   34.26   30.70
   5  22  -3   49.08   35.47
   5 -22  -3   23.39   29.84
  -5  22   3  141.45   47.35
   4 -22  -3   43.02   25.09
  -4  22   3   18.51   30.49
   4  22  -3   67.90   33.80
   3 -22  -3   17.76   22.87
   3  22  -3   15.81   28.33
  -3  22   3   19.22   29.98
  -2  22   3   -4.66   26.32
   2  22  -3   26.86   29.52
   2 -22  -3   43.48   22.57
  -2 -22   3   49.84   19.78
  -1 -22   3   40.88   21.95
  -1  22   3  100.62   32.89
   1  22  -3  107.51   34.38
   1 -22  -3   72.15   24.48
   0  22  -3   28.95   22.61
   0  22  -3   38.77   27.59
   0 -22   3   62.70   22.93
   0  22   3   42.08   27.77
   1  22   3  131.60   35.71
  -1  22  -3  194.08   38.15
  -1 -22  -3  185.31   40.28
  -1  22  -3  202.14   36.72
   1  22   3  164.87   33.39
   1 -22   3  184.26   36.39
   2  22   3   17.94   23.49
  -2 -22  -3  -34.78   26.68
  -2  22  -3   26.76   21.60
   2  22   3   28.13   26.16
   2 -22   3   38.20   18.68
  -2  22  -3    8.55   24.21
   3 -22   3  234.48   42.27
   3  22   3  179.24   40.98
  -3  22  -3  251.53   47.46
   3  22   3  236.93   46.41
  -3 -22  -3  143.91   46.47
   4 -22   3   93.32   30.72
  -4 -22  -3  101.56   45.45
  -4  22  -3   95.77   41.46
   4  22   3   81.16   34.89
   4  22   3  127.90   42.71
  -5  22  -3   69.37   38.22
   5 -22   3  -17.97   23.24
   5  22   3  -19.78   26.51
   5 -23  -3   10.02   30.08
  -5  23   3  121.36   48.30
   4  23  -3   42.29   33.88
   4 -23  -3   79.94   31.98
  -4  23   3   27.47   34.86
   3 -23  -3  131.16   34.51
   3  23  -3  125.51   39.02
  -3  23   3  103.52   36.03
   2 -23  -3  -26.47   18.07
  -2  23   3    3.56   23.86
   2  23  -3   -3.66   27.75
   1 -23  -3   53.72   22.67
  -1 -23   3   53.96   20.59
  -1  23   3   55.68   32.72
   1  23  -3   35.41   29.94
   0  23  -3  214.45   34.92
   0 -23   3  292.63   42.46
   0  23  -3  281.26   50.31
   0  23   3  222.32   42.99
   1 -23   3  -10.01   16.85
   1  23   3   13.43   26.39
  -1  23  -3    9.63   24.75
  -1  23  -3   22.78   23.29
   2  23   3  146.34   35.22
   2 -23   3  101.39   31.26
   2  23   3  125.97   37.64
  -2  23  -3   91.00   32.70
  -2 -23  -3   92.54   42.87
  -3  23  -3   68.51   30.19
   3 -23   3   74.57   31.07
   3  23   3  100.46   36.16
   3  23   3  128.66   39.79
  -3 -23  -3   36.86   40.88
   4 -23   3   31.80   22.75
  -4  23  -3   23.11   35.38
  -4 -23  -3   34.76   38.01
   4  23   3   70.39   33.21
  -4  24   3  -19.16   29.77
   4 -24  -3    8.88   24.05
   4  24  -3  -29.60   28.08
   3 -24  -3   44.11   27.61
  -3  24   3   63.94   33.95
   3  24  -3    7.24   24.58
   2 -24  -3   79.70   28.53
  -2  24   3   64.03   32.39
   2  24  -3  146.33   43.35
   1 -24  -3   78.58   28.31
  -1 -24   3   60.25   22.67
  -1  24   3   73.57   34.20
   1  24  -3  120.73   38.95
   0  24  -3  231.04   46.05
   0 -24   3  200.97   36.57
   0  24  -3  238.09   37.06
   0  24   3  178.79   40.93
   1  24   3  185.03   43.45
   1 -24   3  291.78   44.12
  -1  24  -3  297.16   49.44
  -1  24  -3  265.47   43.34
   2 -24   3   24.67   21.63
   2  24   3   85.49   32.97
  -2  24  -3   61.89   30.95
   2  24   3   10.22   24.58
  -3 -24  -3   77.08   44.45
   3 -24   3  110.11   32.84
   3  24   3  140.82   38.36
  -3  24  -3  131.51   42.49
   3  24   3   80.22   37.04
   4  24   3   88.76   36.73
   4 -24   3   36.23   26.72
  -4  24  -3   58.36   35.75
   4 -25  -3   44.59   31.08
   4  25  -3    9.91   33.85
  -4  25   3   27.79   38.49
   3  25  -3  -20.08   23.42
   3 -25  -3  151.10   38.27
  -3  25   3   36.38   34.11
  -2  25   3   68.23   32.76
   2 -25  -3   89.91   29.15
   2  25  -3   31.24   31.24
  -1  25   3  133.10   39.94
  -1 -25   3  140.53   29.36
   1  25  -3  196.76   48.91
   0  25  -3  129.16   38.99
   0  25   3   65.57   32.81
   0 -25   3   55.55   24.89
  -1  25  -3    6.41   27.29
   1  25   3   45.77   28.50
  -1  25  -3   -5.03   24.55
   1 -25   3   19.35   18.73
   2  25   3  171.60   41.86
   2 -25   3  143.50   36.48
  -2  25  -3  153.17   40.90
   3 -25   3  -18.83   22.64
  -3 -25  -3    2.93   38.24
   3  25   3  -37.00   31.80
  -3  25  -3   30.45   34.33
   3  25   3  -38.37   27.18
  -4  25  -3   46.11   38.43
   4  25   3   25.89   33.90
   4 -25   3   -2.48   23.42
   3 -26  -3   33.77   29.61
   3  26  -3   -5.48   28.49
  -3  26   3  -32.60   27.20
   2 -26  -3   30.08   25.73
   2  26  -3  -10.61   31.51
  -2  26   3   54.38   35.86
  -1  26   3   57.91   33.50
   0  26   3   21.71   32.56
   0  26  -3   36.16   30.75
   0 -26   3   20.29   22.39
   1 -26   3  207.17   40.47
   1  26   3  186.10   45.47
  -1  26  -3  224.06   43.22
  -2  26  -3   34.68   31.56
   2 -26   3  -24.42   20.45
   2  26   3   53.57   34.44
   3  26   3   38.76   39.04
  -3 -26  -3    3.01   38.21
   3  26   3   91.88   33.85
  -3  26  -3  112.19   35.91
   3 -26   3   85.71   34.29
  -3  27   3   52.60   35.42
   3 -27  -3   12.61   29.94
   3  27  -3   45.19   38.37
  -2  27   3   40.82   39.63
   2 -27  -3   16.87   26.55
   2  27  -3  -28.39   28.59
   1  27  -3   35.21   36.60
  -1  27   3   55.92   35.26
   0 -27   3   53.13   25.70
   0  27  -3   38.16   32.44
   0  27   3   28.05   30.47
  -1  27  -3   43.17   33.50
   1 -27   3  100.50   31.25
   1  27   3   47.93   33.87
   2  27   3   29.89   36.35
   2 -27   3  -13.08   17.49
  -2  27  -3  134.77   38.79
  -3  27  -3   79.21   38.63
   3 -27   3    9.46   25.80
  -2  28   3   41.48   38.64
   2  28  -3  -25.61   30.22
  -1  28   3  -15.20   29.24
   1  28  -3   33.53   34.23
   0 -28   3  187.61   38.87
   0  28   3  174.47   47.74
   1  28   3  135.47   42.47
   1 -28   3  197.71   37.96
   2 -28   3   23.51   24.31
   2  28   3  -19.04   38.18
  -2  28  -3   44.56   35.47
   1  29  -3  150.70   46.82
  -1  29   3  120.04   41.38
   0  29   3  108.17   41.64
   1  29   3   31.27   34.40
   1 -29   3   33.28   24.90
  -7   0   4   38.68   28.40
   6   0  -4  -44.00   22.89
  -6   0   4   -0.87   19.30
   5   0  -4  120.83   26.85
  -5   0   4  120.47   25.02
  -5   0   4  103.24   29.07
   4   0  -4  191.47   28.51
  -4   0   4  125.34   29.29
  -4   0   4  151.99   23.91
   4   0  -4  189.07   30.08
   3   0  -4  337.91   28.92
  -3   0   4  328.54   25.53
   3   0  -4  326.08   26.62
  -3   0   4  389.78   31.38
  -2   0   4    0.34   11.91
   2   0  -4  -16.42    9.45
   2   0  -4    6.04   11.21
  -2   0   4    6.27   10.03
   1   0  -4  315.93   26.72
  -1   0   4  291.54   24.55
  -1   0   4  234.11   17.16
   0   0   4  107.33   15.45
   0   0  -4  111.84   23.17
   0   0   4   73.02   14.37
  -1   0  -4   62.13   19.22
   1   0   4   80.70   12.19
   2   0   4  186.87   23.94
   2   0   4  175.01   15.95
  -2   0  -4  172.22   29.56
  -3   0  -4  289.22   37.30
   3   0   4  239.69   21.08
   3   0   4  259.23   31.17
   4   0   4  283.71   25.69
  -4   0  -4  287.49   45.89
  -4   0  -4  305.72   48.84
   4   0   4  360.70   36.07
  -5   0  -4  112.90   33.69
   5   0   4   -5.56   19.82
  -5   0  -4   61.61   30.35
   5   0   4   32.11   18.47
  -6   0  -4   22.86   30.16
   6   0   4  -19.31   19.88
  -7   0  -4   75.59   37.23
   7   0   4  162.82   39.25
  -7   1   4  -24.96   26.03
  -7  -1   4   -0.99   23.14
  -6  -1   4   57.15   24.71
   6   1  -4  125.09   31.94
  -6   1   4   73.15   31.22
  -5  -1   4    3.65   16.55
  -5  -1   4   17.49   22.45
  -5   1   4   -9.28   19.71
   5  -1  -4   24.36   20.49
  -5   1   4   12.21   18.17
   5   1  -4   18.94   20.56
   4  -1  -4   53.76   20.07
   4   1  -4   80.38   22.35
  -4   1   4   64.75   20.15
  -4  -1   4   48.85   16.31
  -4  -1   4   50.88   20.06
   4  -1  -4   50.10   19.64
   4   1  -4   48.17   19.32
   3   1  -4  310.02   31.83
   3   1  -4  252.07   24.95
   3  -1  -4  280.84   25.98
   3  -1  -4  234.03   23.28
  -3   1   4  255.09   24.04
  -3   1   4  318.69   29.78
  -2   1   4   78.96   17.72
   2  -1  -4   65.49   14.63
   2  -1  -4  120.66   21.63
   2   1  -4   78.87   16.74
  -2  -1   4   81.91   19.01
  -2   1   4   64.17   14.05
   2   1  -4   79.06   17.44
   1  -1  -4 3858.12   99.85
  -1   1   4 3534.20  101.45
   1   1  -4 3834.47  104.39
  -1  -1   4 3642.73  101.56
  -1   1   4 3650.46   92.25
   1  -1  -4 3637.54   96.52
   0   1   4 2049.70   61.08
   0   1  -4 2062.69   69.98
   0   1   4 1951.75   59.82
   0  -1   4 1981.37   58.24
   0  -1   4 2023.52   61.59
   0  -1  -4 2099.59   66.47
   1  -1   4  543.27   26.81
  -1  -1  -4  547.01   36.53
   1   1   4  567.84   24.69
  -1   1  -4  519.15   37.14
   2   1   4   46.75   15.73
   2  -1   4   26.52   10.37
  -2  -1  -4   10.43   16.78
   2   1   4   20.80    9.56
   2  -1   4   12.03   13.88
  -2   1  -4   64.89   21.33
  -3  -1  -4  774.36   55.08
  -3  -1  -4  781.36   54.18
   3  -1   4  804.18   38.65
   3  -1   4  835.25   47.15
   3   1   4  834.14   47.62
   3   1   4  769.38   36.35
   4  -1   4  418.96   38.31
  -4  -1  -4  485.77   48.65
  -4  -1  -4  448.59   52.96
   4   1   4  446.49   39.16
   4   1   4  372.58   29.27
  -4   1  -4  453.13   55.16
   4  -1   4  436.79   32.06
  -5   1  -4  112.41   34.48
  -5  -1  -4  132.22   38.04
   5   1   4  107.69   21.78
  -5  -1  -4   97.19   35.91
   5   1   4   94.11   27.57
   5  -1   4   98.42   23.31
   5  -1   4  108.82   31.64
   6   1   4   81.62   29.03
  -6  -1  -4  121.15   39.74
   6  -1   4   88.05   28.35
  -6   1  -4   50.34   33.98
  -6  -1  -4   64.11   37.73
  -7   1  -4   62.90   42.88
  -7  -1  -4  -12.36   33.19
   7   1   4   40.87   28.87
   7  -1   4   23.34   26.15
  -7  -2   4    8.64   29.45
  -7   2   4    3.20   29.89
  -6  -2   4   36.33   24.55
   6   2  -4  -24.55   25.15
  -6   2   4  -43.79   21.53
   5  -2  -4  448.23   38.29
  -5  -2   4  421.76   40.67
  -5   2   4  355.15   34.66
   5   2  -4  374.30   39.33
  -5   2   4  469.44   51.59
  -4  -2   4  232.63   23.48
  -4   2   4  272.19   31.63
  -4  -2   4  273.00   34.54
   4   2  -4  217.76   32.87
   4  -2  -4  212.59   31.36
   4  -2  -4  259.93   25.63
   4   2  -4  290.80   38.01
  -3   2   4  472.91   36.82
   3  -2  -4  440.26   32.62
   3   2  -4  450.90   32.74
   3   2  -4  461.99   33.78
  -3  -2   4  321.21   30.27
  -3   2   4  483.75   31.44
   3  -2  -4  403.49   28.19
  -2  -2   4   16.11   10.73
  -2   2   4  -10.84   10.82
   2  -2  -4   -4.37    8.55
  -2   2   4   19.24   12.13
   2  -2  -4   18.60   13.95
   2   2  -4    2.66   10.11
   2   2  -4   -5.38   11.38
   1  -2  -4   33.66   16.22
  -1   2   4   36.87   12.63
  -1   2   4   45.52   13.87
   1   2  -4   63.82   20.52
  -1  -2   4   63.74   15.08
   1  -2  -4   57.87   17.74
   0  -2  -4  855.13   35.34
   0   2   4  733.42   32.31
   0  -2   4  816.34   35.17
   0  -2  -4  728.26   36.56
   0  -2   4  739.45   30.66
   0   2  -4  799.47   45.26
   0   2   4  771.75   33.75
   1  -2   4  668.08   34.10
   1   2   4  630.60   25.08
   1  -2   4  621.15   29.51
  -1   2  -4  629.72   41.71
  -1  -2  -4  680.13   40.94
   1   2   4  617.21   33.15
   2   2   4  265.30   25.59
   2  -2   4  292.74   26.24
  -2  -2  -4  323.58   36.65
   2  -2   4  293.22   21.67
  -2  -2  -4  307.42   36.78
   3   2   4   76.91   19.11
  -3   2  -4   81.74   27.18
   3  -2   4   75.29   21.32
  -3  -2  -4   55.14   22.41
   3  -2   4   66.74   16.04
  -3  -2  -4  108.21   31.51
  -4  -2  -4 1957.85   98.04
   4   2   4 1987.61   68.99
   4  -2   4 2104.84   77.41
   4   2   4 2082.28   86.01
  -4   2  -4 1908.79   99.06
   4  -2   4 2075.45   87.00
   5   2   4  370.76   45.19
   5  -2   4  329.49   37.45
   5  -2   4  373.86   46.36
  -5  -2  -4  434.41   62.50
  -5  -2  -4  318.16   53.81
  -5   2  -4  353.70   55.85
  -6  -2  -4   62.77   37.34
   6  -2   4   37.71   25.33
  -6  -2  -4   79.05   33.72
   6   2   4   18.30   24.85
  -6   2  -4   63.73   34.07
  -7  -2  -4   95.85   40.68
   7  -2   4  128.15   36.49
  -7  -2  -4  111.51   38.89
   7   2   4   40.97   28.19
  -7   2  -4  110.88   41.52
   7   3  -4  -48.45   30.80
  -7   3   4  -44.07   24.70
  -7  -3   4   14.13   27.01
  -6   3   4  171.42   40.40
   6   3  -4  193.85   41.62
  -6   3   4  216.30   35.78
  -6  -3   4  221.92   39.66
  -5  -3   4   26.12   21.74
  -5   3   4   62.52   25.57
   5   3  -4   51.60   25.97
   5  -3  -4   14.05   19.18
  -4   3   4  259.63   31.73
   4  -3  -4  224.81   31.61
   4  -3  -4  217.94   26.80
  -4  -3   4  191.33   31.31
   4   3  -4  200.42   32.07
   4   3  -4  243.99   35.14
  -3  -3   4  175.01   26.29
   3   3  -4  236.19   29.74
   3  -3  -4  204.04   27.96
   3   3  -4  221.71   29.53
  -3   3   4  165.75   23.73
  -2   3   4   78.94   17.06
   2   3  -4   90.91   20.01
   2  -3  -4  117.61   21.15
  -2   3   4  113.82   21.52
   2   3  -4  101.22   18.56
  -1   3   4  962.39   40.00
  -1  -3   4 1025.89   44.27
  -1   3   4  976.60   43.61
   1   3  -4 1024.33   47.06
   1  -3  -4 1007.94   43.69
   0   3   4  519.84   28.30
   0  -3   4  461.37   23.75
   0  -3  -4  460.19   29.38
   0   3   4  514.31   26.23
   0  -3   4  449.64   26.57
   0   3  -4  548.97   41.30
   1  -3   4  112.51   17.43
  -1  -3  -4  140.38   23.90
  -1   3  -4  137.04   25.32
   1   3   4  128.23   19.10
  -1  -3  -4  132.83   23.40
   1  -3   4  113.01   16.23
  -2  -3  -4  564.22   43.35
   2  -3   4  529.07   34.83
   2  -3   4  570.59   31.40
   2   3   4  562.04   35.75
  -2  -3  -4  613.68   43.32
   3  -3   4 1287.99   54.04
  -3  -3  -4 1179.34   71.17
  -3   3  -4 1322.79   71.23
  -3  -3  -4 1258.74   70.04
   3   3   4 1263.30   58.44
   3  -3   4 1257.67   61.06
  -4  -3  -4   43.79   27.27
   4  -3   4   64.13   22.60
   4   3   4   67.95   22.93
  -4   3  -4   48.27   28.04
   4  -3   4   88.08   22.17
  -4  -3  -4   60.94   30.98
   5  -3   4  595.22   42.58
   5   3   4  578.82   48.79
  -5  -3  -4  595.56   58.02
  -5  -3  -4  588.26   61.00
   5  -3   4  547.83   48.28
  -5   3  -4  595.12   59.37
  -6  -3  -4  230.74   49.75
  -6  -3  -4  274.07   51.73
   6  -3   4  267.80   45.68
   6  -3   4  279.04   37.68
   6   3   4  269.43   43.38
  -6   3  -4  183.04   49.03
  -7  -3  -4   67.44   38.81
  -7  -3  -4   10.53   37.66
   7   3   4   47.33   31.07
   7  -3   4   55.49   31.06
  -7   3  -4   30.75   37.38
  -7   4   4   10.09   30.52
   7   4  -4   38.50   35.49
  -7  -4   4   27.16   28.54
  -6   4   4   77.89   27.99
   6   4  -4   63.61   30.95
  -6  -4   4  119.53   33.28
  -5   4   4   56.29   24.08
   5  -4  -4   60.72   26.72
  -5  -4   4   59.20   23.19
   5   4  -4    3.97   21.67
   5   4  -4    9.35   19.65
  -4   4   4  196.90   29.21
   4  -4  -4  164.69   32.22
  -4  -4   4  157.77   27.45
   4   4  -4  176.93   29.84
   4   4  -4  202.69   33.16
  -3  -4   4   96.91   21.70
  -3   4   4   84.65   20.64
   3  -4  -4  137.17   26.50
   3   4  -4  171.01   28.80
   3   4  -4  118.76   24.74
   3  -4  -4  118.20   21.76
   2   4  -4  249.79   25.47
   2   4  -4  236.72   27.43
   2  -4  -4  276.10   28.73
  -2   4   4  251.15   24.84
   2  -4  -4  259.52   30.34
  -1  -4   4  253.76   22.44
   1   4  -4  245.41   25.89
  -1   4   4  249.11   22.66
  -1   4   4  223.66   23.81
   1  -4  -4  261.46   28.33
   0   4   4  191.37   17.85
   0  -4   4  188.25   16.50
   0  -4   4  241.85   19.81
   0  -4  -4  219.12   22.44
   0   4  -4  214.91   31.74
  -1  -4  -4  236.09   29.20
   1  -4   4  213.04   22.72
   1  -4   4  207.56   19.96
  -1  -4  -4  262.07   28.63
   1   4   4  237.03   24.57
  -1   4  -4  281.47   32.34
  -2  -4  -4 1753.91   75.70
   2  -4   4 1558.22   58.43
  -2  -4  -4 1755.99   79.27
   2   4   4 1641.41   64.80
   2  -4   4 1656.30   64.85
  -2   4  -4 1664.13   73.30
   3  -4   4   60.67   19.84
  -3  -4  -4   31.67   29.17
   3  -4   4   91.77   18.96
   3   4   4   91.32   21.84
  -3   4  -4   83.89   29.37
  -4   4  -4  669.23   56.65
   4  -4   4  717.96   49.23
  -4  -4  -4  692.32   58.29
   4  -4   4  707.96   44.12
   4   4   4  663.43   47.79
  -4  -4  -4  581.37   58.89
  -5   4  -4   37.21   30.75
  -5  -4  -4   48.66   29.76
  -5  -4  -4   32.33   18.67
   5   4   4   54.77   23.94
   5  -4   4    7.14   21.07
   5  -4   4   73.71   23.25
  -6  -4  -4  152.43   43.05
  -6  -4  -4   97.17   38.13
   6   4   4   84.17   28.55
  -6   4  -4   88.94   38.31
   6  -4   4   88.90   26.10
   6  -4   4  130.78   34.40
   7  -4   4   56.70   28.87
  -7  -4  -4  111.78   41.90
   7   4   4  115.37   33.91
  -7   4  -4    5.29   37.95
  -7  -4  -4   54.63   40.67
   7   5  -4   41.89   34.43
  -7   5   4   18.09   32.54
  -6   5   4  124.45   33.74
  -6  -5   4   67.44   26.31
   6   5  -4   60.38   31.75
   5   5  -4   24.21   22.13
   5  -5  -4    2.19   19.62
  -5   5   4   20.89   21.85
   5   5  -4   24.22   22.54
  -5  -5   4   10.79   18.10
   4  -5  -4  465.33   43.86
   4   5  -4  470.95   38.98
  -4  -5   4  486.84   38.70
  -4   5   4  453.74   39.14
   4   5  -4  434.68   39.79
  -3   5   4  224.44   28.69
   3   5  -4  194.90   29.57
   3   5  -4  171.66   26.83
   3  -5  -4  161.25   28.40
   3  -5  -4  188.31   27.93
  -3  -5   4  175.64   25.68
  -2   5   4  256.88   27.45
   2  -5  -4  285.49   30.51
   2   5  -4  266.77   25.38
  -2  -5   4  209.74   25.87
   2  -5  -4  266.21   31.99
   2   5  -4  291.93   27.61
   1  -5  -4  972.97   44.35
  -1   5   4  935.44   42.40
  -1  -5   4  985.62   43.53
   1   5  -4  972.56   48.22
   0  -5  -4  756.40   36.09
   0  -5  -4  713.18   34.76
   0   5   4  685.91   31.01
   0  -5   4  714.98   34.60
   0   5  -4  762.63   46.24
   0  -5   4  709.13   29.49
  -1   5  -4   71.12   17.40
   1  -5   4  114.93   17.56
   1   5   4  109.42   19.38
  -1  -5  -4   84.46   22.07
   1  -5   4   89.37   16.39
  -1  -5  -4   68.96   19.28
   2  -5   4  281.92   23.48
   2   5   4  283.43   26.67
  -2   5  -4  371.81   37.30
   2  -5   4  247.29   24.94
  -3   5  -4  188.15   36.84
   3  -5   4  204.40   26.63
   3  -5   4  184.96   28.28
   3   5   4  233.15   29.33
   4   5   4  204.72   32.16
   4  -5   4  245.77   31.76
  -4   5  -4  165.24   39.27
   4  -5   4  236.61   35.84
   5   5   4  283.75   40.82
  -5  -5  -4  210.00   49.06
   5  -5   4  309.97   38.91
   5  -5   4  285.11   42.00
  -5   5  -4  206.82   43.31
  -5  -5  -4  379.20   57.47
  -6   5  -4  163.10   44.73
  -6  -5  -4  265.86   51.19
  -6  -5  -4  175.61   45.07
   6   5   4  159.72   38.42
   6  -5   4  154.27   35.81
   6  -5   4  131.00   29.73
   7  -5   4    2.32   25.71
  -7  -5  -4   17.15   33.36
  -7  -5  -4   25.80   31.56
  -7   5  -4  -13.78   35.70
   7   5   4   44.08   28.21
   7   6  -4   52.59   35.87
   6  -6  -4   73.71   33.08
  -6  -6   4   41.39   25.96
   6   6  -4    5.50   27.63
  -6   6   4   52.16   28.70
   5   6  -4  208.69   39.39
  -5   6   4  222.16   36.33
  -5  -6   4  174.71   33.01
   5   6  -4  254.97   42.59
   5  -6  -4  226.30   42.84
   4   6  -4  299.71   38.94
  -4   6   4  251.01   34.74
  -4  -6   4  306.22   34.81
   4  -6  -4  273.86   40.87
   4   6  -4  287.77   39.97
   3  -6  -4  215.52   33.81
   3  -6  -4  165.69   27.78
   3   6  -4  220.00   32.74
  -3  -6   4  216.45   28.11
  -3   6   4  212.18   30.21
   3   6  -4  223.76   31.21
   2   6  -4  707.88   39.51
  -2  -6   4  753.66   41.05
   2   6  -4  740.18   44.49
   2  -6  -4  708.36   44.95
  -2   6   4  713.74   41.23
   2  -6  -4  692.68   40.57
  -1  -6   4   39.36   13.58
   1  -6  -4   36.40   18.01
   1  -6  -4   49.21   16.44
   1   6  -4    7.16   16.17
  -1   6   4   29.44   15.62
   0  -6   4  170.67   15.69
   0   6   4  167.53   20.76
   0  -6  -4  176.70   24.82
   0  -6   4  175.06   21.24
   0   6   4  169.73   17.24
   0   6  -4  180.43   30.83
   0  -6  -4  149.15   20.44
   2   6   4  264.96   28.49
  -2   6  -4  237.33   34.51
   2  -6   4  221.71   22.06
   2   6   4  283.68   35.66
   3   6   4  134.61   23.47
   3  -6   4  120.68   25.66
   3  -6   4   98.90   20.65
  -3   6  -4  120.84   34.60
   3   6   4  106.16   27.84
   4  -6   4  685.52   49.00
   4  -6   4  667.48   45.55
  -4   6  -4  730.34   60.91
   4   6   4  796.14   61.54
   4   6   4  741.48   49.09
  -5   6  -4  166.84   41.73
   5   6   4  178.04   34.32
   5  -6   4  152.53   35.07
   5  -6   4  176.02   31.97
  -6  -6  -4   98.77   38.75
   6  -6   4   34.11   23.28
   6  -6   4   57.51   25.60
   6   6   4   90.94   30.27
  -6   6  -4   38.67   34.51
  -6  -6  -4   92.50   29.84
   7  -6   4    8.56   25.02
  -7   6  -4   60.14   45.45
   7   6   4   97.98   39.27
  -7  -6  -4   51.77   38.93
  -7  -6  -4  176.01   44.26
   7   7  -4    3.49   35.00
  -6  -7   4   52.49   24.96
  -6   7   4   54.90   28.62
   6  -7  -4   14.13   27.63
   6   7  -4   -0.75   28.16
  -5  -7   4   92.36   24.76
   5   7  -4   78.94   27.88
  -5   7   4   88.98   29.84
   5  -7  -4   70.45   28.87
   5   7  -4  111.52   31.51
  -4  -7   4  205.72   29.98
   4  -7  -4  180.26   34.19
   4   7  -4  205.09   35.98
  -4   7   4  184.58   33.89
   4   7  -4  198.15   36.00
   3  -7  -4  229.10   31.69
   3  -7  -4  282.47   37.65
   3   7  -4  258.26   33.29
  -3  -7   4  254.92   30.61
  -3   7   4  227.04   32.09
   3   7  -4  258.81   35.24
  -2  -7   4  317.01   26.96
   2   7  -4  294.90   34.49
   2  -7  -4  282.72   33.03
   2  -7  -4  308.57   28.30
  -2   7   4  316.31   32.45
   1  -7  -4  290.89   30.99
   1  -7  -4  182.59   26.26
   1   7  -4  233.15   30.73
   0  -7  -4  205.18   20.74
   0   7  -4  246.23   33.06
   0   7   4  244.89   25.35
   0  -7   4  200.52   17.24
   0  -7  -4  250.79   28.60
   0  -7   4  214.24   21.24
   1   7   4  371.69   31.50
   1   7   4  423.50   29.61
   1  -7   4  336.71   26.17
   1  -7   4  325.80   26.85
   2   7   4   72.56   21.75
  -2   7  -4   94.24   29.86
   2  -7   4   91.44   18.41
   2   7   4   81.47   19.51
   3   7   4  789.87   56.56
   3  -7   4  769.41   46.40
   3   7   4  814.66   47.24
  -3   7  -4  856.20   60.06
   3  -7   4  729.34   47.94
   4  -7   4   18.36   17.13
  -4   7  -4    4.04   27.69
   4   7   4    8.21   17.93
   4   7   4   -5.28   17.27
   4  -7   4   45.47   18.49
   5   7   4  404.27   48.59
   5  -7   4  392.48   45.02
   5   7   4  316.43   52.74
  -5   7  -4  326.95   55.50
   5  -7   4  406.99   47.58
  -6  -7  -4  109.64   38.25
  -6   7  -4   69.09   38.09
   6  -7   4   83.90   28.56
   6  -7   4  103.06   30.30
   6   7   4   75.74   28.72
  -7  -7  -4   18.61   39.49
   7  -7   4   -2.78   23.69
   7   7   4   72.85   33.00
  -7  -7  -4   89.03   40.04
  -7   7  -4   -4.09   41.13
   7  -8  -4   65.25   37.90
  -7   8   4   85.33   37.26
   7   8  -4  153.82   41.68
  -6  -8   4  107.21   29.14
   6   8  -4   64.94   35.66
  -6   8   4  111.84   36.25
   6  -8  -4   96.48   35.58
   5  -8  -4   22.00   23.14
  -5  -8   4   29.56   20.80
  -5   8   4    2.30   25.09
   5   8  -4   24.24   26.18
   4   8  -4   51.67   21.72
  -4  -8   4   76.54   21.65
   4  -8  -4   69.04   25.87
  -4   8   4   63.01   26.30
   4   8  -4   40.78   21.37
   3   8  -4  331.61   38.93
  -3   8   4  364.04   36.54
   3  -8  -4  316.11   41.45
   3   8  -4  290.92   39.08
  -3  -8   4  327.03   29.26
   2  -8  -4  462.95   34.51
   2  -8  -4  326.82   36.99
   2   8  -4  429.10   36.53
  -2   8   4  463.00   36.86
  -2  -8   4  496.34   32.96
  -1   8   4  743.84   40.42
   1  -8  -4  764.43   43.71
   1  -8  -4  749.13   42.61
   1   8  -4  728.16   45.75
   0  -8  -4  733.49   35.86
   0   8  -4  768.95   47.61
   0  -8  -4  767.27   42.72
   0  -8   4  764.91   38.61
   0   8   4  743.38   40.21
   0   8  -4  742.59   34.73
   1  -8   4  463.64   31.30
  -1   8  -4  453.21   41.91
  -1  -8  -4  480.22   32.96
   1   8   4  418.89   30.26
   1   8   4  493.28   34.88
   1  -8   4  468.92   30.39
   2   8   4  241.18   36.38
   2  -8   4  260.15   25.58
  -2   8  -4  280.27   40.76
  -2  -8  -4  188.94   27.05
   2   8   4  281.72   30.19
   3  -8   4  198.41   28.88
  -3   8  -4  138.25   37.44
   3  -8   4  166.38   27.50
   3   8   4  120.29   27.42
   3   8   4  193.04   30.38
   4   8   4  104.96   28.28
  -4   8  -4  100.88   37.43
   4   8   4   76.36   25.80
   4  -8   4  133.96   28.37
   4  -8   4  107.16   25.99
   5  -8   4  138.56   34.42
   5   8   4  123.00   37.81
   5   8   4  246.35   38.36
  -5   8  -4  149.67   42.46
   5  -8   4  140.34   28.09
  -6   8  -4    4.96   35.71
   6  -8   4   51.81   24.86
   6  -8   4   85.08   30.72
   6   8   4   50.56   24.67
  -7  -8  -4   63.57   38.86
   7  -8   4  -10.50   24.88
  -7   8  -4  -18.93   39.97
   7  -8   4   78.32   34.59
   7   8   4   53.74   31.11
  -7   9   4   46.63   34.72
   7  -9  -4   22.38   32.47
   7   9  -4   70.27   38.92
  -6   9   4    2.89   27.47
   6  -9  -4   31.04   29.19
  -6  -9   4    5.68   33.64
   6   9  -4   33.81   28.07
  -5  -9   4  234.05   36.23
  -5   9   4  239.27   41.32
   5   9  -4  231.93   43.67
   5  -9  -4  233.19   44.91
  -4  -9   4   71.86   20.91
   4  -9  -4   85.78   29.44
  -4   9   4  105.43   30.06
   4   9  -4   62.47   24.74
  -3  -9   4  346.24   30.10
  -3   9   4  316.27   38.94
   3   9  -4  309.08   41.11
   3  -9  -4  290.61   39.44
   2  -9  -4   62.61   23.07
   2   9  -4   58.63   19.19
  -2  -9   4   64.12   18.34
   1  -9  -4  662.44   42.12
   1  -9  -4  644.84   41.04
   1   9  -4  673.19   44.14
  -1   9   4  678.20   42.03
   0  -9  -4 1293.91   51.89
   0   9   4 1342.16   51.74
   0   9   4 1302.93   56.33
   0  -9   4 1272.10   53.41
   0  -9  -4 1399.77   57.41
   0   9  -4 1277.31   48.52
  -1  -9  -4  176.28   26.66
   1   9   4  109.95   21.14
  -1   9  -4  145.11   33.60
   1  -9   4  115.27   20.75
   1   9   4  151.88   25.37
   2   9   4  235.35   28.26
   2   9   4  232.00   35.64
   2  -9   4  233.90   28.51
  -2   9  -4  225.00   38.59
   3  -9   4  409.88   35.63
   3  -9   4  454.77   36.80
   3   9   4  505.08   38.82
  -3   9  -4  421.10   51.76
   4  -9   4   35.90   17.47
   4  -9   4   11.35   14.58
   4   9   4   22.43   19.58
  -4   9  -4   10.23   33.71
   4   9   4   -1.66   17.46
   5   9   4   72.54   31.43
   5  -9   4  115.43   30.75
   5   9   4  133.70   32.09
  -5   9  -4  136.67   42.68
   5  -9   4  143.73   33.12
   6  -9   4   37.38   26.90
   6  -9   4   75.75   30.55
  -6   9  -4    6.59   33.53
   6   9   4   24.44   25.28
  -7  -9  -4   82.37   39.64
  -7  -9  -4   55.41   37.39
   7   9   4   22.62   29.94
   7  -9   4   -3.01   30.53
   7 -10  -4  175.05   49.27
   7  10  -4    5.69   36.89
  -7  10   4   64.00   35.56
   6 -10  -4  209.28   44.89
   6  10  -4  200.97   45.15
  -6  10   4  187.64   42.13
  -5  10   4   99.57   31.96
  -5 -10   4   54.34   28.90
   5 -10  -4   89.20   31.36
   5  10  -4   21.69   25.78
  -5 -10   4   81.79   25.14
  -4 -10   4   54.94   19.57
  -4 -10   4   37.32   23.45
   4  10  -4   67.79   24.64
   4 -10  -4   70.92   24.83
  -4  10   4   12.37   27.08
   3 -10  -4  338.34   42.30
  -3 -10   4  360.35   30.73
   3  10  -4  316.89   43.63
  -3  10   4  337.26   41.67
  -2  10   4  112.28   21.02
   2  10  -4  275.40   37.34
   2 -10  -4  279.24   35.29
  -1 -10   4  182.58   23.91
   1 -10  -4  152.77   26.03
   1 -10  -4  214.67   29.47
   1  10  -4  201.57   31.18
  -1  10   4  162.47   27.46
   0 -10   4  230.60   26.21
   0 -10  -4  246.80   24.92
   0  10   4  255.43   29.17
   0 -10  -4  187.64   28.26
   0  10  -4  238.26   23.23
   0  10   4  205.81   21.64
   1  10   4  744.32   43.13
  -1  10  -4  782.27   45.14
  -1 -10  -4  725.24   43.83
   1  10   4  742.01   43.68
   1 -10   4  690.94   40.56
  -1  10  -4  745.91   52.14
   2 -10   4   -9.00    9.60
   2  10   4    3.53   15.11
  -2 -10  -4    9.17   16.65
  -2  10  -4    6.86   28.73
   2  10   4    4.68   12.76
   2 -10   4   16.69   11.31
   3  10   4  198.13   30.89
   3 -10   4  231.22   32.95
  -3 -10  -4  162.19   30.04
   3 -10   4  182.69   29.74
  -3  10  -4  180.89   43.89
   4 -10   4  408.68   39.54
   4  10   4  484.42   41.40
   4  10   4  392.05   53.67
   4 -10   4  386.97   43.66
  -4  10  -4  376.90   53.94
  -5  10  -4   45.51   35.96
   5  10   4   61.13   26.76
   5 -10   4   51.78   22.60
   5 -10   4   92.97   26.50
   5  10   4   23.82   23.48
  -6  10  -4   43.11   39.27
   6 -10   4   39.42   28.55
   6  10   4  -25.23   26.52
   6  10   4   11.99   25.52
  -7 -10  -4  257.97   61.02
  -7  10  -4   46.32   33.28
   7  10   4   60.31   33.79
   7 -10   4   89.99   37.51
   7 -11  -4   15.97   33.91
   7  11  -4   21.32   38.16
  -7  11   4   58.51   37.22
  -6 -11   4   -3.03   31.03
   6  11  -4   68.68   31.51
  -6  11   4   12.11   28.67
   6 -11  -4   -7.66   26.96
  -5 -11   4  200.56   31.66
  -5 -11   4  109.65   35.54
   5 -11  -4  108.60   35.47
  -5  11   4  184.68   39.37
   5  11  -4  157.28   37.53
  -4  11   4  123.06   34.39
   4  11  -4   89.52   30.46
   4 -11  -4  130.96   31.64
  -4 -11   4  105.92   22.15
  -4 -11   4  108.80   32.65
   3 -11  -4   88.93   27.07
   3  11  -4  110.00   31.39
  -3 -11   4  141.38   24.59
  -3 -11   4   65.76   28.05
   2  11  -4  116.99   29.29
  -2 -11   4  168.67   24.23
   2 -11  -4   78.61   21.57
  -2  11   4  138.04   29.97
  -2 -11   4  175.58   28.51
  -1  11   4   53.36   22.60
   1  11  -4   69.00   22.52
  -1 -11   4   66.16   19.40
   1 -11  -4   62.39   22.86
   1 -11  -4   38.18   16.97
   0  11   4  234.82   29.82
   0  11  -4  257.61   26.74
   0 -11   4  259.08   28.58
   0 -11  -4  252.18   27.73
   0  11   4  257.05   21.89
   0 -11  -4  219.57   30.98
   1  11   4  142.27   25.72
  -1  11  -4  133.10   34.83
  -1 -11  -4  120.06   25.57
  -1  11  -4  108.47   24.00
   1 -11   4  131.85   22.69
   1  11   4  111.47   23.77
   2  11   4  109.60   23.53
  -2 -11  -4  176.69   30.86
  -2  11  -4  103.02   37.51
   2 -11   4   98.85   22.98
  -2  11  -4  107.36   30.29
   2  11   4  129.20   26.25
  -3  11  -4  249.67   46.23
   3  11   4  325.65   39.06
   3  11   4  334.74   46.74
   3 -11   4  354.59   40.00
   4  11   4   12.69   20.29
   4 -11   4   38.73   18.45
   4  11   4   36.30   21.84
  -4  11  -4   17.97   33.87
   5  11   4   97.57   33.32
  -5  11  -4   70.35   38.57
   5 -11   4   55.61   26.30
   5  11   4   83.80   29.80
  -6  11  -4  -14.96   33.61
   6  11   4   42.72   27.78
   6 -11   4   13.25   28.35
   6  11   4  -12.29   27.94
   7 -11   4   53.82   34.03
  -7  11  -4   33.24   33.01
   7  11   4   95.21   36.64
   7  12  -4   46.78   36.15
   7 -12  -4   20.99   33.42
  -7  12   4  142.06   42.42
   6  12  -4   53.71   31.89
  -6 -12   4   15.46   33.80
   6 -12  -4   -8.32   26.04
  -6  12   4   67.22   35.42
  -5 -12   4   -9.69   27.13
  -5 -12   4   -4.86   17.25
  -5  12   4    4.22   27.03
   5 -12  -4    2.85   20.78
   5  12  -4   11.92   23.30
  -4 -12   4   31.16   17.03
  -4  12   4   -3.40   24.83
  -4 -12   4    2.64   23.24
   4 -12  -4   26.27   22.24
   4  12  -4   21.44   24.71
  -3  12   4   36.53   17.28
   3 -12  -4   44.43   20.13
  -3 -12   4   32.18   15.84
  -3 -12   4   -0.80   21.69
   3  12  -4   13.49   20.54
  -2 -12   4  104.97   22.67
   2 -12  -4  104.62   23.61
   2  12  -4  102.27   28.44
  -2  12   4  113.76   31.08
  -2 -12   4  130.62   25.54
   1  12  -4  121.75   27.45
  -1  12   4  109.66   27.33
   1 -12  -4   97.71   22.34
  -1 -12   4  108.85   21.99
   1 -12  -4   91.51   24.87
   0  12  -4  245.61   26.38
   0  12   4  234.79   30.47
   0  12  -4  240.35   35.20
   0 -12  -4  240.72   26.43
   0  12   4  206.28   21.62
   0 -12   4  223.62   27.25
   0 -12  -4  217.55   31.56
  -1  12  -4   94.20   23.28
   1 -12   4   80.97   19.57
   1  12   4   65.76   19.11
   1  12   4  100.51   22.76
  -1  12  -4   42.44   30.03
  -1 -12  -4   66.10   22.49
   2  12   4   62.17   20.35
  -2  12  -4   60.36   34.91
  -2  12  -4   39.80   24.40
   2  12   4   74.82   22.61
   2 -12   4   44.41   16.10
  -2 -12  -4   59.59   27.07
  -3  12  -4   57.67   37.63
   3 -12   4   92.90   23.23
   3  12   4  110.20   24.70
  -3 -12  -4   60.04   24.64
  -3  12  -4   75.42   30.41
   3  12   4   49.86   22.91
  -4  12  -4   53.39   37.99
   4 -12   4   80.98   24.30
   4  12   4  131.26   31.49
  -4  12  -4  138.77   33.76
   4  12   4   85.57   28.97
   5  12   4  105.22   30.84
  -5  12  -4   92.69   32.30
   5 -12   4   31.01   22.84
  -5  12  -4   60.73   40.31
   5  12   4   35.98   26.58
   6  12   4   20.67   31.16
   6 -12   4   59.86   30.25
   6  12   4   51.59   28.04
  -6  12  -4   98.35   33.86
  -6  12  -4   78.32   44.56
   7 -12   4   37.41   35.29
  -7  12  -4  -12.33   28.34
   7  12   4   62.32   33.38
   7 -13  -4    8.99   31.78
  -7  13   4   71.41   41.45
   7  13  -4   25.19   34.22
  -6  13   4   31.67   34.33
   6  13  -4   58.58   33.14
   6 -13  -4   41.88   30.16
  -5 -13   4  140.91   40.48
   5  13  -4  120.35   34.94
  -5  13   4  160.50   41.70
   5 -13  -4  200.91   41.87
  -4  13   4   -0.74   15.98
   4  13  -4   -1.03   19.17
  -4 -13   4   -0.41   24.26
  -4 -13   4   25.80   17.35
   4 -13  -4   12.53   18.52
   3 -13  -4  103.80   26.50
   3  13  -4   77.87   29.43
  -3 -13   4   89.19   29.24
  -3  13   4  123.61   34.14
  -3 -13   4  103.79   22.64
  -2 -13   4   23.11   15.02
   2 -13  -4    7.37   13.81
  -2  13   4   15.83   23.57
   2  13  -4   11.69   17.84
   1 -13  -4   15.35   21.27
   1  13  -4   10.16   16.71
  -1 -13   4   10.62   12.97
  -1  13   4   -6.73   18.80
   1 -13  -4   33.06   16.67
   0  13  -4   87.69   27.34
   0  13   4  122.69   26.05
   0  13   4  123.19   19.89
   0 -13   4  115.85   22.94
   0  13  -4  133.76   22.25
   0 -13  -4  114.91   20.89
   0 -13  -4  120.87   27.28
  -1  13  -4   31.78   29.16
   1 -13   4    8.95   11.86
  -1  13  -4   23.42   18.57
  -1 -13  -4   29.19   21.43
   1  13   4   19.28   15.62
   1  13   4   65.35   18.67
   2  13   4  726.39   47.94
  -2  13  -4  638.03   55.22
   2  13   4  791.25   53.06
  -2  13  -4  806.09   52.16
  -2 -13  -4  718.87   50.93
   2 -13   4  694.00   46.34
   3  13   4  538.42   43.42
   3  13   4  569.31   50.81
  -3  13  -4  565.29   48.10
  -3  13  -4  405.74   56.48
   3 -13   4  490.51   42.33
  -3 -13  -4  472.59   43.98
   4 -13   4   48.59   23.06
   4  13   4   80.88   25.84
  -4  13  -4   80.12   31.79
   4  13   4   15.10   22.18
  -4  13  -4    5.24   31.86
   5 -13   4  176.24   37.60
   5  13   4  154.76   37.54
   5  13   4  154.29   42.32
  -5  13  -4  134.28   44.59
  -5  13  -4  274.87   45.73
   6 -13   4    4.81   28.22
   6  13   4   56.43   33.60
   6  13   4  -63.29   22.89
  -6  13  -4   22.07   25.54
   6 -14  -4  -14.54   27.26
  -6  14   4   99.82   41.16
   6  14  -4   58.28   33.13
  -5 -14   4   18.62   32.00
   5  14  -4   10.09   25.18
   5 -14  -4   25.07   28.36
  -5  14   4    5.51   28.28
   4 -14  -4  111.81   31.32
  -4 -14   4   75.49   20.33
  -4  14   4   92.98   28.90
  -4 -14   4   28.19   24.67
   4  14  -4   92.13   31.26
  -3 -14   4  170.37   27.13
  -3 -14   4  111.89   28.02
   3 -14  -4  172.64   32.80
  -3  14   4  191.93   38.53
   3  14  -4  144.22   35.08
  -2 -14   4  204.02   28.94
  -2  14   4  157.28   34.95
   2 -14  -4  138.79   28.51
   2  14  -4  166.04   36.39
   1 -14  -4  168.69   27.64
   1  14  -4  212.92   34.98
  -1  14   4  226.11   37.32
   1 -14  -4  108.82   31.24
  -1 -14   4  204.40   28.22
   0 -14  -4    7.30   23.32
   0  14  -4   23.91   23.00
   0  14   4   37.23   14.24
   0 -14  -4   35.71   14.74
   0 -14   4    5.94    9.47
   0  14   4   42.86   19.75
   0  14  -4   42.87   18.06
   1  14   4  430.09   37.08
   1  14   4  415.36   35.70
  -1  14  -4  375.83   35.61
  -1  14  -4  389.09   47.29
   1 -14   4  341.70   32.52
  -1 -14  -4  332.65   42.16
  -2  14  -4  111.60   39.92
   2  14   4  138.16   29.26
  -2 -14  -4  111.94   31.29
   2  14   4   85.68   28.25
  -2  14  -4  105.32   30.06
   2 -14   4  148.31   29.55
   3 -14   4   62.45   19.85
  -3  14  -4   57.91   38.64
  -3 -14  -4   66.50   29.03
   3  14   4   36.03   21.87
  -3  14  -4   45.25   23.04
   3  14   4   14.51   20.65
  -4 -14  -4   62.08   28.39
   4 -14   4   62.40   23.97
   4  14   4   57.68   29.82
   4  14   4   11.11   21.72
  -4  14  -4   32.89   38.64
  -4  14  -4   19.34   27.60
  -5  14  -4   40.36   40.10
  -5  14  -4   74.18   32.39
   5  14   4   85.97   30.79
   5 -14   4   87.43   26.63
   5  14   4   92.71   35.65
   6  14   4   43.81   31.76
   6  14   4  -11.61   30.90
   6 -14   4   18.63   28.54
  -6  14  -4   23.60   31.63
   6 -15  -4   27.04   32.30
  -6  15   4   48.77   37.41
   6  15  -4   21.47   30.84
  -6 -15   4  -45.91   30.41
   5  15  -4  119.02   37.01
  -5 -15   4   73.03   35.14
   5 -15  -4  122.54   35.86
  -4  15   4   71.02   33.95
  -4 -15   4   37.81   26.77
   4  15  -4   41.82   23.69
   4 -15  -4  125.10   30.78
  -4 -15   4   74.41   20.13
  -3 -15   4   60.80   19.41
  -3  15   4   31.63   27.46
   3  15  -4   18.87   23.13
  -3 -15   4    1.20   20.72
   3 -15  -4   38.07   20.63
  -2 -15   4  179.58   27.92
   2 -15  -4  132.81   27.80
   2  15  -4  157.10   38.36
  -2  15   4  137.08   35.73
   1 -15  -4  124.80   31.69
   1 -15  -4  104.61   24.28
  -1  15   4   79.20   27.97
  -1 -15   4  104.52   23.72
   0 -15  -4   -3.65   23.44
   0  15   4   26.00   11.74
   0  15   4   -9.19   14.63
   0  15  -4   30.83   19.72
   0  15  -4   -2.70   21.28
   0 -15  -4   36.18   16.56
   0 -15   4    3.90   10.62
  -1  15  -4  102.29   26.42
  -1 -15  -4   76.41   28.23
   1  15   4   66.96   21.92
   1 -15   4  105.16   23.17
  -1  15  -4   86.55   33.32
   1  15   4  108.55   23.18
   2  15   4  241.24   36.47
   2 -15   4  211.69   33.51
  -2  15  -4  218.63   35.16
   2  15   4  242.91   38.35
  -2  15  -4  181.24   43.78
  -2 -15  -4  254.76   39.45
   3  15   4  146.85   30.05
   3  15   4  116.96   30.80
  -3  15  -4  108.43   39.35
   3 -15   4  130.41   30.45
  -3  15  -4  120.31   32.15
  -3 -15  -4  158.33   37.82
  -4  15  -4   40.27   37.40
   4  15   4    7.22   18.48
   4 -15   4   -0.88   17.76
  -4  15  -4   22.48   22.96
  -4 -15  -4  -11.77   22.57
   4  15   4  -27.02   24.08
  -5  15  -4  -25.62   35.79
   5  15   4  -15.62   24.62
   5 -15   4    0.74   23.08
   5  15   4   34.13   27.60
  -5  15  -4  -27.94   22.74
   6  15   4   48.78   33.51
  -6  15  -4   45.85   32.60
   6 -15   4   22.74   31.85
   6  15   4  123.99   35.48
  -6  16   4   35.63   37.40
   6 -16  -4   39.56   31.77
  -6 -16   4   71.21   39.90
   6  16  -4   31.79   32.80
  -5  16   4   24.34   30.72
  -5 -16   4    2.27   26.24
   5 -16  -4   32.75   28.17
   5  16  -4  -14.09   19.98
   4 -16  -4   49.38   24.32
  -4  16   4  131.16   38.88
  -4 -16   4  139.15   25.57
   4  16  -4   69.33   30.16
  -3 -16   4   77.99   29.26
   3 -16  -4   85.31   26.34
   3  16  -4   74.95   29.85
  -3  16   4   74.21   33.79
  -3 -16   4  134.53   25.72
   2  16  -4   16.82   22.99
  -2  16   4    6.90   23.63
   2 -16  -4   21.21   18.15
  -2 -16   4   24.18   16.16
   1  16  -4    5.79   14.47
   1 -16  -4   47.20   18.93
   1  16  -4   30.31   18.55
  -1  16   4   53.50   27.43
  -1 -16   4   48.39   19.40
   0 -16  -4  106.44   30.33
   0 -16  -4  140.55   25.28
   0  16  -4  172.57   29.00
   0  16   4  227.87   27.44
   0  16   4  146.42   30.37
   0  16  -4  181.65   38.35
   1 -16   4   37.52   18.59
  -1  16  -4   18.45   24.12
  -1 -16  -4   62.85   27.96
   1  16   4   52.00   19.79
  -1  16  -4   -1.12   25.83
   1  16   4   51.66   22.05
  -2 -16  -4   30.11   24.29
   2  16   4   30.31   22.82
  -2  16  -4   13.38   20.77
   2  16   4   44.95   19.98
  -2  16  -4   14.21   32.32
   2 -16   4   43.11   20.45
   3 -16   4   69.31   22.25
   3  16   4   51.02   24.96
  -3  16  -4   50.44   32.27
   3  16   4  123.46   30.09
  -3 -16  -4   82.69   33.63
  -3  16  -4   52.00   27.09
  -4  16  -4   67.85   37.74
   4  16   4  -20.85   16.92
   4 -16   4    0.43   16.29
  -4  16  -4    1.03   26.83
   4  16   4   23.70   25.68
   5  16   4   44.01   29.36
   5 -16   4    6.09   23.92
   5  16   4  -14.48   21.89
  -5  16  -4   13.97   30.20
   6  16   4   67.47   36.89
   6 -16   4   64.32   32.77
  -6  16  -4  -19.47   30.15
   6  16   4   57.84   32.11
   6 -17  -4   44.04   33.78
   6  17  -4   18.72   28.87
  -6  17   4  -14.69   25.89
  -6 -17   4  -15.37   35.91
   5  17  -4   30.03   26.14
  -5 -17   4   26.49   32.54
   5 -17  -4   25.81   27.70
  -5  17   4   20.75   31.44
   4  17  -4  -18.16   20.19
   4 -17  -4   12.80   22.60
  -4 -17   4  -48.91   24.77
  -4  17   4  -14.56   28.58
   3  17  -4   -7.33   20.39
  -3 -17   4   19.08   18.03
  -3  17   4   -4.41   26.92
   3 -17  -4   19.50   14.66
   2 -17  -4  254.06   38.53
   2  17  -4  226.99   44.36
  -2 -17   4  255.07   35.08
  -2  17   4  184.66   40.92
  -1  17   4   13.79   22.96
   1  17  -4   39.23   19.05
   1  17  -4    3.82   21.17
   1 -17  -4   59.50   21.38
  -1 -17   4   42.12   20.88
   0  17  -4   76.21   27.19
   0 -17  -4   68.41   28.21
   0  17   4   40.02   22.23
   0  17  -4   75.62   24.13
   0  17   4   32.73   13.97
   0 -17  -4   12.97   17.10
   0 -17   4   54.01   18.45
   1  17   4  169.41   32.41
  -1  17  -4  191.25   32.35
  -1  17  -4  210.01   39.55
  -1 -17  -4  184.36   37.49
   1  17   4  209.38   32.94
   1 -17   4  195.66   32.06
   2  17   4  -11.87   18.83
  -2  17  -4   18.35   22.43
  -2  17  -4   -5.63   27.67
   2  17   4   23.62   18.92
  -2 -17  -4  -31.53   19.76
   2 -17   4  -16.63   14.22
   3  17   4   14.53   21.62
  -3  17  -4   10.62   22.36
   3  17   4   12.09   23.03
  -3 -17  -4   25.59   25.44
  -3  17  -4   44.14   34.75
   3 -17   4   19.82   16.31
  -4  17  -4   53.81   34.84
   4 -17   4    3.52   17.22
   4  17   4   11.41   23.07
  -4 -17  -4  -18.44   25.08
  -4  17  -4  -31.34   20.55
   4  17   4  -18.64   21.77
  -5  17  -4   24.03   29.28
   5  17   4   48.55   32.44
   5 -17   4   17.24   22.37
   5  17   4   63.70   30.65
  -6  17  -4  -32.88   32.29
   6  17   4   58.53   35.83
   6 -17   4  -24.88   26.56
   6  17   4   19.24   32.68
  -6 -18   4   -3.72   34.69
  -6  18   4   76.07   40.44
   6  18  -4   29.79   32.47
   6 -18  -4   48.68   34.84
   5 -18  -4  126.43   36.96
   5  18  -4    1.35   28.01
  -5  18   4   49.34   36.32
   4  18  -4   74.27   31.94
  -4  18   4   99.87   37.62
   4 -18  -4   87.06   32.17
  -4 -18   4  113.90   34.01
   3  18  -4  154.67   40.30
  -3  18   4  120.57   38.48
  -3 -18   4  174.71   30.85
  -2 -18   4   64.61   21.78
  -2  18   4   93.72   33.52
   2  18  -4   28.33   25.64
   2 -18  -4   46.56   20.55
  -1  18   4   90.85   29.25
   1  18  -4   66.58   30.82
   1 -18  -4  107.20   25.99
  -1 -18   4  134.76   28.98
   0 -18  -4   48.53   28.10
   0  18  -4   25.58   25.59
   0 -18  -4   43.09   18.98
   0 -18   4   57.16   21.26
   0  18   4   61.96   26.26
   0  18  -4   35.27   22.67
   1  18   4   93.62   22.05
   1 -18   4   77.86   23.26
  -1  18  -4   81.58   25.29
  -1 -18  -4   70.35   30.60
   1  18   4   83.69   27.13
  -1  18  -4  123.04   33.28
  -2 -18  -4   -7.68   26.20
   2  18   4  -18.60   18.93
  -2  18  -4    6.32   22.11
  -2  18  -4   32.44   27.25
   2 -18   4   28.72   18.35
   2  18   4  -19.42   15.98
   3  18   4   47.06   26.55
  -3 -18  -4    0.42   28.27
   3 -18   4   36.30   19.06
  -3  18  -4   39.54   30.06
   3  18   4   54.64   27.26
  -3  18  -4   40.63   25.49
  -4 -18  -4   88.41   37.51
   4  18   4   65.81   31.86
  -4  18  -4   66.36   31.59
   4 -18   4   48.96   23.88
  -4  18  -4   92.87   37.17
   4  18   4  121.33   34.66
   5 -18   4   -0.07   21.47
  -5  18  -4  -64.35   23.19
   5  18   4    0.47   27.43
   5  18   4    0.75   26.94
  -6  18  -4  -45.80   29.68
   6  18   4   32.58   33.65
   6 -18   4   -9.27   27.96
   5  19  -4    0.51   27.90
   5 -19  -4  138.39   41.61
  -5 -19   4   14.40   29.43
  -5  19   4   -2.74   34.39
  -4  19   4   68.58   37.30
   4 -19  -4   78.70   30.83
   4  19  -4   62.61   31.05
   3  19  -4   14.13   30.03
  -3 -19   4   10.68   21.13
   3 -19  -4    6.28   18.26
  -3  19   4   28.95   32.00
  -2  19   4   29.19   26.43
  -2 -19   4   87.08   25.37
   2  19  -4   53.58   28.27
   2 -19  -4   80.60   24.82
   1 -19  -4   64.22   22.76
   1  19  -4  127.27   36.33
  -1 -19   4   79.65   26.55
  -1  19   4   71.39   32.24
   0  19  -4    2.86   23.16
   0 -19  -4    6.39   16.59
   0 -19   4   47.82   20.11
   0  19  -4   31.56   23.37
   0  19   4   17.69   24.31
   0 -19  -4   28.27   24.10
   1  19   4   23.70   23.06
  -1 -19  -4  -14.09   22.28
   1  19   4    0.02   15.01
  -1  19  -4    2.40   20.94
   1 -19   4   26.77   18.60
  -1  19  -4   -5.58   19.34
  -2  19  -4   90.39   29.79
   2  19   4   82.60   27.47
  -2 -19  -4   78.14   36.10
   2  19   4  117.35   30.03
  -2  19  -4   58.18   29.75
   2 -19   4   70.45   23.76
   3  19   4  -13.91   22.03
   3  19   4   41.04   27.61
   3 -19   4  -10.93   15.18
  -3 -19  -4    1.09   25.22
  -3  19  -4  -22.40   21.89
  -3  19  -4   44.15   29.56
   4  19   4  -12.42   26.54
   4  19   4  -45.38   20.63
   4 -19   4   -9.19   17.47
  -4  19  -4  -61.31   29.14
   5  19   4   53.48   30.54
   5  19   4  -20.07   26.75
  -5  19  -4  -11.13   28.62
   5 -19   4   -4.70   21.01
  -5  20   4   24.67   35.27
   5  20  -4    5.01   29.39
   5 -20  -4   12.17   28.95
   4  20  -4  118.83   39.62
  -4  20   4  104.46   43.85
   4 -20  -4  101.37   33.72
   3  20  -4   98.97   35.64
   3 -20  -4  103.65   30.42
  -3  20   4  116.41   40.06
   2 -20  -4   42.81   19.54
  -2  20   4   42.23   26.78
   2  20  -4   14.86   20.50
  -2 -20   4   -7.10   19.15
  -1 -20   4   12.38   18.09
   1  20  -4   52.63   30.76
   1 -20  -4    3.14   17.24
  -1  20   4   23.46   22.77
   0  20  -4   93.75   26.70
   0  20  -4   64.82   30.27
   0  20   4   65.01   29.49
   0 -20   4  104.81   29.38
   1  20   4   49.54   27.32
   1 -20   4   27.39   17.63
  -1  20  -4   16.67   23.93
  -1 -20  -4   28.76   29.71
  -1  20  -4   21.33   22.04
   1  20   4   13.41   19.24
  -2 -20  -4   96.26   37.75
   2  20   4  149.44   34.80
   2 -20   4  110.27   29.84
  -2  20  -4  140.57   34.50
  -2  20  -4  184.92   37.28
   2  20   4  157.71   36.19
   3 -20   4    9.96   19.31
  -3  20  -4   16.74   29.96
  -3 -20  -4   11.13   25.45
  -3  20  -4   15.11   24.43
   3  20   4    7.32   22.48
   3  20   4   42.21   30.08
   4  20   4   52.74   33.23
   4  20   4   26.36   26.98
  -4 -20  -4   31.05   37.11
   4 -20   4   12.98   19.23
  -4  20  -4   89.08   32.56
  -5  20  -4  -13.72   30.95
   5  20   4  -44.96   24.19
   5  20   4  -14.19   30.70
   5 -20   4  -12.04   21.69
   5 -21  -4   92.33   34.36
  -5  21   4  117.63   47.79
   5  21  -4  131.01   42.01
   4  21  -4    9.66   29.45
   4 -21  -4   15.76   26.84
  -4  21   4   24.53   31.60
  -3  21   4   99.55   39.34
   3 -21  -4   98.08   32.16
   3  21  -4   64.28   34.12
  -2 -21   4  165.57   32.07
   2 -21  -4  111.70   28.19
  -2  21   4  126.18   38.83
   1 -21  -4   50.15   21.97
  -1  21   4   69.68   29.69
   1  21  -4   69.05   32.08
  -1 -21   4   50.03   21.40
   0  21  -4   -7.54   21.11
   0  21  -4   13.39   21.08
   0 -21   4   28.54   18.07
   0  21   4   17.41   24.68
   0 -21  -4    0.67   25.87
  -1  21  -4   90.04   28.97
  -1  21  -4   99.91   32.18
  -1 -21  -4   -1.39   31.10
   1  21   4   92.73   32.30
   1 -21   4   51.46   21.25
   2 -21   4  -11.37   16.33
   2  21   4    5.55   23.57
  -2 -21  -4   -2.49   30.47
  -2  21  -4   18.00   23.49
  -2  21  -4   44.56   25.86
   2  21   4    1.46   19.82
   3  21   4   79.67   29.82
  -3  21  -4   60.01   31.86
  -3  21  -4   22.55   28.19
   3 -21   4   27.69   27.05
   3  21   4   45.62   28.78
  -3 -21  -4   30.29   30.85
   4 -21   4   45.53   21.51
   4  21   4  101.85   38.31
   4  21   4   98.92   36.35
  -4  21  -4   33.87   31.88
   5  21   4  -39.74   26.31
   5 -21   4   13.98   25.46
   5  21   4  127.98   40.42
  -5  21  -4   40.69   37.71
  -5  22   4  -11.56   35.37
   5  22  -4  -36.66   28.18
   5 -22  -4   22.72   31.53
  -4  22   4  151.07   47.39
   4  22  -4  121.84   44.24
   4 -22  -4  136.74   37.01
  -3  22   4   58.68   35.86
   3  22  -4   -1.80   27.78
   3 -22  -4    1.91   22.48
  -2 -22   4   60.02   25.05
  -2  22   4   37.92   32.62
   2  22  -4   -0.77   20.49
   2 -22  -4   31.91   22.60
   1  22  -4   28.29   27.73
  -1 -22   4   27.50   21.34
  -1  22   4   36.59   26.93
   1 -22  -4  -13.39   16.99
   0 -22   4   80.45   27.37
   0  22  -4  107.42   27.87
   0  22  -4  133.81   36.52
   0  22   4  101.62   31.72
   1  22   4   54.37   27.66
  -1  22  -4   78.11   29.70
  -1  22  -4   92.84   29.23
  -2 -22  -4   12.26   34.56
   2 -22   4   50.78   22.67
   2  22   4   23.37   23.37
   2  22   4   41.53   30.01
  -2  22  -4   76.89   30.58
  -2  22  -4   70.93   27.83
   3 -22   4   35.92   26.10
   3  22   4   74.37   33.02
  -3  22  -4   44.21   30.19
   3  22   4   47.32   30.59
  -3 -22  -4   25.63   31.12
   4  22   4  -10.99   28.60
   4  22   4  -22.55   31.74
  -4  22  -4    8.44   34.22
   4 -22   4   23.12   23.10
  -4 -22  -4   11.36   35.10
   5  22   4   -6.86   32.94
   5 -22   4   -4.91   24.06
  -5  22  -4  -40.43   31.61
  -4  23   4   54.13   36.44
   4 -23  -4   40.85   30.55
   4  23  -4   42.28   33.22
   3 -23  -4    8.70   22.46
   3  23  -4   14.67   29.41
  -3  23   4   22.95   28.30
  -2  23   4   52.14   34.88
   2  23  -4   16.12   26.56
   2 -23  -4   24.04   19.80
  -2 -23   4   38.45   25.31
   1  23  -4   62.18   34.28
  -1 -23   4   65.44   24.03
  -1  23   4   57.78   32.38
   1 -23  -4   67.14   24.16
   0  23   4   31.91   27.74
   0  23  -4   32.53   28.34
   0 -23   4   36.53   20.65
  -1  23  -4   77.96   28.05
  -1 -23  -4   46.14   37.38
  -1  23  -4  117.37   32.74
   1  23   4  112.03   34.40
   2 -23   4   32.22   22.29
  -2  23  -4    6.37   26.63
   2  23   4   57.05   26.36
  -2  23  -4   70.87   29.32
   2  23   4   63.37   31.71
  -2 -23  -4   16.49   34.20
  -3  23  -4   20.46   31.22
   3 -23   4   24.12   24.22
   3  23   4   43.70   32.72
   3  23   4  -10.49   24.95
  -3 -23  -4    9.83   33.96
  -4  23  -4   35.78   36.32
   4 -23   4   13.73   22.58
   4  23   4  -41.51   27.37
   4  23   4   31.32   35.57
  -4  24   4   18.48   38.09
   4 -24  -4  -33.12   22.65
   4  24  -4  -10.95   27.09
   3  24  -4   22.82   32.09
  -3  24   4    4.37   28.37
   3 -24  -4   -3.57   24.11
  -2  24   4   30.35   33.65
   2 -24  -4   39.68   24.72
   2  24  -4   24.34   28.77
  -1  24   4   27.40   29.79
  -1 -24   4    2.91   19.37
   1  24  -4   31.42   30.27
   0  24   4  -10.54   24.92
   0  24  -4   41.69   30.36
   0 -24   4   33.42   21.94
  -1 -24  -4  -29.37   27.85
   1 -24   4   -6.40   18.63
   1  24   4   15.62   28.09
  -1  24  -4   24.49   25.75
  -1  24  -4   10.33   27.00
  -2  24  -4   92.27   29.06
  -2  24  -4   53.83   31.03
   2 -24   4   61.62   25.29
   2  24   4   41.48   34.30
  -3 -24  -4   -6.01   35.35
   3 -24   4    7.24   22.03
  -3  24  -4   -6.57   31.43
   3  24   4   18.42   34.59
   3  24   4   46.98   31.91
  -4  24  -4  -44.08   31.18
   4 -24   4   35.67   25.10
   4  24   4    6.41   32.08
   4  24   4   29.85   40.39
   4  25  -4    0.57   34.43
   4 -25  -4    9.68   26.76
  -4  25   4  -11.10   36.42
  -3  25   4   28.36   31.44
   3 -25  -4   56.87   28.35
   3  25  -4   75.89   36.90
   2 -25  -4   15.73   24.86
   2  25  -4  -35.55   29.55
  -2  25   4   -3.28   31.67
   1  25  -4   28.67   32.53
  -1  25   4   46.24   32.12
  -1 -25   4   -1.57   21.57
   0  25   4  -23.14   25.34
   0 -25   4   -8.40   19.91
   0  25  -4   32.01   31.36
   1 -25   4  -14.78   17.85
  -1  25  -4   46.24   30.19
   1  25   4   60.37   31.40
  -1  25  -4   62.81   30.82
  -2  25  -4   52.52   32.64
   2 -25   4  -52.29   18.49
   2  25   4   19.92   32.58
   3  25   4   44.36   36.51
   3 -25   4  -16.98   20.71
  -3 -25  -4  -63.79   30.57
   3  25   4   28.88   31.15
  -3  25  -4  -14.24   32.72
   3 -26  -4   -3.00   27.03
  -3  26   4  -26.07   28.11
   3  26  -4  -10.72   26.72
  -2  26   4   23.45   36.76
   2  26  -4   49.84   38.39
  -1 -26   4    7.89   22.24
   1  26  -4   68.30   38.61
  -1  26   4   66.96   36.80
   0  26   4  112.63   39.44
   0 -26   4   38.59   24.53
   0  26  -4  121.61   38.68
  -1  26  -4  105.40   37.17
   1 -26   4   93.54   28.43
   1  26   4   38.33   29.94
  -2  26  -4   89.92   34.43
  -2 -26  -4    1.73   39.37
   2 -26   4   82.16   30.10
   2  26   4   66.53   36.55
   3 -26   4   26.13   26.15
   3  26   4   52.31   40.07
  -3  26  -4    0.92   33.86
  -2  27   4   34.50   33.40
   2  27  -4    5.31   32.11
  -1  27   4   58.77   35.40
   1  27  -4   -9.98   31.46
   0 -27   4   57.57   28.18
   0  27   4  123.27   36.00
   0  27  -4   83.19   37.85
   1 -27   4   39.94   24.36
   1  27   4   -2.23   31.40
   2 -27   4   28.59   26.23
   2  27   4    4.46   34.13
  -2  27  -4   50.01   34.07
  -2  28   4   41.21   35.37
   2  28  -4   22.88   36.32
  -1  28   4   59.77   36.10
   1  28  -4   62.99   41.63
   0 -28   4   -1.06   22.73
   0  28   4   46.84   33.89
   0  28  -4   14.79   35.26
   1 -28   4   59.20   26.26
   1  28   4  103.89   39.38
  -7   0   5   64.60   32.61
  -6   0   5  356.97   51.21
  -5   0   5  153.98   32.22
   5   0  -5  165.44   32.65
   5   0  -5  206.37   34.50
  -4   0   5  184.03   32.21
   4   0  -5  199.30   30.45
   4   0  -5  286.27   34.37
  -4   0   5  196.12   25.63
  -3   0   5  140.14   20.35
   3   0  -5  171.94   24.63
   3   0  -5  189.89   26.99
  -3   0   5  142.40   26.80
  -2   0   5  400.62   32.86
   2   0  -5  384.44   28.87
   2   0  -5  353.71   26.39
   1   0  -5   78.93   22.38
  -1   0   5   67.88   17.79
  -1   0   5   63.71   12.92
   0   0  -5   56.97   22.11
   0   0   5   50.94   13.12
   0   0   5   49.93   14.30
  -1   0  -5   38.86   19.74
   1   0   5   20.24    8.76
   1   0   5   12.31   11.41
   2   0   5  230.45   27.96
  -2   0  -5  176.63   32.92
   2   0   5  221.62   19.45
   3   0   5  682.14   35.31
  -3   0  -5  644.00   53.73
   3   0   5  719.55   45.97
   4   0   5    5.53   18.60
   4   0   5   53.67   16.16
  -4   0  -5  -14.29   11.68
   5   0   5    2.25   20.69
  -5   0  -5   13.05   24.62
  -6   0  -5   70.78   41.79
   6   0   5   48.07   30.47
  -7   0  -5   24.93   35.86
   7   0   5   12.29   24.83
  -7  -1   5  181.92   40.93
  -7   1   5  123.38   35.01
   6   1  -5   94.67   32.52
  -6  -1   5   47.86   27.67
  -6   1   5   69.77   28.73
   5   1  -5  146.27   33.72
  -5   1   5  240.07   32.00
  -5  -1   5  255.24   40.97
   5  -1  -5  210.01   32.22
   5   1  -5  227.91   37.26
   4   1  -5  313.21   36.16
  -4   1   5  260.70   29.05
   4  -1  -5  227.52   29.23
   4   1  -5  256.52   34.38
  -4   1   5  278.23   38.49
   4  -1  -5  266.82   27.90
  -3  -1   5   10.69   12.98
   3   1  -5   12.47   14.20
   3  -1  -5   43.20   16.81
   3  -1  -5   13.10   13.32
  -3   1   5   12.47   14.82
  -3   1   5   13.85   14.53
   3   1  -5   38.59   14.89
   2   1  -5 1631.23   60.07
   2  -1  -5 1652.99   63.62
  -2  -1   5 1644.03   66.31
   2  -1  -5 1537.38   56.04
  -2   1   5 1718.99   67.96
   2   1  -5 1604.08   62.04
  -2   1   5 1611.30   54.97
   1  -1  -5  255.89   29.26
   1   1  -5  237.35   22.33
  -1   1   5  249.77   26.01
  -1   1   5  236.53   19.10
   1   1  -5  274.75   30.86
  -1  -1   5  252.51   24.10
   0   1   5  625.01   31.50
   0  -1   5  616.59   32.49
   0   1   5  564.67   31.25
   0   1  -5  568.90   39.70
   0  -1   5  647.49   31.02
   0  -1  -5  612.49   38.70
   1  -1   5  485.68   27.07
  -1  -1  -5  457.36   35.87
  -1   1  -5  452.96   36.91
   1  -1   5  453.64   30.29
   1   1   5  456.71   24.74
  -2   1  -5  219.79   34.01
   2   1   5  254.30   19.51
   2  -1   5  202.87   27.34
   2   1   5  254.45   29.83
   2  -1   5  218.66   20.53
  -2  -1  -5  219.12   34.53
   3  -1   5  178.24   22.42
   3   1   5  190.41   28.84
   3   1   5  154.79   18.78
  -3  -1  -5  129.54   31.61
   3  -1   5  170.75   29.12
  -3   1  -5  112.69   30.45
  -4   1  -5  188.61   41.19
   4   1   5  170.87   23.57
   4  -1   5  181.00   33.83
   4  -1   5  242.32   27.89
   4   1   5  199.07   33.94
   5   1   5  139.65   32.72
  -5   1  -5   73.58   34.82
   5  -1   5  134.34   24.58
  -5  -1  -5  129.71   38.90
   5  -1   5  115.44   30.42
  -6   1  -5   31.53   37.77
  -6  -1  -5   30.00   35.09
   6  -1   5   31.12   23.49
   6   1   5   18.17   27.13
   7   1   5   52.60   31.42
  -7   1  -5   38.39   41.22
  -7  -1  -5   20.12   35.55
   7  -1   5   57.89   31.06
  -7   2   5    3.43   30.94
  -7  -2   5   -7.09   30.02
   6   2  -5  248.33   42.13
  -6  -2   5  299.15   46.37
  -6   2   5  223.98   44.14
  -5   2   5  159.65   28.96
  -5  -2   5  177.78   35.60
   5  -2  -5  227.58   32.93
   5  -2  -5  138.72   32.33
   5   2  -5  198.43   34.48
   4  -2  -5  147.56   27.34
   4   2  -5  147.03   27.81
  -4   2   5  139.55   25.24
   4   2  -5  134.90   28.46
  -4   2   5  120.32   28.33
   4  -2  -5  161.96   24.04
  -4  -2   5  184.15   31.20
  -3  -2   5  308.45   30.01
   3  -2  -5  292.21   27.44
   3  -2  -5  246.56   23.24
  -3   2   5  234.42   33.29
  -3   2   5  277.26   26.86
   3   2  -5  283.73   28.06
   3   2  -5  317.08   27.34
   2   2  -5  990.83   45.67
   2  -2  -5  981.20   47.14
  -2   2   5 1043.72   52.13
   2   2  -5  973.41   45.96
  -2  -2   5 1027.30   51.00
  -2   2   5  977.22   42.28
   2  -2  -5  905.75   39.19
  -1   2   5  799.54   41.47
   1  -2  -5  814.98   39.06
   1  -2  -5  803.52   41.35
  -1   2   5  781.82   35.22
  -1  -2   5  774.31   41.91
   1   2  -5  884.95   46.93
   0   2   5  203.06   19.88
   0  -2  -5  226.90   26.46
   0  -2   5  183.27   17.84
   0  -2   5  179.77   17.86
   0   2  -5  237.28   32.91
   0   2   5  230.63   22.65
   0  -2   5  214.10   22.56
   1   2   5  535.68   25.44
   1  -2   5  524.00   31.41
   1  -2   5  547.56   29.78
  -1   2  -5  504.95   39.56
  -1  -2  -5  540.04   38.47
   2  -2   5  112.98   18.74
   2   2   5  108.71   15.27
   2   2   5   96.79   20.56
   2  -2   5  106.64   21.62
  -2   2  -5  125.23   29.05
  -2  -2  -5  113.50   27.71
   3   2   5  198.52   28.97
  -3  -2  -5  282.04   43.11
   3  -2   5  304.40   36.43
   3  -2   5  257.15   27.22
  -3  -2  -5  281.07   43.94
  -4  -2  -5  363.03   54.86
   4   2   5  291.80   38.36
  -4  -2  -5  327.38   50.58
   4  -2   5  341.55   41.89
   4  -2   5  279.81   26.67
  -4   2  -5  311.11   50.17
  -5   2  -5  218.21   47.20
   5  -2   5   87.07   24.91
  -5  -2  -5  112.86   38.35
   5   2   5   89.94   30.00
   5  -2   5  112.55   32.48
   6  -2   5   12.02   23.40
  -6  -2  -5   29.19   34.55
  -6   2  -5   63.58   30.79
   6   2   5   15.82   24.78
  -6  -2  -5   53.33   36.91
  -7   2  -5  -30.88   31.96
  -7  -2  -5  -40.36   35.25
   7  -2   5   -4.00   27.44
   7   2   5   -5.44   25.70
  -7   3   5   13.28   33.33
  -7  -3   5   49.33   35.27
  -6  -3   5   97.79   32.77
  -6   3   5   26.74   21.66
   6   3  -5   67.54   28.62
   5   3  -5  101.59   29.20
  -5   3   5  119.61   33.68
  -5  -3   5  120.14   31.15
  -5   3   5  116.24   27.65
   5   3  -5   72.35   24.98
  -4  -3   5   81.49   24.17
   4  -3  -5  100.95   20.15
  -4   3   5   62.71   24.83
   4  -3  -5  107.94   24.93
   4   3  -5   71.24   23.34
  -4   3   5  127.25   23.97
   4   3  -5  117.87   25.99
   3  -3  -5  149.27   25.59
   3   3  -5  173.82   26.35
   3   3  -5  195.48   27.73
  -3   3   5  205.08   30.98
  -3   3   5  124.83   23.79
   2   3  -5  409.98   31.05
  -2   3   5  372.77   27.64
   2   3  -5  395.28   28.98
  -2   3   5  361.58   31.19
  -2  -3   5  373.38   31.14
   2  -3  -5  354.22   29.00
   1   3  -5   -4.52   19.76
  -1   3   5    8.63   11.91
   1  -3  -5   24.43   16.85
  -1  -3   5   21.27   14.32
   1  -3  -5   19.09   18.56
  -1   3   5   16.61   12.23
   0   3   5  224.35   20.20
   0   3  -5  242.42   36.02
   0  -3  -5  203.81   24.96
   0  -3   5  222.81   18.24
   0  -3   5  260.23   22.08
   0   3   5  218.55   21.35
   1  -3   5  216.62   19.32
  -1  -3  -5  202.98   29.63
   1   3   5  173.72   21.94
  -1   3  -5  185.38   30.38
   1   3   5  194.01   15.26
   1  -3   5  202.42   23.60
  -2   3  -5  291.11   38.72
  -2  -3  -5  368.51   40.29
  -2  -3  -5  314.28   39.12
   2  -3   5  263.42   22.98
   2  -3   5  279.03   29.99
   2   3   5  268.52   31.15
  -3  -3  -5   23.05   20.77
  -3   3  -5    0.46   19.16
   3  -3   5   19.01   14.16
  -3  -3  -5   50.37   23.99
   3   3   5    0.58   12.86
   3  -3   5   26.28   16.40
  -4  -3  -5  206.39   40.47
   4  -3   5  241.28   30.20
   4  -3   5  207.85   32.58
  -4   3  -5  193.18   43.85
  -4  -3  -5  183.02   42.37
   4   3   5  202.15   34.76
   5  -3   5   21.93   18.97
   5   3   5    6.61   21.86
  -5   3  -5   13.32   28.76
  -5  -3  -5   40.80   36.52
  -5  -3  -5  -21.65   19.58
   5  -3   5  -10.65   20.22
  -6  -3  -5   21.11   36.30
   6  -3   5    1.18   23.69
   6   3   5   28.87   27.02
  -6   3  -5  -53.37   33.22
  -6  -3  -5    3.70   33.76
  -7  -3  -5  -13.47   38.14
  -7   3  -5  -22.75   35.48
   7  -3   5  -17.72   25.43
   7   3   5    1.89   29.06
  -7   4   5  142.10   42.66
  -7  -4   5   52.33   31.98
   6   4  -5  121.54   35.29
  -6  -4   5   80.10   29.43
   6   4  -5   74.62   29.17
  -5  -4   5  100.69   28.29
   5   4  -5   28.19   21.74
   5   4  -5   31.45   26.89
  -5   4   5   44.07   24.92
  -5   4   5   17.89   24.64
   4   4  -5  354.93   41.60
   4  -4  -5  289.49   36.88
  -4   4   5  288.57   34.07
  -4   4   5  316.91   43.07
   4   4  -5  266.69   37.78
  -4  -4   5  242.43   36.09
   3   4  -5  471.57   36.32
  -3   4   5  442.58   34.87
   3   4  -5  390.58   33.51
  -3   4   5  473.31   37.99
   3  -4  -5  412.72   33.63
   2   4  -5  568.17   36.77
   2   4  -5  559.06   33.48
  -2  -4   5  525.51   36.29
  -2   4   5  552.71   34.92
   2  -4  -5  513.15   34.25
  -2   4   5  469.44   36.55
  -1   4   5   51.89   15.46
  -1  -4   5   84.40   19.03
  -1   4   5   63.04   16.53
   1  -4  -5   77.76   19.67
   1   4  -5   82.01   24.07
   0  -4   5  459.18   24.88
   0  -4   5  438.93   28.08
   0   4  -5  454.99   40.91
   0   4   5  474.82   29.75
   0   4   5  436.18   26.64
   0  -4  -5  447.65   31.24
   1  -4   5   75.20   16.09
   1   4   5   80.19   12.15
  -1   4  -5   75.39   27.20
   1   4   5   89.96   18.46
  -1  -4  -5   85.12   22.50
   1  -4   5   69.93   16.68
   2  -4   5  182.55   23.83
   2   4   5  225.11   28.12
  -2   4  -5  127.07   25.34
  -2  -4  -5  169.77   33.14
  -2  -4  -5  181.67   32.28
  -3  -4  -5  556.50   48.37
   3   4   5  531.22   39.67
  -3  -4  -5  477.89   55.83
  -3   4  -5  527.65   50.37
   3  -4   5  474.05   34.11
   3  -4   5  476.95   38.34
  -4   4  -5  263.35   48.88
  -4  -4  -5  271.47   52.26
   4  -4   5  316.48   35.61
   4  -4   5  294.95   39.40
  -4  -4  -5  238.66   43.78
   4   4   5  253.16   36.60
   5  -4   5   28.73   23.00
  -5   4  -5   27.20   31.28
   5  -4   5   31.16   21.39
  -5  -4  -5   32.94   31.03
  -5  -4  -5   46.04   30.76
   5   4   5   38.47   25.30
  -6   4  -5   81.79   42.05
  -6  -4  -5  116.55   45.38
  -6  -4  -5   50.91   26.41
   6   4   5  136.04   36.25
   6  -4   5   80.57   30.41
  -7  -4  -5   26.95   36.93
  -7   4  -5  -37.87   37.22
   7  -4   5  -12.15   24.24
  -7  -4  -5  -30.93   36.58
   7   4   5  -42.01   23.04
   7   5  -5  229.45   49.39
  -7  -5   5  239.80   46.69
  -6   5   5   71.03   28.92
  -6  -5   5  135.40   34.75
  -6   5   5   45.77   31.81
   6   5  -5   73.33   34.84
   5   5  -5  358.92   47.18
   5   5  -5  356.25   46.73
  -5   5   5  387.20   41.82
  -5  -5   5  372.46   44.86
  -4  -5   5  121.55   27.97
   4  -5  -5  140.51   27.97
   4   5  -5  166.10   31.23
   4   5  -5  155.86   31.46
  -4   5   5  100.87   26.50
   3  -5  -5   69.71   21.99
   3   5  -5   36.58   18.06
   3   5  -5   44.56   19.56
  -3  -5   5   28.90   17.43
  -3   5   5   39.19   20.03
  -2  -5   5  120.37   21.85
   2   5  -5  108.21   23.44
  -2   5   5  130.67   24.59
  -2   5   5  131.44   22.91
   2  -5  -5  104.13   22.81
  -1   5   5  339.31   27.67
   1  -5  -5  336.44   28.48
   1   5  -5  322.27   33.41
  -1   5   5  324.47   27.68
  -1  -5   5  340.56   27.17
   0  -5   5  155.19   16.28
   0  -5   5  169.38   21.58
   0  -5  -5  118.54   19.88
   0   5  -5  140.99   30.83
   0   5   5  147.16   17.73
   1   5   5  152.88   22.72
  -1   5  -5  145.78   31.06
   1  -5   5  180.20   22.63
  -1  -5  -5  169.81   28.02
  -1  -5  -5  140.65   26.64
   1  -5   5  137.00   19.73
   2   5   5  109.23   23.54
   2  -5   5  124.33   21.28
  -2  -5  -5  134.55   27.90
  -2  -5  -5   95.95   29.06
   3  -5   5   97.15   20.40
   3   5   5   80.39   22.26
  -3   5  -5   52.57   34.54
  -3  -5  -5   44.58   28.39
  -3  -5  -5   74.15   27.58
   3  -5   5   51.92   17.90
   4  -5   5  579.61   41.15
   4   5   5  485.90   42.64
   4  -5   5  534.72   43.27
  -4  -5  -5  496.36   58.59
  -4  -5  -5  564.03   66.92
  -4   5  -5  491.59   60.34
   5   5   5   14.98   22.42
   5  -5   5  -42.16   18.37
  -5  -5  -5   30.04   27.89
  -5   5  -5  -49.27   25.31
   5  -5   5    2.87   19.24
  -5  -5  -5    9.58   26.41
   6  -5   5   95.03   34.15
  -6  -5  -5   84.83   41.45
  -6   5  -5   40.62   36.71
   6  -5   5   66.11   25.95
   6   5   5   78.19   29.42
  -6  -5  -5   29.20   26.21
  -7   5  -5  -64.87   37.12
  -7  -5  -5   60.76   40.48
   7  -5   5   -2.94   24.97
  -7  -5  -5  -44.81   38.30
   7   5   5   66.53   31.77
  -7   6   5  -51.36   23.81
   7   6  -5   21.63   36.12
   6   6  -5   98.18   33.55
  -6  -6   5   83.31   32.74
   6   6  -5   23.24   27.82
  -6   6   5   56.47   27.78
  -5   6   5   12.20   22.55
   5   6  -5    2.80   22.84
  -5  -6   5   11.36   21.16
   5   6  -5    9.32   19.12
   4   6  -5   85.49   23.78
   4   6  -5   48.04   21.45
  -4   6   5  100.55   27.77
   4  -6  -5   98.00   31.01
  -4  -6   5   57.13   22.73
   3  -6  -5  234.30   36.27
   3   6  -5  301.41   37.48
   3  -6  -5  313.72   35.78
  -3   6   5  282.43   34.51
  -3  -6   5  307.30   35.19
   3   6  -5  328.21   37.18
   2  -6  -5   39.78   18.62
  -2   6   5   30.73   17.18
   2   6  -5   23.57   18.15
  -2  -6   5    4.92    9.27
   2   6  -5    9.17    9.37
   1   6  -5 1163.92   57.53
  -1   6   5 1126.58   51.08
   1  -6  -5 1150.94   52.48
  -1   6   5 1201.37   52.35
  -1  -6   5 1218.77   53.36
   0  -6  -5  545.22   33.82
   0  -6   5  498.73   31.24
   0  -6   5  525.54   26.16
   0   6  -5  473.38   42.86
   0  -6  -5  458.35   31.12
   0   6   5  513.57   28.66
   1  -6   5  562.93   34.63
  -1   6  -5  530.89   44.16
  -1  -6  -5  549.34   40.65
   1   6   5  565.77   35.87
   1  -6   5  615.02   34.83
  -1  -6  -5  660.75   42.71
  -2  -6  -5  250.93   36.20
   2   6   5  222.79   28.45
   2  -6   5  224.40   26.94
  -2  -6  -5  155.26   35.71
   3   6   5  214.10   31.08
  -3   6  -5  175.30   40.84
  -3  -6  -5  242.17   40.82
  -3  -6  -5  146.40   39.88
   3  -6   5  220.24   31.73
   3  -6   5  203.41   28.91
  -4  -6  -5  137.64   43.71
  -4  -6  -5  135.22   34.91
   4  -6   5   99.19   23.42
   4   6   5  110.68   25.46
  -4   6  -5  135.92   41.62
   4  -6   5   67.19   23.36
   5  -6   5   13.96   22.62
   5  -6   5   18.04   21.31
   5   6   5   52.49   27.67
  -5  -6  -5   31.98   30.06
  -5  -6  -5   19.06   30.77
  -5   6  -5   35.92   34.52
  -6  -6  -5   39.05   34.43
   6   6   5   31.82   24.77
  -6  -6  -5   63.98   36.67
   6  -6   5   31.88   25.82
   6  -6   5   53.55   27.21
  -6   6  -5   20.34   39.83
   7  -6   5  -27.75   22.02
   7   6   5   15.67   27.88
  -7   6  -5   -3.56   38.87
  -7  -6  -5  -16.03   39.33
  -7  -6  -5  129.68   39.48
  -7   7   5   42.78   36.05
   7   7  -5   39.79   37.72
  -6   7   5   15.40   25.23
   6   7  -5  -19.24   25.14
  -6  -7   5   20.64   23.51
   5  -7  -5  261.59   45.19
   5   7  -5  240.31   41.54
  -5   7   5  267.85   38.59
   5   7  -5  302.55   44.53
  -5  -7   5  260.46   39.28
  -4   7   5  397.35   43.63
   4  -7  -5  408.04   51.31
   4   7  -5  441.51   42.88
   4   7  -5  478.22   41.62
  -4  -7   5  487.82   41.20
   3  -7  -5  109.70   27.68
  -3   7   5  127.55   28.52
   3   7  -5  147.89   28.52
  -3  -7   5  129.15   24.74
   3  -7  -5  112.81   26.21
   3   7  -5  107.01   25.51
   2  -7  -5  514.83   39.30
  -1   7   5  159.92   25.23
   1  -7  -5  178.05   27.67
  -1  -7   5  175.39   23.89
   1   7  -5  198.15   30.78
   0  -7   5   73.01   13.37
   0   7  -5   61.50   28.93
   0  -7   5   96.28   18.80
   0   7   5   76.60   15.29
   0  -7  -5   73.80   16.68
   0  -7  -5   86.58   20.89
   0   7   5  100.73   19.61
   1   7   5  321.81   28.24
  -1   7  -5  356.49   42.11
  -1  -7  -5  343.91   37.46
   1  -7   5  319.05   26.67
  -1  -7  -5  333.07   32.39
   1  -7   5  306.89   26.98
  -2  -7  -5  -12.61   20.31
   2   7   5    4.42   12.91
  -2   7  -5   11.17   30.02
   2  -7   5    5.63   11.49
   2  -7   5   27.19   12.10
   3  -7   5  163.75   28.18
   3  -7   5  153.53   26.95
  -3   7  -5   92.11   36.33
   3   7   5  137.66   27.32
  -4   7  -5   47.47   35.19
   4   7   5   83.01   24.52
   4  -7   5   72.27   23.86
   4  -7   5   70.16   21.91
   5  -7   5   70.84   21.89
   5   7   5   79.52   30.08
  -5  -7  -5  112.70   36.54
  -5  -7  -5   88.79   40.89
  -5   7  -5   38.29   37.58
   5  -7   5  112.79   30.56
   6  -7   5   73.79   29.36
   6  -7   5  100.10   31.59
   6   7   5   83.64   30.90
  -6  -7  -5   83.67   40.31
  -6   7  -5   85.07   42.06
  -6  -7  -5  104.87   40.76
   7   7   5  226.85   43.80
  -7   7  -5   68.27   49.37
  -7  -7  -5   46.59   29.36
  -7  -7  -5  184.80   48.18
   7  -7   5   38.67   27.98
   7   8  -5   65.56   39.50
   6   8  -5   31.77   28.62
  -6   8   5   13.23   27.29
  -6  -8   5   40.33   25.58
   6  -8  -5   36.31   30.83
   5   8  -5   -3.08   22.95
   5  -8  -5   17.03   25.05
   5   8  -5   -6.16   21.71
  -5   8   5   21.53   23.86
  -5  -8   5   18.76   21.70
   4   8  -5  160.56   34.54
  -4   8   5  178.31   34.59
   4   8  -5  168.90   35.51
   4  -8  -5  125.57   33.45
  -4  -8   5  154.30   31.56
  -3   8   5  423.74   39.03
   3  -8  -5  434.67   48.05
   3   8  -5  380.31   37.28
  -3  -8   5  410.82   34.16
   3   8  -5  429.80   37.86
   2   8  -5  414.15   36.75
   2  -8  -5  348.21   33.18
  -2   8   5  396.37   35.90
   2   8  -5  375.23   31.03
   1  -8  -5  375.16   32.13
  -1  -8   5  373.49   28.41
   1   8  -5  354.27   35.61
   1  -8  -5  340.36   31.33
   0   8   5  340.20   28.57
   0  -8  -5  337.47   30.83
   0  -8   5  338.85   22.49
   0   8  -5  367.76   43.06
   0  -8   5  366.29   28.51
   0  -8  -5  324.44   27.15
   0   8   5  323.63   24.25
   1  -8   5  115.67   21.27
  -1  -8  -5  132.64   26.06
   1  -8   5  141.08   20.79
   1   8   5  154.97   24.74
  -1  -8  -5  114.00   28.75
  -1   8  -5   69.80   18.02
   2  -8   5   85.81   21.71
   2  -8   5  109.72   21.01
  -2   8  -5  100.79   36.85
   2   8   5   76.91   20.28
  -2  -8  -5   84.08   22.60
   3   8   5   16.90   14.05
   3   8   5   50.17   21.86
  -3   8  -5   72.81   34.69
   3  -8   5   19.83   16.82
   3  -8   5   42.53   16.17
  -4   8  -5   94.29   40.95
   4  -8   5  176.91   32.89
   4   8   5  218.51   36.76
   4  -8   5  183.01   33.32
   5   8   5    6.11   20.91
  -5  -8  -5   27.95   33.06
   5  -8   5   29.32   23.04
   5  -8   5    4.63   16.44
  -5   8  -5  -30.12   27.47
   6   8   5   24.72   25.05
  -6  -8  -5    2.19   34.73
   6  -8   5    8.33   22.12
  -6   8  -5  -48.00   32.80
   6  -8   5   -6.21   22.91
  -6  -8  -5   25.43   32.68
  -7  -8  -5  181.77   51.75
  -7  -8  -5   21.42   40.43
   7   8   5   65.74   31.57
   7  -8   5  -38.82   22.76
  -7   8  -5  -43.22   38.04
   7   9  -5   52.23   37.10
   6   9  -5    1.79   27.44
  -6  -9   5   52.37   27.60
  -6   9   5   12.30   28.17
   6  -9  -5   -7.42   29.16
  -5  -9   5  146.07   33.55
  -5   9   5  107.10   33.25
   5  -9  -5  148.87   38.52
   5   9  -5  145.19   35.16
   4  -9  -5   14.65   20.15
  -4   9   5   31.01   27.70
   4   9  -5   76.84   25.58
   4   9  -5   37.18   22.86
  -4  -9   5   76.68   22.99
   3  -9  -5  276.00   36.82
  -3   9   5  248.19   37.51
   3   9  -5  267.45   38.54
   3  -9  -5  201.72   36.07
   3   9  -5  224.66   37.57
  -3  -9   5  290.00   33.92
  -2  -9   5  387.09   32.29
   2  -9  -5  298.00   36.94
   2   9  -5  359.65   42.71
  -2   9   5  339.05   37.34
   2   9  -5  368.02   33.00
   1  -9  -5  142.52   27.89
  -1  -9   5  171.12   23.74
   1   9  -5  145.94   30.97
   1  -9  -5  148.78   25.79
  -1   9   5  158.00   24.34
   0  -9  -5  105.86   24.87
   0   9   5  136.32   22.57
   0  -9  -5  118.68   20.43
   0   9  -5  111.18   30.65
   0  -9   5  118.83   21.61
   0   9   5  120.06   18.14
   0   9  -5  119.30   19.84
   1  -9   5  581.24   38.70
   1   9   5  607.18   39.19
   1  -9   5  626.87   36.50
  -1  -9  -5  683.07   42.43
   2   9   5   31.80   20.78
  -2   9  -5   53.03   34.13
   2  -9   5   24.71   16.83
   2   9   5   46.65   17.20
   2  -9   5   29.12   14.26
  -3   9  -5  416.30   55.65
   3  -9   5  417.84   37.87
   3   9   5  487.23   39.53
   3  -9   5  516.60   39.66
   4  -9   5   51.82   21.04
   4  -9   5   -7.62   14.11
  -4   9  -5   22.85   36.75
   4   9   5   32.87   26.89
   4   9   5   16.78   20.89
  -5   9  -5  140.20   45.17
   5  -9   5   96.26   27.50
   5   9   5  104.33   30.48
   5  -9   5  127.75   32.57
   6   9   5   33.73   29.51
  -6   9  -5   34.80   42.68
   6  -9   5   55.14   28.03
  -6  -9  -5  153.08   45.12
  -6  -9  -5  203.96   50.61
   6  -9   5   51.25   25.00
  -7  -9  -5  104.92   42.07
  -7  -9  -5   47.08   42.46
   7   9   5  -16.97   27.18
  -7   9  -5  -25.43   42.70
   7  -9   5    8.53   27.99
   7  10  -5   57.02   38.64
  -6 -10   5  161.51   48.66
   6 -10  -5  128.39   40.79
   6  10  -5  186.41   45.15
  -6  10   5  241.35   46.28
  -5  10   5  157.86   38.06
   5 -10  -5  161.18   39.58
   5  10  -5  137.62   38.00
  -5 -10   5  183.02   33.76
   4  10  -5  -17.52   17.81
  -4 -10   5   13.66   18.88
  -4  10   5    4.78   24.38
   4 -10  -5    3.55   18.36
  -3 -10   5   94.91   22.35
   3  10  -5  145.19   33.25
  -3  10   5  140.33   33.48
   3 -10  -5  110.31   29.27
   2 -10  -5  299.06   39.06
   2 -10  -5  278.92   36.54
   2  10  -5  288.98   42.45
  -2 -10   5  274.39   31.22
   1  10  -5  484.88   42.48
  -1 -10   5  481.02   34.16
   1 -10  -5  560.69   39.62
   1 -10  -5  533.21   41.83
  -1  10   5  560.92   40.74
   0 -10   5  130.30   22.36
   0  10  -5  126.05   19.71
   0  10  -5  119.45   32.68
   0 -10  -5  136.83   22.33
   0 -10  -5  128.38   26.60
   0  10   5  135.04   23.89
  -1  10  -5  -30.65   18.10
   1 -10   5   17.45   11.92
  -1 -10  -5   43.38   21.25
   1 -10   5   15.71   13.27
   1  10   5   26.82   16.18
   1  10   5   19.53   14.14
   2  10   5   70.33   25.58
   2 -10   5   80.30   19.94
   2  10   5  102.45   23.72
  -2  10  -5  124.84   40.72
   2 -10   5   90.54   21.19
   3  10   5  118.06   31.28
   3  10   5  152.66   30.05
   3 -10   5  143.43   28.43
   3 -10   5  196.16   31.33
  -3  10  -5  145.15   45.26
   4 -10   5   97.52   24.89
   4  10   5  101.26   34.12
   4 -10   5  131.35   29.28
  -4  10  -5  125.61   42.50
   4  10   5  112.86   29.83
  -5  10  -5    6.84   37.37
   5 -10   5   14.43   25.14
   5  10   5   50.98   25.55
   5 -10   5   -5.59   17.70
  -6 -10  -5  117.60   46.77
   6 -10   5  -34.36   23.47
  -6  10  -5   41.49   39.43
   6  10   5   35.47   28.02
   6 -10   5   11.97   25.59
  -7  10  -5  106.11   52.52
  -7 -10  -5  227.99   56.97
   7 -10   5  120.87   42.89
  -7 -10  -5   73.31   48.65
   7  10   5  113.57   37.36
   7 -11  -5  -10.60   32.64
  -7  11   5  -24.32   33.14
   7  11  -5   -7.85   36.95
  -6  11   5   65.67   33.85
  -6 -11   5  -34.01   30.70
   6  11  -5   76.75   35.32
   6 -11  -5   24.19   30.52
   5  11  -5   94.55   31.94
  -5 -11   5  155.81   39.62
  -5  11   5  153.81   37.87
   5 -11  -5  123.94   36.68
  -5 -11   5  117.01   29.21
  -4 -11   5  303.45   37.30
   4 -11  -5  347.50   47.94
   4  11  -5  263.87   44.64
  -4  11   5  348.11   46.91
   3 -11  -5   32.89   19.33
  -3  11   5   49.41   28.21
   3  11  -5   32.67   21.61
  -3 -11   5    7.40   14.72
  -2 -11   5  250.20   30.58
   2 -11  -5  206.36   34.22
   2  11  -5  203.85   39.17
   2 -11  -5  161.54   33.15
   1 -11  -5  134.07   29.83
  -1  11   5  151.00   28.31
   1  11  -5  158.74   31.94
   1 -11  -5  140.36   26.52
   0  11  -5  139.82   21.41
   0 -11  -5   99.99   26.89
   0 -11   5  138.03   23.45
   0  11   5  104.79   23.59
   0 -11  -5   78.29   18.96
   0  11  -5  115.41   31.18
  -1  11  -5  326.05   34.70
   1 -11   5  291.71   32.41
  -1  11  -5  215.77   43.41
   1  11   5  258.11   34.97
  -1 -11  -5  283.22   36.93
   1  11   5  291.96   32.88
  -2 -11  -5  126.52   27.58
  -2  11  -5  128.93   43.95
   2 -11   5  162.56   26.58
   2  11   5  142.51   27.55
   2  11   5  176.90   32.75
   2 -11   5  181.35   27.80
  -3  11  -5  126.21   43.97
   3 -11   5  192.95   31.93
   3  11   5  158.52   30.11
   3 -11   5  159.24   29.78
   3  11   5  167.69   35.55
   4 -11   5  359.58   44.35
   4 -11   5  396.43   46.99
  -4  11  -5  338.90   56.32
   4  11   5  378.18   45.25
   4  11   5  351.12   52.34
  -5  11  -5  117.24   43.02
   5 -11   5   76.85   30.12
   5  11   5   14.24   24.38
   5  11   5   16.50   26.11
   5 -11   5   62.51   24.20
   6  11   5   -9.21   30.82
  -6  11  -5  -14.61   37.66
   6 -11   5   67.57   33.32
  -7 -11  -5  201.02   48.00
   7  11   5   48.44   36.18
   7 -11   5  102.84   39.74
  -7  12   5   23.85   38.03
   7 -12  -5   54.29   37.07
   7  12  -5   99.72   42.22
  -6  12   5  175.07   44.34
  -6 -12   5  170.14   46.39
   6  12  -5  174.39   43.91
   6 -12  -5   60.92   35.63
  -5 -12   5   83.54   25.46
  -5  12   5   48.66   33.46
   5 -12  -5   44.73   27.66
   5  12  -5   34.96   28.99
  -5 -12   5   43.51   31.25
   4  12  -5   38.94   26.99
   4 -12  -5   42.26   25.31
  -4  12   5   56.88   29.78
  -4 -12   5   -8.35   22.65
  -4 -12   5   61.96   22.16
  -3 -12   5  177.70   36.48
   3 -12  -5  192.18   36.91
  -3 -12   5  202.90   30.71
   3  12  -5  191.88   38.63
   2  12  -5   99.00   30.13
   2 -12  -5  104.08   27.30
  -2  12   5   94.26   28.38
  -2 -12   5   69.64   20.40
   1  12  -5  156.12   34.35
   1 -12  -5  206.78   31.06
   1 -12  -5  131.41   32.05
   0  12   5   48.92   16.43
   0 -12  -5   20.54   24.00
   0  12  -5   45.66   13.93
   0  12   5   23.65   18.40
   0 -12   5   62.59   19.00
   0 -12  -5   43.79   15.03
   0  12  -5   34.15   17.55
   1  12   5  268.63   34.10
  -1  12  -5  210.59   45.09
   1 -12   5  302.31   34.14
   1  12   5  260.74   34.28
  -1  12  -5  234.11   32.64
  -1 -12  -5  216.91   35.61
   2 -12   5  292.38   35.17
  -2 -12  -5  334.60   41.01
  -2  12  -5  237.06   47.84
   2  12   5  315.98   37.60
   2  12   5  320.52   44.36
   3 -12   5   52.32   18.47
   3  12   5   76.36   26.06
  -3  12  -5   41.42   38.20
   3  12   5   40.40   21.08
   4  12   5   88.40   28.47
   4 -12   5  150.15   32.44
  -4  12  -5  100.26   45.08
   4  12   5   74.74   30.70
  -5  12  -5   55.72   40.72
   5  12   5   94.99   32.86
   5  12   5   76.13   33.62
   5 -12   5   74.57   28.07
  -6  12  -5   31.12   41.65
   6 -12   5    0.37   30.30
   6  12   5   28.42   31.61
   6 -13  -5   20.51   30.89
   6  13  -5   -8.20   30.06
  -6 -13   5   48.06   36.40
  -6  13   5   16.18   35.22
  -5 -13   5    5.51   19.80
   5  13  -5   -1.72   24.70
  -5  13   5  -21.93   27.50
   5 -13  -5   39.34   27.88
   4 -13  -5   35.82   25.40
  -4 -13   5    4.95   25.70
  -4 -13   5   49.65   18.32
  -4  13   5   54.57   29.36
   4  13  -5   46.01   27.63
  -3 -13   5  202.32   36.66
  -3 -13   5  232.72   30.93
   3  13  -5  178.00   36.69
   3 -13  -5  200.45   40.79
   2 -13  -5   65.91   28.07
  -2 -13   5   72.10   19.55
  -2  13   5   42.20   26.41
   2  13  -5   36.48   24.50
   2 -13  -5   45.32   22.90
   1 -13  -5   25.85   25.62
   1  13  -5   48.30   24.93
   1 -13  -5   74.04   22.58
  -1 -13   5   14.24   10.68
  -1  13   5   35.73   23.36
   0 -13  -5  175.47   35.23
   0 -13   5  269.01   31.97
   0  13   5  259.00   28.97
   0 -13  -5  261.66   29.71
   0  13   5  238.04   33.27
   0  13  -5  219.33   27.21
  -1  13  -5  105.94   39.32
  -1  13  -5  163.92   29.03
   1  13   5  127.14   26.31
   1  13   5   98.75   23.35
   1 -13   5  171.88   28.71
  -1 -13  -5  100.42   28.28
   2  13   5  118.45   27.16
   2 -13   5  156.16   27.90
   2  13   5  179.72   33.93
  -2  13  -5  116.04   28.66
  -2  13  -5  125.31   41.08
   3 -13   5  380.37   44.30
   3  13   5  438.53   46.38
   3  13   5  450.75   41.25
  -3  13  -5  449.39   51.93
  -3 -13  -5  447.59   50.89
  -3  13  -5  282.24   52.64
  -4  13  -5  154.30   35.53
  -4  13  -5  152.28   47.74
   4 -13   5   80.05   27.44
   4  13   5  138.72   33.23
  -5  13  -5   49.13   28.32
   5  13   5  -61.04   23.53
   5  13   5   37.45   28.68
   5 -13   5   31.80   23.57
  -5  13  -5   49.57   40.94
   6 -13   5    9.83   30.32
  -6  13  -5   70.06   32.19
   6  13   5   36.18   32.54
  -6  13  -5  -35.38   42.11
   6 -14  -5   50.31   33.17
   6  14  -5   47.77   34.17
  -6  14   5   10.95   37.51
   5 -14  -5   21.13   28.29
  -5  14   5   20.04   30.96
   5  14  -5   23.67   27.51
  -5 -14   5    8.82   29.74
  -4 -14   5    2.90   15.66
  -4  14   5  -30.16   18.03
   4 -14  -5  -14.46   20.06
   4  14  -5  -10.67   21.03
   3  14  -5   10.74   21.30
  -3 -14   5    5.05   21.27
  -3  14   5    3.29   25.76
  -3 -14   5   13.67   16.58
   3 -14  -5   22.69   21.97
   2 -14  -5  197.83   35.73
  -2 -14   5  243.35   32.63
  -2  14   5  229.20   39.33
   2  14  -5  217.15   42.08
  -1 -14   5   67.42   20.61
   1 -14  -5   58.29   23.73
   1 -14  -5  102.74   26.45
   1  14  -5   94.49   30.60
  -1  14   5  105.49   29.97
   0  14   5  158.04   30.33
   0  14   5  164.32   24.83
   0  14  -5  228.94   27.16
   0 -14  -5  199.80   36.77
   0 -14  -5  125.88   25.28
   0 -14   5  186.80   30.70
  -1  14  -5   99.53   37.63
   1 -14   5   96.31   23.54
  -1  14  -5  136.51   27.19
   1  14   5  106.57   27.49
  -1 -14  -5   92.83   29.46
   1  14   5  106.26   25.98
  -2  14  -5   69.60   38.21
  -2 -14  -5  179.99   34.75
   2 -14   5  177.18   30.73
   2  14   5  192.24   33.28
   2  14   5  167.19   34.28
  -2  14  -5  186.24   33.74
  -3 -14  -5   19.93   23.95
   3 -14   5   41.67   19.30
   3  14   5   53.44   28.09
  -3  14  -5   10.70   22.48
  -3  14  -5   41.88   38.49
   3  14   5   67.07   24.04
   4  14   5   35.87   25.30
  -4  14  -5   72.09   28.11
  -4  14  -5    5.37   35.45
   4  14   5   -1.41   16.95
   4 -14   5   69.66   25.59
  -5  14  -5   17.94   38.86
   5  14   5   63.73   29.43
  -5  14  -5   84.57   30.22
   5  14   5   11.41   26.89
   5 -14   5   25.51   25.08
  -6  14  -5   69.54   29.55
   6  14   5   13.51   31.05
   6  14   5    0.95   31.61
   6 -14   5   54.33   31.95
   6 -15  -5   57.94   36.68
  -6  15   5   11.72   37.05
   6  15  -5   14.54   38.07
  -6 -15   5    2.32   33.88
   5 -15  -5   31.08   31.57
  -5  15   5   42.49   33.75
  -5 -15   5   30.02   32.11
   5  15  -5   64.19   32.95
  -4  15   5   49.99   21.59
  -4 -15   5   94.70   23.27
   4  15  -5   67.04   27.02
   4 -15  -5   99.05   34.94
  -3  15   5  204.69   43.68
  -3 -15   5  241.80   33.74
   3  15  -5  207.46   43.41
  -3 -15   5  152.87   32.93
   2 -15  -5  161.32   31.65
  -2 -15   5  219.43   32.93
  -2  15   5  161.40   36.95
   2  15  -5  183.08   38.02
  -1 -15   5   28.39   16.87
  -1  15   5   30.92   23.49
   1  15  -5   19.69   21.83
   1 -15  -5   37.07   28.16
   1 -15  -5   33.45   18.52
   0 -15  -5   93.14   33.74
   0 -15   5  127.76   26.57
   0  15  -5  100.23   23.63
   0  15   5  105.89   21.86
   0  15  -5  104.69   34.02
   0 -15  -5   79.59   22.91
   0  15   5   75.10   25.20
  -1  15  -5  182.54   42.92
   1 -15   5  191.19   31.52
  -1 -15  -5  195.03   36.94
   1  15   5  218.96   32.04
   1  15   5  195.86   32.98
  -1  15  -5  294.46   36.04
  -2  15  -5  138.17   43.21
   2  15   5  179.42   34.14
  -2  15  -5  171.83   34.55
   2  15   5  154.46   30.84
  -2 -15  -5  155.52   36.84
   2 -15   5  178.06   30.06
  -3  15  -5   51.65   38.56
   3  15   5   47.37   24.50
  -3 -15  -5   69.69   31.38
   3 -15   5   71.61   25.62
   3  15   5   49.19   25.76
  -3  15  -5   51.79   26.20
  -4 -15  -5   -8.04   22.30
   4 -15   5   64.37   24.10
   4  15   5  -24.15   21.72
   4  15   5   25.81   27.48
  -4  15  -5    0.74   37.81
  -4  15  -5  -14.74   20.69
   5 -15   5  106.99   36.01
   5  15   5   89.40   37.46
  -5  15  -5   81.37   34.51
  -5  15  -5   23.12   40.60
   5  15   5  128.60   37.89
   6 -15   5   40.94   32.92
   6  15   5   27.46   33.29
  -6  15  -5   73.06   39.15
   6  15   5   67.01   38.09
   6 -16  -5  -14.96   29.33
   6  16  -5  -33.40   31.92
  -6 -16   5  -17.29   30.05
  -6  16   5  -26.83   34.08
  -5  16   5  -28.06   22.60
   5  16  -5   36.00   33.57
  -5 -16   5    2.28   32.03
   5 -16  -5   30.58   30.54
   4 -16  -5   84.98   32.56
  -4  16   5  136.75   38.00
   4  16  -5   63.29   31.68
  -4 -16   5   67.13   21.27
  -4 -16   5   63.66   32.48
  -3  16   5  169.91   40.24
   3  16  -5  159.92   39.66
  -3 -16   5  191.88   31.93
   2  16  -5  108.57   31.02
  -2 -16   5  126.08   27.47
  -2  16   5  115.86   34.72
   2 -16  -5  116.94   30.65
  -1  16   5  214.84   38.73
   1 -16  -5  137.23   35.91
   1  16  -5  223.84   40.28
   1 -16  -5  216.81   34.02
  -1 -16   5  232.43   34.43
   0 -16   5   71.28   21.36
   0 -16  -5   53.00   29.95
   0  16  -5   33.71   21.44
   0 -16  -5   82.52   23.06
   0  16   5   27.85   22.82
   0  16  -5  -27.06   21.41
  -1  16  -5  638.24   46.23
   1  16   5  707.07   48.28
  -1 -16  -5  589.30   53.17
   1 -16   5  657.35   46.29
   1  16   5  577.17   47.21
  -1  16  -5  584.21   54.99
   2 -16   5  103.23   25.69
  -2  16  -5  153.65   30.61
  -2  16  -5   87.99   38.64
   2  16   5  114.04   29.71
  -2 -16  -5  100.70   30.61
   2  16   5  127.05   30.08
  -3  16  -5   56.22   35.41
   3  16   5   41.47   25.53
   3  16   5   53.54   25.41
  -3  16  -5   93.41   30.69
   3 -16   5   56.03   22.83
   4  16   5    3.57   26.50
   4 -16   5   37.05   20.33
   4  16   5   11.99   27.25
  -4  16  -5   86.94   43.12
  -4  16  -5   53.37   28.80
  -5  16  -5   44.40   32.92
   5 -16   5   52.58   28.38
  -5  16  -5   70.22   46.39
   5  16   5   70.13   31.75
   5  16   5  103.09   37.45
  -6  16  -5  -23.11   29.67
   6 -16   5   37.05   32.67
   6  16   5  -28.31   32.26
   6  16   5    7.02   32.71
  -6  17   5   -2.90   37.17
   6 -17  -5   15.93   30.88
   6  17  -5   10.52   33.52
   5 -17  -5   13.92   31.85
   5  17  -5   41.50   31.68
  -5  17   5   38.73   25.56
   4  17  -5    6.19   24.32
  -4 -17   5   18.02   19.17
  -4  17   5   54.11   35.22
  -4 -17   5   31.04   31.29
   4 -17  -5   30.06   27.78
   3  17  -5   88.04   33.91
   3 -17  -5   15.68   17.68
  -3 -17   5  112.59   25.81
  -3  17   5   78.89   34.16
   2  17  -5   87.85   31.87
  -2 -17   5   77.34   23.02
   2 -17  -5   91.97   24.32
  -2  17   5   51.98   32.27
  -1 -17   5  151.94   31.05
   1  17  -5  109.96   30.85
   1 -17  -5   98.19   23.27
  -1  17   5  113.72   31.28
   0  17  -5   43.82   22.10
   0  17   5   64.38   25.35
   0  17  -5   61.86   31.09
   0 -17   5    9.63   15.03
   0 -17  -5   83.39   34.25
   0 -17  -5   67.54   23.00
   1  17   5   33.32   22.26
  -1 -17  -5    0.30   26.73
   1  17   5   20.39   16.87
  -1  17  -5   17.28   28.88
  -1  17  -5   43.57   22.53
   1 -17   5   48.40   21.65
  -2 -17  -5  147.30   35.70
  -2  17  -5  119.81   38.87
   2  17   5  166.47   33.85
  -2  17  -5  208.19   35.57
   2 -17   5  181.86   33.66
   2  17   5  199.01   37.02
   3  17   5  192.70   40.52
  -3  17  -5  266.35   44.29
   3  17   5  298.67   45.13
  -3 -17  -5  242.02   45.06
   3 -17   5  243.74   40.61
  -3  17  -5  246.28   49.23
  -4  17  -5   23.88   36.12
   4 -17   5   19.91   20.27
   4  17   5   44.91   26.76
   4  17   5   27.29   25.76
  -4  17  -5   25.60   25.67
   5 -17   5   44.63   30.57
   5  17   5   84.80   39.26
  -5  17  -5   14.78   30.32
   5  17   5   38.03   30.26
  -6  17  -5   59.29   35.52
   6 -17   5  144.11   41.26
   6  17   5  105.01   41.51
   6  17   5   92.25   39.00
  -6  18   5  -38.80   30.60
   6 -18  -5    9.19   30.67
   6  18  -5  -36.53   32.53
  -5  18   5   22.07   31.70
   5 -18  -5   59.34   32.57
   5  18  -5  -18.47   26.04
  -4  18   5   87.88   41.92
   4  18  -5   81.58   35.83
   4 -18  -5   91.81   31.55
   3 -18  -5  103.03   30.64
   3  18  -5  117.08   37.74
  -3  18   5  119.73   36.87
  -3 -18   5   89.50   26.20
  -2  18   5   99.04   35.84
   2  18  -5  182.89   44.35
   2 -18  -5  178.39   37.38
  -2 -18   5  202.47   34.80
  -1  18   5  181.26   39.20
   1 -18  -5  244.99   35.54
  -1 -18   5  210.70   36.16
   1 -18  -5  119.62   37.09
   0 -18  -5   23.33   30.08
   0  18  -5   42.60   21.89
   0 -18  -5   -6.45   18.32
   0 -18   5    4.65   12.16
   0  18   5   28.18   24.20
   0  18  -5   47.12   27.28
  -1 -18  -5   73.10   34.14
   1  18   5   50.58   27.00
   1  18   5   75.26   23.26
   1 -18   5   93.28   26.02
  -1  18  -5  111.90   26.34
  -1  18  -5   71.51   31.33
   2 -18   5   31.89   19.66
  -2  18  -5    5.74   26.82
  -2  18  -5   71.77   27.89
   2  18   5   35.66   27.44
  -2 -18  -5   63.41   28.51
   2  18   5   31.69   20.91
   3  18   5  -23.90   19.59
  -3  18  -5    4.78   31.30
   3 -18   5    7.37   18.72
  -3 -18  -5   58.02   31.63
  -3  18  -5   32.03   28.33
   3  18   5  -18.59   21.66
   4 -18   5   35.49   23.12
  -4 -18  -5   77.87   37.10
   4  18   5   39.28   27.73
  -4  18  -5   92.25   37.61
   4  18   5   36.98   30.56
  -4  18  -5   52.30   31.05
   5  18   5    6.43   24.67
   5  18   5  131.77   41.26
  -5  18  -5   26.37   34.26
   5 -18   5  101.78   31.57
   5  19  -5   10.75   28.55
  -5 -19   5    9.05   30.31
  -5  19   5   -8.58   34.49
   5 -19  -5   70.79   35.31
  -4  19   5  108.33   40.59
   4  19  -5   31.24   30.92
   4 -19  -5   69.67   30.61
   3 -19  -5   36.33   27.19
  -3 -19   5   46.65   23.98
   3  19  -5   23.43   27.61
  -3  19   5   88.05   35.98
  -2 -19   5   -2.33   18.52
  -2  19   5  -29.88   22.90
   2 -19  -5  -13.74   16.23
   2  19  -5   15.45   25.17
   1  19  -5    6.37   19.77
   1 -19  -5   24.70   17.82
  -1  19   5   41.51   25.50
  -1 -19   5   56.20   23.86
   0 -19  -5   47.79   30.96
   0  19  -5   61.99   24.98
   0 -19   5   -5.56   12.77
   0  19   5  153.44   36.57
   0  19  -5  163.29   39.75
  -1  19  -5  116.86   35.83
   1  19   5  109.95   30.43
   1  19   5  157.08   29.93
   1 -19   5  121.12   28.32
  -1 -19  -5   83.03   33.36
  -1  19  -5   94.77   28.58
  -2 -19  -5   40.92   25.23
   2 -19   5   39.26   17.55
   2  19   5    7.05   19.97
  -2  19  -5   14.97   23.33
  -2  19  -5   65.11   29.96
   2  19   5   55.69   29.34
  -3  19  -5  120.55   36.98
  -3 -19  -5  132.10   41.70
   3  19   5   93.54   33.56
   3 -19   5   90.66   27.36
  -3  19  -5   70.66   34.87
   3  19   5   62.17   28.35
   4  19   5   16.38   27.83
  -4 -19  -5  -13.85   33.76
   4 -19   5    1.36   18.98
  -4  19  -5   -0.57   26.60
   4  19   5   27.76   32.04
  -4  19  -5   89.06   38.43
   5 -19   5    2.47   24.01
   5  19   5  -11.33   25.64
   5  19   5    4.46   31.38
  -5  19  -5   -9.24   32.49
   5  20  -5  -23.78   27.01
  -5  20   5  -17.09   37.31
   5 -20  -5   35.87   31.15
   4  20  -5  139.09   43.03
   4 -20  -5   86.63   32.46
  -4  20   5   75.12   39.99
  -3  20   5   25.46   28.96
   3  20  -5   20.83   28.44
  -3 -20   5   -7.37   22.27
   3 -20  -5   42.66   24.92
  -2 -20   5  174.31   35.00
   2 -20  -5  147.10   33.19
   2  20  -5  129.69   37.75
  -2  20   5  125.51   40.93
  -1  20   5  125.65   36.07
  -1 -20   5  138.58   33.03
   1 -20  -5  130.44   28.38
   1  20  -5  178.32   44.26
   0  20   5   68.08   28.20
   0 -20   5   41.36   17.79
   0  20  -5   74.72   28.18
   0 -20  -5   17.05   32.90
  -1 -20  -5   32.53   28.31
   1 -20   5   28.60   21.61
  -1  20  -5   81.20   25.61
  -1  20  -5   76.20   27.81
   1  20   5   53.21   29.68
   2  20   5   44.89   23.18
  -2 -20  -5   13.51   27.37
  -2  20  -5   32.67   28.88
   2 -20   5   34.97   21.23
   2  20   5   29.40   26.84
  -2  20  -5   54.37   26.34
  -3 -20  -5   -5.16   25.27
   3  20   5   -1.49   24.42
   3  20   5  -29.99   21.72
  -3  20  -5   99.66   35.09
   3 -20   5   22.24   16.93
  -3  20  -5   12.16   27.20
  -4 -20  -5   78.75   42.63
  -4  20  -5   82.50   36.50
   4 -20   5   -7.88   19.42
   4  20   5   73.63   37.63
   4  20   5   62.63   30.30
  -5  20  -5  -53.37   27.52
   5 -20   5   15.80   26.24
   5  20   5   29.93   33.65
   5  20   5  -26.74   30.74
   5 -21  -5   52.75   34.86
   5  21  -5    9.65   32.19
  -5  21   5   29.58   36.88
  -4  21   5   18.81   31.80
   4 -21  -5   29.35   29.05
   4  21  -5   42.71   30.63
   3  21  -5  -14.71   24.64
   3 -21  -5   -8.86   21.99
  -3  21   5   21.64   32.01
   2 -21  -5   14.82   21.76
  -2  21   5    5.13   30.07
   2  21  -5   30.24   28.91
  -2 -21   5  -10.42   21.06
  -1  21   5  211.43   42.87
   1  21  -5  183.22   44.90
  -1 -21   5  213.90   37.52
   1 -21  -5  130.94   31.09
   0  21  -5  282.77   49.45
   0 -21   5  269.66   42.13
   0  21   5  265.97   44.34
   1 -21   5   38.77   22.75
  -1 -21  -5   29.52   31.48
   1  21   5   40.97   25.15
  -1  21  -5   34.76   25.24
  -1  21  -5   29.24   25.43
   2  21   5   99.52   28.98
  -2 -21  -5   82.52   40.08
   2  21   5   94.36   31.73
  -2  21  -5   54.48   28.66
  -2  21  -5  148.81   37.35
   2 -21   5  107.99   27.93
   3 -21   5   55.68   23.08
  -3  21  -5   31.20   32.00
   3  21   5   31.21   25.90
  -3 -21  -5   68.55   36.64
  -3  21  -5   61.90   31.14
   3  21   5   12.36   27.69
  -4  21  -5   40.04   33.79
   4  21   5   25.89   33.73
   4 -21   5   13.70   21.22
   4  21   5  -34.62   28.40
  -4 -21  -5   13.36   34.18
   5  21   5   54.50   39.95
  -5  21  -5   -6.56   37.29
   5 -21   5  -33.06   23.28
   5  21   5  -49.09   30.51
  -4  22   5   62.15   38.43
   4 -22  -5   63.75   30.65
   4  22  -5   42.41   31.48
   3  22  -5   12.29   29.54
   3 -22  -5  112.31   32.97
  -3  22   5   49.33   35.54
  -2 -22   5   88.55   27.11
   2 -22  -5   37.39   23.95
  -2  22   5   17.83   29.89
   2  22  -5   72.20   32.14
  -1 -22   5   72.73   25.65
   1  22  -5   86.61   34.88
  -1  22   5   82.86   34.68
   0 -22   5  -13.32   18.39
   0  22   5   53.76   27.93
   0  22  -5   -8.10   25.45
   0 -22  -5  -30.11   30.53
  -1  22  -5   73.45   27.89
  -1  22  -5   95.06   30.45
   1 -22   5   53.67   25.90
  -1 -22  -5  -23.72   30.20
   1  22   5   44.47   27.27
  -2  22  -5   50.63   27.45
  -2 -22  -5   20.85   33.08
   2  22   5  -38.37   23.94
   2 -22   5    3.82   21.40
  -2  22  -5   -8.65   23.32
  -3 -22  -5   -0.59   27.24
  -3  22  -5   40.33   31.67
   3  22   5   -1.22   24.27
   3 -22   5    2.35   22.74
  -3  22  -5   28.00   31.73
   3  22   5    9.14   30.12
   4  22   5    9.24   35.36
   4 -22   5   72.88   32.63
  -4  22  -5   36.28   38.00
   4  22   5   70.11   31.36
  -4 -22  -5   30.88   34.26
  -4  23   5   22.30   35.45
   4 -23  -5   16.30   24.46
   4  23  -5   13.86   29.30
  -3  23   5   27.17   34.88
   3  23  -5    9.88   29.61
   3 -23  -5   -0.47   25.80
  -2 -23   5   66.22   29.22
  -2  23   5   49.41   34.38
   2  23  -5   14.87   28.71
   2 -23  -5   68.31   25.30
  -1  23   5   16.91   25.39
  -1 -23   5  -13.64   20.05
   1  23  -5   17.96   28.88
   0  23  -5  135.19   37.94
   0  23   5  101.49   34.51
   0 -23   5  165.09   35.40
  -1  23  -5  230.11   37.72
   1 -23   5  142.66   30.92
   1  23   5  185.60   44.90
  -1 -23  -5   85.16   40.10
  -1  23  -5  180.37   39.52
   2  23   5  111.71   36.21
  -2  23  -5  144.47   37.19
  -2  23  -5  147.80   35.89
   2 -23   5  139.47   36.42
  -2 -23  -5   78.29   43.03
   3  23   5   57.71   35.53
   3 -23   5   -3.37   21.69
   3  23   5   20.34   27.54
  -3  23  -5   28.64   31.14
   4 -23   5    2.45   19.05
   4  23   5   45.98   29.87
   4  23   5   -6.65   33.42
  -4  23  -5   -1.69   38.03
   4 -24  -5   -2.92   27.34
   4  24  -5   14.58   33.96
  -4  24   5   13.12   34.02
   3 -24  -5   25.25   27.15
  -3  24   5   34.01   37.20
   3  24  -5    7.32   32.47
  -2 -24   5   56.28   26.05
   2  24  -5  -11.86   23.73
   2 -24  -5   76.55   25.74
  -2  24   5   31.30   30.49
  -1  24   5   13.83   29.50
  -1 -24   5    2.59   24.30
   1  24  -5   96.89   37.34
   0  24   5   99.13   34.44
   0  24  -5   42.98   30.08
   0 -24   5   43.41   23.96
  -1  24  -5  109.25   36.87
   1  24   5  136.77   39.87
   1 -24   5   70.86   26.33
  -2  24  -5   51.93   31.20
  -2  24  -5   75.22   32.33
   2  24   5  122.82   41.32
   2 -24   5   68.58   24.85
   3  24   5   77.87   36.13
  -3  24  -5  -11.76   30.77
   3 -24   5   -3.15   21.47
   4 -24   5   60.63   28.78
   4  24   5   66.41   42.72
   4  24   5   33.09   32.71
   3  25  -5   96.98   43.28
  -3  25   5   57.70   39.16
   3 -25  -5  152.28   37.92
   2  25  -5  -14.73   30.52
  -2  25   5   18.80   31.09
  -1 -25   5   11.85   21.13
  -1  25   5   45.75   31.14
   1  25  -5   27.11   31.44
   0  25  -5  102.47   38.87
   0  25   5   92.53   32.75
   0 -25   5   86.27   28.14
   1  25   5   51.84   32.25
  -1  25  -5   36.71   31.18
   1 -25   5  -22.72   16.33
   2 -25   5    6.50   19.97
   2  25   5   27.91   33.91
  -2  25  -5   35.40   31.21
  -2  25  -5  102.62   33.97
   3  25   5   30.70   37.51
  -3  25  -5   79.34   38.00
   3 -25   5   12.84   24.86
  -3 -25  -5   22.13   38.30
   3  26  -5  -20.19   28.86
  -3  26   5   -4.69   33.48
   3 -26  -5   10.11   28.18
  -2  26   5    1.68   31.71
   2  26  -5   10.93   33.75
  -1  26   5   22.16   33.10
   1  26  -5    5.15   32.20
  -1 -26   5  -16.46   22.16
   0 -26   5   37.09   23.83
   0  26   5  -22.57   29.22
   0  26  -5  120.61   40.84
  -1  26  -5  219.72   47.20
   1  26   5  195.43   45.93
   2  26   5   50.05   36.13
   2 -26   5   23.05   22.61
  -3 -26  -5  -28.33   33.39
  -2  27   5    5.75   33.47
   2  27  -5   50.83   37.48
  -1  27   5   64.66   33.48
   1  27  -5   73.03   40.26
  -1 -27   5   71.57   28.21
   0 -27   5   35.87   27.08
   0  27   5    4.16   30.08
   0  27  -5   73.36   37.06
  -1  27  -5   35.27   33.34
   1 -27   5    5.63   22.33
   1  27   5   10.93   32.10
   2  27   5   35.16   39.38
   2 -27   5   57.06   31.99
  -1  28   5    9.32   33.76
   1  28  -5   40.89   38.50
   0 -28   5   10.63   22.26
   0  28  -5   81.04   38.50
   0  28   5   27.60   35.89
   1  28   5  117.78   44.69
   1 -28   5   61.14   26.07
  -7   0   6   92.94   38.62
  -6   0   6   13.76   27.21
   6   0  -6   -3.46   22.49
   5   0  -6   33.87   21.48
   5   0  -6   61.27   26.44
  -5   0   6  -25.19   13.87
   4   0  -6    1.95   16.59
  -4   0   6   45.17   22.01
   4   0  -6   27.33   19.33
   3   0  -6  208.83   29.73
  -3   0   6  173.54   30.91
   3   0  -6  184.70   26.65
  -2   0   6   22.07   13.85
   2   0  -6   -3.57   14.42
   2   0  -6   32.11   15.68
   1   0  -6  566.91   33.01
  -1   0   6  521.74   28.55
  -1   0   6  489.45   34.28
   1   0  -6  550.42   42.13
   0   0   6   -0.92   10.78
   0   0  -6   16.97   23.11
   0   0   6   25.01   11.54
   1   0   6   88.28   16.29
  -1   0  -6   78.37   25.70
   1   0   6  107.24   19.92
  -2   0  -6  173.74   34.63
   2   0   6  202.23   22.95
   2   0   6  157.89   25.12
  -3   0  -6   18.70   26.60
   3   0   6    5.47   17.73
   3   0   6   38.51   13.96
   4   0   6  628.09   37.75
  -4   0  -6  709.06   63.63
   4   0   6  626.70   49.47
   5   0   6  153.07   34.19
  -5   0  -6    0.15   19.85
  -6   0  -6   31.94   37.53
   6   0   6   38.08   27.97
   7   0   6  136.38   37.31
  -7   0  -6  119.39   49.91
  -7  -1   6   79.71   36.37
  -7   1   6   39.48   34.03
  -6   1   6   26.43   23.11
  -6  -1   6   55.09   33.67
   5   1  -6   25.29   23.08
   5   1  -6   43.96   24.48
   5  -1  -6    4.69   19.43
  -5  -1   6   12.30   19.91
  -5   1   6   47.72   24.38
  -4   1   6  116.34   28.71
   4   1  -6   87.04   22.34
   4  -1  -6  111.28   26.15
  -4  -1   6  131.09   29.74
   4   1  -6  136.59   27.80
   4  -1  -6  119.17   24.05
  -4   1   6   85.30   22.29
   3  -1  -6   48.67   20.54
  -3   1   6   38.99   16.22
  -3  -1   6   35.57   17.62
   3   1  -6   17.66   16.05
   3  -1  -6   32.34   15.55
   3   1  -6   23.59   15.34
  -3   1   6   22.19   15.50
  -2  -1   6   65.82   18.88
   2   1  -6   94.70   21.25
  -2   1   6   96.10   22.03
   2  -1  -6   94.62   20.63
   2  -1  -6   68.10   16.90
   2   1  -6  118.51   21.46
  -2   1   6   87.22   16.36
  -1   1   6  183.35   20.78
  -1  -1   6  147.00   24.31
  -1  -1   6  156.29   17.16
   1  -1  -6  159.74   29.72
  -1   1   6  179.20   24.95
   1   1  -6  158.20   30.89
   0  -1   6 1948.94   67.20
   0   1  -6 1925.79   77.29
   0   1   6 1829.41   64.49
   0   1   6 1959.80   66.76
   0  -1  -6 1937.07   75.03
   0  -1   6 1917.13   64.46
   1  -1   6  287.46   23.31
  -1  -1  -6  307.02   36.91
   1   1   6  290.98   27.59
   1  -1   6  305.51   27.57
   1   1   6  287.30   20.87
  -1   1  -6  293.75   38.46
  -2   1  -6  105.35   32.28
  -2  -1  -6  135.22   31.51
   2  -1   6  141.80   21.68
   2   1   6  153.11   19.07
   2   1   6  107.22   23.61
   2  -1   6  168.08   25.79
  -3   1  -6 1057.38   71.27
  -3  -1  -6 1057.37   71.46
   3   1   6 1130.13   60.58
   3   1   6 1157.31   46.62
   3  -1   6 1100.52   59.55
   3  -1   6 1139.19   49.21
   4  -1   6  342.39   42.36
   4  -1   6  337.61   29.34
   4   1   6  301.24   42.02
   4   1   6  325.43   26.95
  -4  -1  -6  347.37   56.26
   5  -1   6  194.45   37.29
   5   1   6  174.58   38.20
  -5   1  -6  216.65   49.61
  -6  -1  -6   52.78   41.38
  -6   1  -6   63.00   41.17
   6  -1   6   39.53   31.34
   6   1   6   74.25   29.03
   7  -1   6   40.14   32.92
  -7   1  -6   59.37   45.99
   7   1   6    4.03   28.40
  -7  -1  -6  112.59   49.84
  -7   2   6   55.96   35.21
  -7  -2   6   46.07   36.86
  -6   2   6   72.89   24.62
  -6  -2   6  -19.68   25.10
   5  -2  -6   -6.30   20.67
   5   2  -6   -1.63   19.44
  -5   2   6   12.54   23.52
   5   2  -6    3.66   23.75
  -5  -2   6   34.16   23.23
  -4  -2   6   27.76   18.74
  -4   2   6   55.99   22.45
   4  -2  -6   74.95   23.41
   4   2  -6   24.98   19.09
   4   2  -6   26.37   20.41
   4  -2  -6   25.51   18.92
  -4   2   6   26.09   22.04
   3  -2  -6  176.06   22.94
   3   2  -6  188.97   29.19
   3  -2  -6  181.43   29.50
  -3   2   6  224.81   34.34
  -3   2   6  179.80   25.18
   3   2  -6  208.89   27.93
  -3  -2   6  202.73   32.34
   2  -2  -6  333.40   25.94
  -2  -2   6  484.82   36.82
   2   2  -6  388.89   29.45
  -2   2   6  375.49   27.89
   2  -2  -6  426.40   31.23
  -2   2   6  389.70   34.62
   2   2  -6  413.65   32.64
   1   2  -6  373.17   39.51
   1  -2  -6  292.50   34.63
  -1   2   6  276.33   29.32
  -1  -2   6  291.32   28.09
  -1   2   6  316.90   24.56
   0   2   6  165.74   21.11
   0   2   6  182.44   23.33
   0  -2  -6  155.10   28.14
   0   2  -6  203.61   35.27
   0  -2   6  159.14   19.97
   0  -2   6  171.20   22.54
  -1   2  -6  388.24   38.46
  -1  -2  -6  360.79   35.10
   1  -2   6  353.62   26.23
   1  -2   6  342.40   27.75
   1   2   6  329.16   22.03
   2   2   6  471.50   35.50
   2   2   6  482.23   27.44
  -2   2  -6  462.63   46.50
   2  -2   6  422.91   33.92
   2  -2   6  509.76   32.55
  -2  -2  -6  453.08   42.79
   3   2   6  105.02   23.94
  -3  -2  -6   88.48   32.76
  -3   2  -6  127.52   34.96
   3  -2   6  107.95   24.54
   3  -2   6  108.44   20.42
  -4  -2  -6  228.43   46.37
   4  -2   6  230.64   36.54
   4  -2   6  241.87   29.58
   4   2   6  179.32   33.98
   5   2   6  116.44   34.97
   5  -2   6   77.84   22.70
  -5  -2  -6   49.89   33.89
  -5   2  -6   89.05   38.45
   5  -2   6  111.30   31.30
  -6   2  -6    6.20   37.18
   6  -2   6   38.98   24.79
   6   2   6   11.56   27.86
  -6  -2  -6   28.19   33.97
  -7  -2  -6   74.96   45.96
   7   2   6   53.55   34.24
  -7   2  -6   -3.12   40.69
   7  -2   6   60.26   32.60
  -7   3   6   66.92   36.68
  -7  -3   6   41.44   35.36
  -6   3   6   -3.44   23.26
  -6  -3   6   13.96   27.01
   6   3  -6    5.98   24.11
   6   3  -6  -14.93   26.37
   5   3  -6   76.80   27.41
  -5  -3   6  102.68   29.68
  -5   3   6  110.56   34.07
   5  -3  -6   68.62   25.89
   5   3  -6   97.25   32.51
  -4   3   6   54.34   21.26
  -4  -3   6    2.42   14.56
  -4   3   6   57.53   24.19
   4  -3  -6   87.57   24.64
   4   3  -6   87.64   24.97
   4   3  -6  103.14   27.06
  -3   3   6  241.84   36.13
  -3  -3   6  203.35   33.01
   3   3  -6  281.71   32.68
  -3   3   6  257.49   29.12
   3   3  -6  239.09   31.40
   3  -3  -6  214.74   32.39
   2   3  -6   74.87   22.06
  -2   3   6   37.87   16.55
  -2   3   6   51.90   16.59
  -2  -3   6   61.08   18.31
   2  -3  -6   39.21   17.82
   2   3  -6   47.64   14.13
  -1   3   6  130.14   21.73
  -1   3   6  101.31   18.00
  -1  -3   6  102.93   20.78
   1  -3  -6  113.26   21.12
   1  -3  -6  118.70   25.47
   1   3  -6   96.15   28.80
   0   3   6  426.64   29.40
   0  -3   6  410.64   25.85
   0   3  -6  425.35   43.27
   0  -3   6  390.76   28.49
   0   3   6  393.07   27.45
   0  -3  -6  417.26   33.53
  -1  -3  -6  242.47   33.50
  -1   3  -6  226.15   36.16
   1  -3   6  243.86   28.11
   1  -3   6  215.82   24.36
   1   3   6  235.09   18.84
  -2   3  -6   78.83   29.43
   2  -3   6   95.16   18.80
   2   3   6   88.88   13.74
   2   3   6  105.91   22.82
  -2  -3  -6   86.31   27.67
   3  -3   6  720.57   40.61
  -3   3  -6  664.64   56.53
   3   3   6  711.84   48.06
   3  -3   6  675.84   47.17
  -3  -3  -6  655.04   58.49
  -4  -3  -6   98.23   35.15
   4  -3   6  167.72   26.60
   4  -3   6  109.62   27.84
  -4   3  -6  120.59   39.90
   4   3   6  125.27   30.36
   5  -3   6   44.08   20.68
   5  -3   6  -14.56   21.13
  -5  -3  -6   21.53   27.05
  -5   3  -6   -6.18   31.69
   5   3   6  -14.14   22.73
   6   3   6   -4.10   25.62
  -6   3  -6   -2.16   38.52
   6  -3   6   64.42   29.82
  -6  -3  -6  -12.08   23.30
   7   3   6   91.44   32.87
  -7  -3  -6   20.33   36.99
  -7   3  -6  -19.12   40.74
   7  -3   6   16.44   29.63
  -7  -4   6   56.14   35.73
  -7   4   6   29.30   30.93
  -6   4   6   35.34   30.60
  -6  -4   6   59.11   27.79
   6   4  -6  -16.49   29.19
   5  -4  -6   39.85   25.54
   5   4  -6   76.74   30.38
   5   4  -6   80.97   29.56
  -5   4   6   49.02   26.28
  -5   4   6   87.80   27.29
  -5  -4   6   94.03   29.40
   4   4  -6   -2.09   21.95
  -4   4   6   10.20   18.18
  -4   4   6   20.03   20.22
  -4  -4   6    4.31   18.15
   4  -4  -6   26.42   18.05
   4   4  -6   14.96   19.76
   3   4  -6  192.80   30.32
   3  -4  -6  225.89   34.38
   3   4  -6  260.88   32.84
  -3   4   6  196.05   33.06
  -3  -4   6  201.88   32.11
  -3   4   6  246.55   30.95
   2   4  -6  127.24   26.01
  -2   4   6  108.16   22.94
  -2  -4   6  137.00   25.11
   2  -4  -6  138.60   24.43
  -2   4   6  155.01   26.59
   1  -4  -6  167.46   28.37
   1  -4  -6  235.55   29.07
  -1  -4   6  184.61   27.03
  -1   4   6  217.43   27.14
   1   4  -6  221.46   35.44
  -1   4   6  205.34   23.11
   0  -4   6   58.82   14.45
   0   4  -6   66.25   29.77
   0   4   6   64.10   16.84
   0  -4  -6   54.25   21.10
   0   4   6   66.47   15.81
   0  -4   6   79.67   17.70
   0  -4  -6   39.98   17.96
   1   4   6  245.36   18.72
  -1  -4  -6  215.37   32.14
   1  -4   6  252.70   24.12
  -1   4  -6  256.07   39.51
   1   4   6  255.69   24.77
   1  -4   6  241.92   22.35
  -2   4  -6  376.67   48.00
   2   4   6  422.48   35.30
   2  -4   6  384.86   30.07
  -2  -4  -6  410.54   41.25
  -3  -4  -6  193.93   41.81
   3  -4   6  171.39   30.13
   3  -4   6  194.49   27.47
  -3  -4  -6  172.40   36.70
   3   4   6  188.84   31.40
   4  -4   6  868.17   56.89
  -4  -4  -6  817.88   69.14
  -4   4  -6  803.70   70.10
   4  -4   6  770.25   46.66
  -4  -4  -6  663.43   65.15
   5  -4   6  368.65   47.94
   5   4   6  340.10   48.07
  -5  -4  -6  331.93   62.84
   5  -4   6  349.18   34.19
  -5   4  -6  258.98   54.37
  -5  -4  -6  276.32   58.43
  -6  -4  -6   33.23   35.65
  -6  -4  -6   -1.50   38.79
  -6   4  -6    1.45   36.05
   6   4   6   31.40   27.10
   6  -4   6   26.10   29.25
   7   4   6   22.12   29.48
  -7   4  -6  -68.65   38.85
   7  -4   6   46.12   29.95
  -7  -4  -6  -15.01   35.63
  -7   5   6   12.14   31.24
  -7  -5   6   -7.76   30.15
   6   5  -6  110.36   33.14
  -6   5   6   43.37   31.90
  -6  -5   6   15.67   28.95
   6   5  -6   39.14   27.21
  -5   5   6   50.53   25.84
   5   5  -6   33.32   24.94
   5   5  -6   40.63   24.73
  -5  -5   6   21.47   22.48
  -5   5   6   16.10   23.28
  -4  -5   6   29.12   20.04
  -4   5   6   16.01   19.74
  -4   5   6   15.86   21.26
   4  -5  -6   15.57   17.07
   4   5  -6    4.21   21.06
   4   5  -6    4.87   17.26
   3   5  -6  412.33   36.42
  -3   5   6  453.76   38.02
  -3   5   6  491.92   42.04
   3  -5  -6  363.16   34.55
   3   5  -6  441.74   37.22
   2   5  -6  264.14   34.69
  -2   5   6  272.40   33.62
  -2  -5   6  247.05   31.87
   2  -5  -6  284.39   32.71
  -2   5   6  226.88   28.18
   1   5  -6  319.34   40.14
  -1   5   6  292.22   27.46
  -1  -5   6  288.79   27.20
  -1   5   6  326.45   27.47
   1  -5  -6  335.69   34.46
   0  -5   6  132.43   16.52
   0   5   6  104.40   18.29
   0  -5   6   94.81   18.85
   0   5   6  125.39   21.32
   0   5  -6  100.96   31.62
   0  -5  -6  119.54   23.30
  -1   5  -6  297.96   40.80
   1   5   6  279.29   19.89
   1   5   6  306.71   27.85
   1  -5   6  286.92   25.28
   1  -5   6  288.61   26.52
  -1  -5  -6  328.84   33.63
   2  -5   6  248.32   30.28
  -2   5  -6  287.87   43.37
   2   5   6  335.31   31.72
   2  -5   6  276.88   26.84
  -2  -5  -6  342.21   44.41
  -3  -5  -6   66.69   26.46
   3   5   6   55.97   21.46
  -3  -5  -6   59.61   28.21
   3  -5   6   41.29   18.10
   3  -5   6   56.46   17.99
  -4   5  -6   28.04   34.00
   4  -5   6    6.81   18.17
   4   5   6   18.56   18.71
  -4  -5  -6   -8.80   24.00
   4  -5   6   47.12   19.09
  -4  -5  -6   33.28   26.23
   5   5   6  329.06   47.69
  -5  -5  -6  279.79   55.33
   5  -5   6  257.00   36.48
  -5   5  -6  280.76   56.43
   5  -5   6  339.69   46.34
  -5  -5  -6  350.44   62.12
  -6  -5  -6  307.72   65.22
  -6  -5  -6  237.25   56.07
   6  -5   6  229.65   46.24
   6   5   6  219.63   45.04
  -6   5  -6  191.01   54.37
  -7   5  -6   14.91   45.34
  -7  -5  -6   11.16   31.54
   7  -5   6  -20.60   24.64
   7   5   6    6.72   28.19
  -7   6   6  -42.65   34.56
  -7  -6   6   12.89   32.64
  -6   6   6  -21.49   27.11
   6   6  -6    3.02   27.69
  -6  -6   6   19.20   26.82
  -5   6   6   84.81   33.20
   5   6  -6  194.58   38.69
  -5  -6   6  131.55   33.04
   5   6  -6  130.89   31.09
  -5   6   6  103.67   30.33
  -4   6   6   36.12   20.50
  -4   6   6   27.94   23.93
   4  -6  -6   78.79   26.29
  -4  -6   6   46.38   22.56
   4   6  -6   70.64   27.81
   4   6  -6   84.92   25.68
  -3   6   6  317.35   37.00
   3   6  -6  329.43   39.35
   3  -6  -6  357.21   40.34
  -3   6   6  370.91   43.09
   3   6  -6  321.77   34.06
  -2   6   6  108.43   24.23
   2   6  -6   99.97   25.27
   2  -6  -6   97.36   24.63
  -2  -6   6  107.75   23.61
   2   6  -6   85.06   21.46
  -2   6   6  143.85   26.70
  -1   6   6  391.46   30.57
  -1  -6   6  383.40   31.78
  -1   6   6  408.17   31.94
   1  -6  -6  411.86   33.71
   1   6  -6  388.84   40.01
   0   6  -6   96.93   33.33
   0  -6   6  114.43   21.00
   0  -6  -6   72.46   21.13
   0  -6   6  116.15   16.15
   0   6   6  113.34   17.33
   1   6   6  522.14   35.80
   1  -6   6  522.97   33.37
  -1  -6  -6  516.42   41.03
  -1   6  -6  472.92   46.82
   1  -6   6  514.01   34.03
  -2  -6  -6  620.29   51.54
   2  -6   6  626.65   40.03
   2   6   6  651.54   44.26
  -2   6  -6  682.04   53.60
  -2  -6  -6  697.13   54.73
   2  -6   6  582.38   40.52
   3   6   6   72.36   22.25
  -3   6  -6   61.34   37.98
   3  -6   6   83.13   23.25
  -3  -6  -6   64.82   28.19
   3  -6   6  111.05   23.38
  -3  -6  -6   15.72   23.76
  -4  -6  -6  246.79   51.03
   4  -6   6  220.97   35.64
   4  -6   6  208.64   32.54
   4   6   6  159.09   31.63
  -4   6  -6  180.72   47.91
  -4  -6  -6  215.30   42.35
  -5  -6  -6  101.35   36.24
   5  -6   6  190.28   35.92
  -5  -6  -6   79.88   37.61
  -5   6  -6   53.90   40.29
   5   6   6  100.90   33.17
   5  -6   6  112.42   29.11
   6  -6   6    0.06   23.17
  -6  -6  -6   -1.45   36.61
   6   6   6    6.94   28.71
  -6   6  -6   17.11   38.37
   6  -6   6  -19.02   22.64
  -6  -6  -6   14.39   35.43
  -7   6  -6   18.79   43.95
  -7  -6  -6   15.79   40.52
   7  -6   6   14.52   27.02
  -7  -6  -6   31.45   47.97
   7   6   6   48.63   32.41
   7   7  -6   12.24   35.47
  -7   7   6   23.40   32.51
  -6  -7   6   -2.88   22.86
   6   7  -6    4.23   30.49
   6   7  -6    8.12   24.37
  -6   7   6  -41.75   27.05
  -5   7   6  -18.96   24.22
   5   7  -6    9.82   27.01
  -5  -7   6   25.61   25.97
   5   7  -6   37.46   23.29
  -5   7   6   38.48   27.13
   4   7  -6   29.49   20.44
  -4  -7   6   36.97   22.55
   4  -7  -6   13.50   21.78
   4   7  -6   24.00   22.75
  -4   7   6   45.86   25.83
   3   7  -6   23.23   21.72
   3  -7  -6   21.98   17.77
  -3   7   6   18.32   22.26
   3   7  -6   58.42   21.56
  -3  -7   6    4.50   13.78
  -2   7   6  468.06   39.02
   2  -7  -6  481.53   38.14
  -2   7   6  545.98   40.40
   2   7  -6  514.17   41.78
  -2  -7   6  522.30   38.38
  -1   7   6   23.26   15.86
  -1   7   6   23.72   14.61
  -1  -7   6   31.01   15.56
   1   7  -6   26.72   23.48
   1  -7  -6   11.99   18.78
   0  -7   6  272.43   29.27
   0   7   6  211.18   23.14
   0  -7   6  220.03   18.62
   0  -7  -6  186.54   26.36
   0  -7  -6  270.33   33.08
   0   7  -6  296.32   43.66
   1   7   6  206.42   28.31
   1  -7   6  227.70   21.86
   1  -7   6  197.09   25.64
  -1  -7  -6  215.68   33.05
  -1  -7  -6  188.27   31.79
  -1   7  -6  252.58   44.59
   2   7   6  124.57   25.31
   2  -7   6  136.21   23.36
  -2  -7  -6  171.91   36.12
   2  -7   6  130.95   25.12
  -2  -7  -6  218.94   34.99
  -2   7  -6  109.57   26.31
  -3  -7  -6  523.10   61.52
   3   7   6  443.66   40.79
   3  -7   6  427.12   35.48
  -3  -7  -6  446.51   51.86
   3  -7   6  479.70   38.96
  -3   7  -6  413.74   56.20
   4   7   6   34.47   23.77
  -4   7  -6   22.03   35.95
  -4  -7  -6   16.99   31.68
   4  -7   6   64.73   23.41
   4  -7   6   49.29   18.93
  -4  -7  -6  -10.44   23.94
   5   7   6   41.49   26.80
   5  -7   6   29.85   22.24
  -5  -7  -6   11.26   29.90
  -5  -7  -6   74.48   32.18
  -5   7  -6   56.02   39.69
   5  -7   6   16.00   20.40
  -6  -7  -6  -16.82   34.24
   6   7   6   -7.46   26.52
   6  -7   6   -2.01   25.33
  -6   7  -6  -45.99   34.23
  -6  -7  -6   16.24   38.84
   6  -7   6  -21.55   19.24
  -7  -7  -6   -8.14   37.09
  -7  -7  -6   -6.75   44.30
   7   7   6    2.63   31.99
   7  -7   6  -15.89   25.85
  -7   7  -6  -86.53   37.83
  -7   8   6  -52.88   30.12
   7   8  -6   -6.49   34.49
  -6   8   6  -20.30   28.79
   6   8  -6   19.57   31.19
  -6   8   6   19.25   27.73
  -6  -8   6   27.81   26.89
  -5  -8   6  -17.05   22.19
  -5   8   6   -2.27   25.14
   5   8  -6   11.74   23.08
   5   8  -6    4.27   26.10
   4   8  -6   80.91   28.94
  -4  -8   6   83.87   27.34
  -4   8   6   52.45   27.93
   4   8  -6   58.36   26.87
  -3   8   6  393.50   43.11
   3   8  -6  403.22   36.52
   3  -8  -6  359.57   39.90
   3   8  -6  379.90   39.89
  -3  -8   6  374.90   41.30
  -2  -8   6  340.01   32.13
  -2   8   6  352.04   35.55
   2   8  -6  331.64   41.13
   2  -8  -6  372.69   41.04
   1   8  -6  127.63   30.84
   1  -8  -6  108.57   26.51
  -1   8   6  119.17   23.65
  -1   8   6  164.10   26.64
  -1  -8   6  189.64   27.06
   0  -8  -6  517.11   35.96
   0  -8   6  534.46   29.49
   0   8   6  582.76   37.43
   0  -8   6  541.84   36.29
   0  -8  -6  500.08   37.72
   0   8  -6  501.06   49.27
   0   8   6  549.05   32.78
   1   8   6    8.93   13.89
  -1   8  -6   18.43   33.72
   1  -8   6    8.84   13.08
   1  -8   6   34.32   14.84
  -1  -8  -6    9.20   21.38
  -1  -8  -6    3.73   17.45
   2  -8   6   48.71   18.60
   2   8   6   20.53   17.14
  -2   8  -6  -14.91   11.52
   2  -8   6   61.14   17.37
  -2  -8  -6   44.59   22.23
  -2  -8  -6   14.00   22.57
  -3  -8  -6  287.01   52.19
   3   8   6  239.47   37.17
   3  -8   6  294.58   35.24
  -3  -8  -6  321.38   47.29
  -3   8  -6  297.52   52.90
   3  -8   6  315.00   39.25
   4  -8   6   88.41   24.23
  -4  -8  -6   95.22   29.96
   4  -8   6  101.14   27.52
  -4  -8  -6   67.79   36.32
  -4   8  -6   62.87   38.31
   4   8   6  107.59   31.29
  -5  -8  -6   64.92   35.62
  -5   8  -6   70.62   40.45
  -5  -8  -6    5.67   29.71
   5  -8   6   71.43   25.76
   5   8   6   52.72   26.60
   5  -8   6   69.11   24.36
  -6  -8  -6   29.14   37.46
   6   8   6   -2.64   26.58
   6  -8   6   30.73   30.18
   6  -8   6  -13.29   19.66
  -6   8  -6  -31.72   30.66
  -6  -8  -6  -20.52   36.12
  -7   8  -6   29.00   52.06
   7   8   6   44.93   36.38
   7  -8   6    4.63   25.51
  -7  -8  -6   71.13   45.19
  -7  -8  -6    3.39   43.76
  -7   9   6   -5.31   34.87
  -7  -9   6   24.32   36.60
   7   9  -6   55.76   39.53
  -6   9   6   73.80   31.83
  -6  -9   6   39.22   27.66
   6   9  -6   35.48   32.51
   5   9  -6   -1.86   19.74
   5   9  -6   25.54   27.69
  -5   9   6   43.95   28.38
  -5  -9   6   45.58   26.13
   4   9  -6   38.01   25.96
  -4  -9   6   38.50   21.24
  -4   9   6   61.10   29.67
   4   9  -6   11.29   20.55
   4  -9  -6   43.19   25.31
   3  -9  -6  108.46   30.12
  -3  -9   6   79.79   22.67
   3  -9  -6   60.35   24.41
   3   9  -6   37.02   24.23
   3   9  -6  106.15   24.82
  -3   9   6   53.35   27.25
  -2   9   6   20.58   22.35
   2   9  -6    9.18   18.70
   2  -9  -6    8.01   18.48
  -2  -9   6   11.88   11.74
  -1   9   6   28.94   17.46
   1  -9  -6   32.01   20.52
  -1   9   6   -6.46    9.44
   1   9  -6  -16.05   18.50
  -1  -9   6   31.08   15.19
   0  -9  -6   84.02   24.12
   0   9   6   88.71   17.30
   0  -9  -6   92.79   19.58
   0  -9   6   58.47   13.81
   0  -9   6   66.74   18.52
   0   9  -6   83.54   34.03
   0   9   6   89.09   22.24
   1  -9   6  389.35   30.76
  -1  -9  -6  402.49   38.56
   1   9   6  414.69   35.23
  -1  -9  -6  445.90   39.45
  -1   9  -6  442.23   53.39
   1  -9   6  450.87   34.25
  -2  -9  -6   38.37   24.05
   2   9   6   55.10   20.24
   2  -9   6   74.85   19.91
   2  -9   6   46.91   18.98
  -2  -9  -6   15.08   22.64
   3  -9   6  266.20   36.28
  -3  -9  -6  241.29   41.96
   3  -9   6  239.63   34.75
  -3   9  -6  151.14   49.32
   3   9   6  166.44   32.55
  -3  -9  -6  168.02   44.95
  -4  -9  -6  176.51   47.56
   4  -9   6  119.37   26.68
   4  -9   6  130.46   28.63
  -4   9  -6  156.34   45.16
   4   9   6  143.48   32.31
  -4  -9  -6  141.16   39.05
  -5   9  -6   11.07   39.08
  -5  -9  -6   26.74   30.25
   5   9   6   37.15   26.66
   5  -9   6   17.52   19.26
   5  -9   6   18.48   23.78
  -5  -9  -6   35.22   31.37
  -6  -9  -6   69.72   37.47
   6   9   6  113.88   34.90
  -6  -9  -6  100.39   39.19
   6  -9   6  152.15   36.69
  -6   9  -6   -4.15   41.59
   6  -9   6   92.29   32.16
   7  -9   6  -32.22   25.80
  -7  10   6  -31.34   32.49
   7  10  -6    2.15   43.40
  -6  10   6  118.61   39.16
  -6 -10   6   90.98   33.40
   6  10  -6  140.91   45.94
   5 -10  -6   40.39   29.85
   5  10  -6  110.49   37.25
  -5  10   6   69.86   32.66
  -5 -10   6   38.02   25.66
   4 -10  -6   40.01   28.09
   4  10  -6   53.05   25.55
   4  10  -6   46.66   27.03
  -4  10   6   55.99   28.62
  -4 -10   6   27.12   20.19
   3  10  -6   45.13   23.79
   3  10  -6   75.40   28.43
  -3 -10   6   52.13   20.62
   3 -10  -6   59.86   25.79
  -3  10   6   47.77   28.90
   2  10  -6  239.24   39.69
   2 -10  -6  218.23   35.27
  -2  10   6  277.16   38.57
   2 -10  -6  241.28   36.54
  -1  10   6  559.27   40.17
   1 -10  -6  545.49   44.43
   1  10  -6  674.30   51.43
  -1 -10   6  655.92   41.76
   0 -10  -6   55.55   23.95
   0 -10   6   73.01   19.60
   0 -10  -6   93.18   20.05
   0  10  -6   54.02   34.37
   0  10  -6   57.09   16.59
   0  10   6   75.84   16.55
   0  10   6   75.42   21.58
  -1 -10  -6  263.92   35.17
   1  10   6  225.75   30.71
  -1 -10  -6  190.31   33.33
   1 -10   6  276.70   29.23
  -1  10  -6  193.71   41.51
   1 -10   6  241.16   31.45
  -1 -10  -6  207.29   35.60
   2 -10   6   36.21   17.62
   2 -10   6   55.96   17.83
  -2 -10  -6   20.85   29.06
  -2 -10  -6   68.11   21.17
  -2 -10  -6   65.78   28.78
   2  10   6   56.97   21.52
  -2  10  -6  141.60   45.61
   3  10   6  125.16   29.46
   3 -10   6  111.93   25.99
   3 -10   6  123.07   24.90
  -3  10  -6  132.93   46.38
   4  10   6   75.01   26.96
  -4 -10  -6   66.27   38.23
   4 -10   6   72.04   24.61
   4 -10   6   27.70   22.03
  -4  10  -6   53.15   38.98
   5  10   6  -25.22   22.07
  -5  10  -6    0.38   37.86
  -5 -10  -6   30.23   36.14
  -5 -10  -6   69.96   33.46
   5 -10   6   -3.08   23.93
   5 -10   6    6.83   18.98
   6  10   6   66.83   34.29
  -6 -10  -6    1.24   35.17
   6 -10   6  101.84   35.45
  -6  10  -6   21.63   41.62
  -6 -10  -6   60.26   36.06
   6 -10   6   67.41   25.84
  -7  11   6  108.19   42.32
  -6 -11   6  -10.26   29.70
  -6  11   6    4.22   30.96
   6  11  -6   35.31   33.45
  -5 -11   6   10.46   21.34
   5 -11  -6   56.18   29.89
   5  11  -6   17.05   29.26
  -5  11   6   55.42   30.92
  -4  11   6   58.02   30.50
   4 -11  -6   44.21   25.94
  -4 -11   6   23.10   19.91
   4  11  -6   47.82   27.74
  -3  11   6  308.98   44.10
  -3 -11   6  237.76   34.85
   3  11  -6  208.46   39.13
   3 -11  -6  267.64   39.63
   3 -11  -6  216.75   38.48
   2  11  -6  192.27   37.20
   2 -11  -6  177.68   35.61
   2 -11  -6  193.00   34.37
   1  11  -6   39.66   24.33
  -1 -11   6   32.68   16.93
  -1  11   6   15.30   18.83
   1 -11  -6   11.96   24.29
   0  11  -6   34.56   15.27
   0  11   6   42.08   14.43
   0 -11  -6   18.43   21.16
   0 -11   6   14.20   13.93
   0 -11  -6   11.66   13.34
   0  11   6    4.96   15.38
   0  11  -6   -6.43   26.25
  -1 -11  -6  117.13   28.94
  -1 -11  -6  105.47   27.23
  -1 -11  -6   98.52   28.32
   1  11   6  140.21   26.20
   1 -11   6  108.53   22.60
   2 -11   6  501.10   38.40
   2 -11   6  592.66   41.10
  -2  11  -6  477.71   63.52
   2  11   6  502.84   42.10
   3 -11   6  381.67   36.10
  -3  11  -6  293.84   54.43
   3  11   6  290.23   40.93
   4 -11   6  206.50   37.11
   4 -11   6  240.58   37.25
  -4  11  -6  195.94   51.71
   4  11   6  243.93   40.95
   5 -11   6   38.63   21.47
  -5 -11  -6   12.84   30.04
  -5  11  -6  -31.54   38.09
  -5 -11  -6   59.48   40.05
   5 -11   6   24.73   25.66
   5  11   6   17.29   26.58
  -6  11  -6   -0.98   43.54
   6 -11   6   86.56   34.49
   6  11   6    7.38   29.72
  -6 -11  -6   26.11   38.75
  -6 -11  -6   44.71   36.89
   6 -11   6   16.20   26.74
  -6  12   6  104.73   38.42
   6  12  -6   75.12   39.34
   6 -12  -6   98.61   40.00
   5  12  -6   -6.64   27.22
  -5 -12   6  -25.89   17.65
   5 -12  -6   12.29   26.52
  -5 -12   6  -11.14   26.86
  -5  12   6   16.55   29.47
   4  12  -6   91.48   33.15
  -4  12   6   98.74   35.62
  -4 -12   6  108.33   25.61
   4 -12  -6   88.86   29.66
  -3  12   6  219.70   40.26
   3  12  -6  216.17   41.42
  -3 -12   6  223.52   33.71
   3 -12  -6  184.03   38.90
   3 -12  -6  229.55   38.21
  -2 -12   6  383.31   35.32
   2  12  -6  417.02   51.67
   2 -12  -6  443.16   43.73
   2 -12  -6  413.73   47.24
   1 -12  -6  174.40   35.61
  -1 -12   6  195.11   31.11
   1  12  -6  188.17   39.11
  -1  12   6  209.93   34.81
   1 -12  -6  214.54   32.54
   0 -12   6  156.88   27.07
   0 -12  -6  149.01   24.77
   0  12   6  130.67   27.24
   0  12   6  214.08   25.78
   0  12  -6  141.42   23.09
   0  12  -6  200.96   41.84
   0 -12  -6  173.28   33.80
   1 -12   6  113.65   26.51
   1  12   6  133.66   27.94
  -1  12  -6  171.49   28.32
  -1 -12  -6  138.04   32.05
  -2  12  -6   94.51   43.74
  -2 -12  -6   70.32   25.87
   2 -12   6   83.27   20.93
   2  12   6   82.25   24.99
   3 -12   6   26.39   17.79
   3  12   6   20.94   22.65
   3  12   6    6.67   20.42
  -3  12  -6  -26.92   36.44
   3 -12   6    1.49   10.70
   4 -12   6  127.38   29.65
  -4  12  -6   69.73   45.58
   4 -12   6   75.53   23.76
   4  12   6  127.99   34.10
   5 -12   6   41.47   26.15
  -5  12  -6  -58.46   35.91
   5 -12   6    2.70   19.22
   5  12   6    9.46   25.54
  -6  12  -6  -32.51   45.75
   6  12   6    2.68   31.14
   6 -12   6   -7.39   31.08
  -6 -12  -6   56.19   42.18
  -6 -12  -6   32.19   43.55
  -6 -13   6  -33.92   30.37
   6  13  -6    3.83   32.36
  -6  13   6  -10.32   34.68
   6 -13  -6   65.92   32.37
  -5 -13   6   -9.92   21.27
   5 -13  -6   10.22   27.34
   5  13  -6  -14.66   27.55
  -5  13   6    8.54   30.51
  -5 -13   6   23.73   32.75
  -4 -13   6   -3.98   17.72
  -4  13   6   55.09   33.27
   4  13  -6    9.45   24.51
   4 -13  -6   31.32   25.29
  -4 -13   6  -22.37   24.61
  -3 -13   6    6.10   15.28
   3  13  -6  -18.68   19.28
   3 -13  -6   -3.03   17.49
  -3  13   6  -15.43   20.32
   2  13  -6   40.21   27.85
  -2 -13   6   10.56   16.98
  -2  13   6   34.09   25.64
   2 -13  -6   21.48   25.27
   2 -13  -6   53.09   21.84
   1 -13  -6   44.79   18.18
   1  13  -6   35.97   25.46
  -1 -13   6   22.01   16.77
   1 -13  -6   29.74   27.46
  -1  13   6   35.65   23.21
   0  13   6   48.11   21.60
   0 -13   6   41.59   18.79
   0  13  -6   -4.91   24.06
   0 -13  -6   46.83   17.28
   0 -13  -6   63.58   27.80
   0  13  -6   46.43   18.44
   1  13   6  140.54   28.72
  -1  13  -6   31.51   35.11
   1 -13   6  167.52   29.72
  -1  13  -6  177.46   30.34
  -1 -13  -6  122.24   30.82
  -2  13  -6   24.07   40.04
  -2  13  -6   44.56   23.29
   2  13   6   -8.41   16.97
   2  13   6   63.04   25.13
  -2 -13  -6    2.42   20.37
   2 -13   6   10.78   13.19
  -3  13  -6  167.64   51.35
   3  13   6  196.31   35.45
   3 -13   6  226.01   38.77
   3  13   6  214.72   43.72
   4  13   6   28.27   26.79
   4  13   6   47.87   29.76
   4 -13   6   24.68   21.59
  -4  13  -6   -6.12   39.41
   5  13   6   21.24   29.16
  -5  13  -6   22.37   38.91
   5 -13   6  -13.99   23.11
  -6  13  -6   72.39   48.36
  -6 -13  -6   69.91   45.85
   6 -13   6   55.30   37.28
  -6 -13  -6   86.01   43.40
  -6  13  -6   96.54   31.14
   6  13   6   94.60   37.96
   6 -14  -6  134.52   41.70
   6  14  -6   73.74   38.11
  -6  14   6  186.60   46.40
  -5 -14   6   13.77   23.19
   5 -14  -6   41.36   33.40
   5  14  -6   48.12   31.52
  -5  14   6   94.90   37.36
  -5 -14   6    4.06   31.95
  -4  14   6   37.76   32.21
   4 -14  -6   16.42   27.77
  -4 -14   6   21.80   27.51
  -4 -14   6   36.45   18.94
   4  14  -6   19.02   24.31
  -3  14   6    0.20   15.90
   3  14  -6   37.10   27.58
   3 -14  -6   26.66   16.21
  -3 -14   6   69.74   23.22
   2  14  -6    3.01   22.30
   2 -14  -6   -3.24   19.71
  -2 -14   6    9.08   17.06
   2 -14  -6   11.49   23.08
  -2  14   6   38.87   25.31
   1 -14  -6   66.12   32.04
   1 -14  -6   94.27   26.19
   1  14  -6  129.78   33.07
  -1 -14   6   77.94   20.42
  -1  14   6  102.11   28.74
   0  14  -6  283.06   30.67
   0  14  -6  304.81   44.63
   0 -14  -6  263.62   41.51
   0 -14   6  211.59   32.31
   0  14   6  242.77   35.85
   1 -14   6  136.24   28.62
   1  14   6  145.12   29.49
  -1  14  -6  150.30   43.97
  -1  14  -6  184.50   31.69
  -1 -14  -6  111.95   34.16
   2 -14   6  200.21   33.34
  -2 -14  -6  166.47   35.51
   2  14   6  218.17   35.74
   2  14   6  247.88   40.21
  -2  14  -6  165.24   46.03
  -2  14  -6  262.22   37.46
   3 -14   6   51.41   21.07
   3  14   6   78.65   28.01
   3  14   6   59.89   25.11
  -3  14  -6   72.79   43.36
  -3  14  -6   91.90   27.38
   4 -14   6   24.56   21.01
   4  14   6   51.47   27.29
  -4  14  -6   66.13   42.46
  -4  14  -6   98.16   32.86
   4  14   6    3.04   26.39
   5 -14   6   27.84   23.83
  -5  14  -6   86.98   47.31
   5  14   6   36.59   30.03
  -5  14  -6  113.59   35.29
   6  14   6   15.13   32.75
  -6 -14  -6   67.96   42.13
  -6  14  -6   30.79   30.43
  -6  14  -6  -72.28   41.04
  -6 -14  -6   75.95   43.08
   6 -14   6   40.41   31.06
   6 -15  -6   72.98   39.41
  -6 -15   6   -4.67   33.96
   6  15  -6   36.26   38.74
  -6  15   6   19.63   36.14
   5 -15  -6   45.08   32.91
  -5 -15   6   15.29   32.09
  -5  15   6   75.08   36.29
   5  15  -6   54.64   33.64
   4 -15  -6  150.40   39.86
  -4 -15   6  153.65   27.38
  -4 -15   6  162.70   39.37
   4  15  -6   96.59   35.69
  -4  15   6   74.57   31.29
   3  15  -6   75.96   32.75
  -3 -15   6  129.28   26.34
  -3  15   6  140.15   35.20
  -2 -15   6   50.30   21.47
  -2  15   6   42.39   28.11
   2  15  -6   73.75   33.80
   2 -15  -6   94.01   29.06
   2 -15  -6   38.57   21.38
   1 -15  -6   52.22   29.48
  -1  15   6   59.85   26.15
   1  15  -6   74.23   29.93
   1 -15  -6   60.75   22.39
   0 -15   6  110.20   26.92
   0 -15  -6   98.18   20.98
   0  15   6   69.67   23.89
   0 -15  -6  106.42   33.74
   0  15  -6   95.25   23.23
   1 -15   6   75.70   23.00
   1  15   6   51.99   24.65
  -1  15  -6   58.68   24.01
  -1 -15  -6   39.67   26.95
   1  15   6   47.06   22.93
  -1  15  -6   46.80   35.11
   2  15   6  121.12   30.86
   2 -15   6  109.96   25.42
  -2  15  -6  122.43   28.70
  -2  15  -6  124.42   43.36
   2  15   6  109.93   30.08
  -2 -15  -6   73.18   27.68
  -3  15  -6   49.50   25.52
   3  15   6   34.90   23.20
  -3  15  -6   28.33   37.81
   3 -15   6   31.65   19.33
   3  15   6   28.46   23.59
   4  15   6  129.69   40.58
  -4  15  -6  301.25   48.51
   4  15   6  158.88   37.92
   4 -15   6  138.30   32.30
  -4  15  -6  153.68   50.83
  -5  15  -6   13.99   40.82
  -5  15  -6   84.10   32.67
   5 -15   6   36.83   27.84
   5  15   6   66.28   34.01
   6  15   6   82.30   36.94
  -6  15  -6   61.31   30.85
   6 -15   6   75.61   37.06
   6  16  -6  -23.56   35.78
  -6  16   6   71.39   38.80
   6 -16  -6   69.98   39.49
   5  16  -6  -25.95   29.67
  -5  16   6    8.60   33.52
   5 -16  -6    1.05   32.25
  -4  16   6  -12.17   17.55
   4 -16  -6    9.07   28.63
  -4 -16   6   -0.92   19.64
   4  16  -6   -2.73   23.42
  -4 -16   6   -0.41   24.54
  -3  16   6   33.71   30.09
   3 -16  -6   -8.78   20.51
  -3 -16   6   21.06   19.45
   3  16  -6   -6.97   20.62
   2 -16  -6  255.40   42.33
  -2 -16   6  317.31   40.99
   2  16  -6  293.39   50.70
  -2  16   6  249.54   44.77
  -1 -16   6   15.38   13.39
   1 -16  -6   19.67   28.50
   1  16  -6   89.01   31.48
  -1  16   6   16.85   22.67
   1 -16  -6   33.08   19.16
   0  16  -6   77.64   23.49
   0  16   6   87.33   27.01
   0  16  -6   31.34   13.93
   0 -16   6   71.87   24.64
   0 -16  -6   75.03   23.21
   0 -16  -6   70.01   31.21
   1  16   6   40.55   24.35
  -1 -16  -6   47.81   25.69
  -1  16  -6   24.11   32.38
   1  16   6   54.70   21.61
  -1  16  -6   55.92   24.11
   1 -16   6   26.15   17.98
  -2  16  -6  245.45   38.63
   2  16   6  202.40   36.81
   2  16   6  224.12   38.18
   2 -16   6  236.45   37.96
  -2 -16  -6  170.28   39.20
  -2  16  -6  163.80   44.41
   3  16   6   35.02   25.10
  -3  16  -6    9.02   25.09
  -3  16  -6   36.48   37.86
   3  16   6   35.75   28.11
   3 -16   6   25.34   18.42
   4  16   6   41.52   34.01
   4 -16   6   55.26   27.04
  -4  16  -6   13.95   41.12
   4  16   6   17.80   28.97
  -4  16  -6   66.35   31.31
   5  16   6   17.32   26.38
  -5  16  -6   32.59   33.57
   5 -16   6    1.94   27.15
  -5  16  -6  -17.88   43.12
   5  16   6   26.58   32.39
  -6  16  -6   45.99   31.37
   6 -16   6   13.17   31.87
   6  16   6   18.78   35.14
   6 -17  -6   -0.29   32.19
  -6  17   6   59.96   44.68
   6  17  -6  -23.51   37.21
   5 -17  -6   51.59   29.57
   5  17  -6    7.38   29.41
  -5  17   6   10.53   34.46
   4  17  -6  131.37   43.83
  -4 -17   6  174.90   30.94
  -4 -17   6  150.91   39.98
   4 -17  -6  128.06   36.58
  -4  17   6  237.36   45.94
  -3  17   6   31.75   31.34
   3  17  -6   55.73   27.34
   3 -17  -6   26.42   23.74
  -3 -17   6    3.55   21.19
  -2  17   6  173.09   41.34
  -2 -17   6  134.37   29.09
   2  17  -6  133.51   39.36
   2 -17  -6  147.67   35.59
   1 -17  -6  110.73   27.36
   1  17  -6  103.71   32.05
  -1  17   6   99.21   31.70
   1 -17  -6   85.90   36.15
  -1 -17   6  121.99   28.57
   0 -17   6  173.59   32.53
   0  17   6   70.78   25.85
   0 -17  -6   88.59   35.11
   1  17   6   60.51   27.47
   1 -17   6   75.80   23.22
  -1  17  -6   73.21   32.82
   1  17   6   85.27   24.58
  -1 -17  -6   73.83   29.02
  -1  17  -6   64.13   23.18
  -2  17  -6   16.81   23.33
   2  17   6  -38.24   17.40
  -2 -17  -6  -12.07   24.40
   2  17   6   38.30   24.77
   2 -17   6   -4.25   15.78
  -2  17  -6  -12.05   28.92
   3  17   6  101.85   31.76
  -3  17  -6   64.57   40.41
  -3 -17  -6   81.97   33.60
  -3  17  -6   58.02   29.56
   3 -17   6   46.91   23.33
   3  17   6   80.66   29.78
   4  17   6    9.39   25.44
   4  17   6   56.85   30.30
  -4  17  -6   11.81   26.77
  -4  17  -6  -10.31   37.78
   4 -17   6   11.57   18.66
   5 -17   6  -10.48   24.87
  -5  17  -6   97.21   35.13
  -5  17  -6   74.30   49.29
   5  17   6    5.74   29.19
   5  17   6   37.54   34.76
  -5  18   6   22.37   24.09
   5 -18  -6   66.48   37.25
   5  18  -6   20.82   34.37
   4  18  -6   -0.55   25.21
  -4  18   6   46.90   34.30
  -4 -18   6   32.36   23.45
   4 -18  -6   14.08   24.69
  -3 -18   6   -7.42   19.40
   3  18  -6   46.77   30.71
  -3  18   6   51.28   33.34
   3 -18  -6   47.43   25.12
  -2  18   6  116.30   36.66
   2  18  -6  127.75   38.59
   2 -18  -6   75.24   27.04
  -2 -18   6  148.82   29.78
   1 -18  -6   25.53   21.45
  -1  18   6   51.98   29.50
  -1 -18   6   61.86   22.93
   1  18  -6   41.42   25.16
   1 -18  -6   12.06   26.92
   0 -18   6  351.94   43.15
   0  18  -6  334.28   51.75
   0 -18  -6  241.50   44.90
   0  18   6  276.63   42.30
   1  18   6   16.18   23.47
   1 -18   6   52.36   22.26
  -1  18  -6   81.45   25.27
  -1  18  -6   58.60   29.29
  -1 -18  -6   42.12   30.91
  -2 -18  -6   75.94   33.86
   2  18   6  120.50   30.40
   2  18   6  138.87   35.45
  -2  18  -6  227.99   37.30
   2 -18   6  143.35   31.02
  -2  18  -6  155.57   40.65
   3  18   6  -16.38   22.81
  -3 -18  -6   17.85   26.90
  -3  18  -6   -6.12   23.73
   3 -18   6   16.90   19.79
  -3  18  -6   23.84   33.57
   3  18   6   12.35   24.19
  -4  18  -6   48.73   37.67
   4 -18   6    1.97   19.92
   4  18   6   20.69   27.73
  -4  18  -6  -32.79   26.70
   4  18   6   50.94   31.42
   5  18   6  104.91   39.56
   5 -18   6   46.15   30.28
  -5  18  -6   29.75   35.91
   5  18   6   28.34   36.85
   5 -19  -6  142.24   42.19
  -5  19   6  204.75   49.59
   5  19  -6   17.12   32.60
   4  19  -6   17.39   27.59
  -4  19   6   54.84   34.10
   4 -19  -6  114.63   33.42
   3 -19  -6   38.98   26.03
  -3  19   6   18.19   33.59
  -3 -19   6   62.18   25.31
   3  19  -6   45.08   32.64
  -2  19   6  147.09   41.03
   2  19  -6   99.23   35.84
  -2 -19   6  140.99   33.19
   2 -19  -6   65.24   26.59
   1 -19  -6  167.28   35.10
  -1 -19   6  122.98   30.58
   1  19  -6  218.62   42.97
  -1  19   6  123.61   34.16
   0  19   6   14.72   22.18
   0 -19  -6   21.32   30.07
   0 -19   6    6.46   20.74
   0  19  -6   30.73   26.32
   1  19   6   13.05   23.13
  -1  19  -6   29.97   22.54
  -1 -19  -6   40.35   28.73
  -1  19  -6   -8.83   22.76
   1 -19   6    5.06   18.36
   2 -19   6   54.03   23.92
   2  19   6   53.42   25.51
   2  19   6   76.17   31.60
  -2  19  -6   59.75   33.82
  -2  19  -6  106.34   31.17
  -2 -19  -6   72.11   31.23
  -3 -19  -6   19.54   33.68
  -3  19  -6  -10.88   27.18
   3 -19   6   16.18   19.93
   3  19   6  -20.16   25.09
  -3  19  -6   43.00   35.38
   3  19   6   21.85   23.64
   4  19   6    0.58   27.46
   4 -19   6   35.72   23.62
   4  19   6    6.35   30.71
  -4  19  -6  -10.80   37.10
  -4  19  -6   19.85   31.45
   5  19   6   29.90   34.43
  -5  19  -6  -13.20   32.52
   5 -19   6  -15.84   22.83
   5  19   6   -0.27   31.41
   5  20  -6   -0.16   31.02
   5 -20  -6   19.82   32.20
  -5  20   6   32.19   35.50
   4 -20  -6   80.10   33.48
   4  20  -6   23.72   30.10
  -4  20   6   28.95   35.08
  -3  20   6  129.07   40.74
  -3 -20   6  178.74   33.97
   3  20  -6  164.03   48.12
   3 -20  -6  174.05   41.41
  -2  20   6   66.85   36.29
   2 -20  -6   58.28   25.86
   2  20  -6  101.92   37.27
  -2 -20   6   76.16   26.32
   1 -20  -6   15.77   19.92
  -1  20   6   48.07   26.99
  -1 -20   6   48.96   25.19
   1  20  -6   84.18   24.85
   0 -20   6   33.97   19.79
   0  20   6    6.44   20.46
   0  20  -6   44.76   27.68
   1  20   6   35.78   25.04
  -1  20  -6   39.55   28.21
  -1 -20  -6   28.54   30.13
  -1  20  -6  -26.24   21.39
   1 -20   6   20.80   20.23
  -2 -20  -6   -0.60   23.66
   2 -20   6   42.04   20.03
  -2  20  -6   54.49   30.16
   2  20   6   -2.26   21.60
   2  20   6   14.71   27.15
  -2  20  -6   84.28   27.94
  -3  20  -6  -15.49   28.63
   3  20   6   29.88   29.75
  -3 -20  -6   -4.85   30.18
  -3  20  -6   87.33   35.13
   3  20   6   14.38   23.44
   3 -20   6   11.80   20.35
  -4  20  -6  -37.38   27.15
   4 -20   6    6.14   22.23
   4  20   6   64.59   35.75
   4  20   6   19.12   30.40
  -4  20  -6   83.12   41.11
   5  20   6  -20.64   32.90
   5 -20   6  -18.96   26.38
  -5  20  -6    1.20   34.52
   5  20   6   34.09   35.33
   5 -21  -6   69.90   35.80
   4  21  -6   20.08   32.87
  -4  21   6  102.48   41.90
   4 -21  -6   -5.86   23.91
  -3  21   6   18.91   34.37
  -3 -21   6   36.60   26.61
   3 -21  -6  -38.69   23.45
   3  21  -6    3.80   26.65
  -2  21   6   32.51   29.72
   2 -21  -6    9.46   22.70
   2  21  -6   82.64   40.44
  -2 -21   6   87.29   29.93
  -1 -21   6  156.54   35.08
  -1  21   6  120.45   39.90
   0 -21   6   -0.77   17.54
   0  21  -6   26.90   26.78
   0  21   6   10.24   24.86
   0 -21  -6   -7.98   26.61
   1 -21   6   27.59   20.91
  -1 -21  -6   66.99   32.22
  -1  21  -6   81.45   32.23
   1  21   6   79.93   32.70
  -2  21  -6   90.18   30.13
  -2 -21  -6   16.21   30.24
   2 -21   6   40.53   22.95
  -2  21  -6  107.27   30.07
   2  21   6    9.67   28.66
   3  21   6  -22.81   25.81
   3 -21   6   23.27   21.12
   3  21   6   33.82   30.10
  -3  21  -6    9.20   29.17
  -3  21  -6    2.73   29.04
   4 -21   6   17.86   21.64
   4  21   6   86.30   38.63
   4  21   6   84.74   35.04
  -4  21  -6  101.20   39.75
  -4 -21  -6  100.50   39.61
   4  22  -6  -18.47   31.75
  -4  22   6  -17.72   35.39
   4 -22  -6  -21.61   24.54
   3 -22  -6   77.76   30.32
   3  22  -6   96.75   42.41
  -3  22   6  101.44   40.94
   2 -22  -6   61.64   27.87
  -2 -22   6   58.65   29.82
  -2  22   6  117.58   38.29
   2  22  -6   64.61   37.46
  -1 -22   6  -17.37   21.25
   1  22  -6   -9.36   22.48
  -1  22   6   49.85   29.96
   0 -22  -6  181.71   46.24
   0  22   6  177.67   40.85
   0  22  -6  223.37   46.49
   1  22   6  170.30   41.81
  -1 -22  -6  128.90   45.53
   1 -22   6  159.67   36.78
  -1  22  -6  104.80   33.83
  -2 -22  -6   -2.84   30.62
  -2  22  -6    6.23   24.42
   2 -22   6  -15.50   21.51
   2  22   6   27.67   29.52
  -2  22  -6   34.24   30.85
  -3  22  -6   12.85   31.09
   3  22   6  -29.37   24.77
  -3  22  -6  118.91   38.41
  -3 -22  -6   14.07   30.86
   3  22   6   -6.77   31.52
   3 -22   6   51.55   23.10
  -4  22  -6   -2.91   34.64
   4  22   6    6.23   31.59
   4 -22   6    8.70   21.37
   4  22   6   16.87   35.10
   4 -23  -6    4.87   28.19
  -4  23   6   60.25   43.44
   4  23  -6   -2.27   28.19
   3 -23  -6   34.42   29.30
  -3  23   6   18.30   32.72
   3  23  -6    4.70   30.83
   2  23  -6  -11.07   29.46
   2 -23  -6  -22.26   24.22
  -2  23   6   34.77   29.94
  -2 -23   6   32.22   27.12
  -1 -23   6  138.66   33.09
   1  23  -6  117.90   40.76
  -1  23   6  142.90   37.12
   0  23   6   19.36   26.72
   0  23  -6    7.09   26.66
   0 -23   6  -12.15   19.28
   1  23   6  164.33   43.01
  -1  23  -6  222.96   43.15
  -1 -23  -6  186.92   51.29
   1 -23   6  157.60   36.14
  -2 -23  -6  -19.04   29.90
   2 -23   6   33.98   26.19
   2  23   6   59.24   35.66
  -2  23  -6  113.91   35.11
  -2  23  -6   49.56   28.21
   3 -23   6   58.91   25.93
   3  23   6   23.45   33.25
  -3  23  -6   39.56   32.20
  -3  23  -6   42.86   34.68
  -4  23  -6   -7.29   39.09
   4  23   6    4.38   32.55
   4 -23   6   36.52   24.41
   4  23   6   73.50   40.84
  -3  24   6  176.81   46.80
   3 -24  -6  148.17   41.64
   3  24  -6  111.58   45.13
  -2  24   6   53.81   33.54
  -2 -24   6   39.25   28.44
   2  24  -6   97.55   37.83
  -1 -24   6   -4.15   23.35
  -1  24   6   34.44   30.82
   1  24  -6   44.95   32.40
   0  24   6   36.53   30.16
   0 -24   6   35.78   26.54
   0  24  -6   26.53   30.97
  -1  24  -6   30.77   28.67
   1 -24   6   11.82   21.74
  -1 -24  -6   -7.63   40.04
   1  24   6   27.53   31.07
   2 -24   6  -26.00   19.95
   2  24   6   16.09   33.00
  -2  24  -6    6.59   27.21
  -3  24  -6  -21.54   32.18
   3 -24   6   31.92   21.27
  -3 -24  -6  -41.29   31.92
   3  24   6   46.90   36.88
   3  25  -6    9.58   36.24
  -3  25   6  -12.18   34.06
   3 -25  -6   45.66   32.22
  -2 -25   6  -35.73   26.36
  -2  25   6   29.40   31.65
   2  25  -6   -9.12   28.12
  -1 -25   6   -6.61   25.82
   1  25  -6   77.95   37.40
  -1  25   6   -7.64   30.17
   0  25  -6  111.81   40.61
   0 -25   6   92.28   31.50
   0  25   6   97.41   37.85
   1  25   6   51.98   36.62
  -1  25  -6   84.02   34.37
   1 -25   6  107.54   34.28
  -2 -25  -6  -48.53   31.94
   2  25   6    0.68   34.44
  -2  25  -6   20.28   30.74
   2 -25   6   40.27   26.26
   3  25   6   89.77   41.04
  -3 -25  -6  -28.65   36.78
  -3  25  -6   13.05   34.80
   3 -25   6   23.13   25.36
   2  26  -6   26.51   32.35
  -2  26   6   42.24   36.35
  -1  26   6    1.66   31.23
  -1 -26   6   65.40   29.13
   1  26  -6   75.77   39.43
   0 -26   6   61.72   29.18
   0  26   6   92.01   39.84
   0  26  -6  107.37   39.50
  -1  26  -6   53.61   35.12
   1  26   6   -7.88   32.25
   1 -26   6   73.51   31.05
  -1 -26  -6   -4.68   39.48
   2  26   6    7.05   39.32
  -2  26  -6   91.03   34.87
   2 -26   6   12.94   21.99
   1  27  -6  178.09   50.72
  -1  27   6   45.52   33.96
  -1 -27   6  134.92   38.11
   0  27   6   39.82   36.24
   0 -27   6   14.58   24.65
   0  27  -6   -6.62   31.55
  -1  27  -6   42.59   33.43
   1 -27   6   48.99   25.38
   1  27   6   12.31   35.92
  -7   0   7   79.39   38.43
  -6   0   7  -12.69   22.96
  -5   0   7    6.85   23.44
   5   0  -7  -11.11   18.48
   4   0  -7  161.94   32.02
  -4   0   7  192.90   37.31
   4   0  -7  173.77   30.38
  -3   0   7  276.17   37.21
   3   0  -7  331.30   29.80
   3   0  -7  312.54   36.77
  -2   0   7  478.41   38.84
   2   0  -7  508.79   37.23
   2   0  -7  522.66   35.34
  -2   0   7  477.20   28.31
  -1   0   7  309.43   29.88
  -1   0   7  317.94   23.79
   1   0  -7  330.17   42.79
   0   0   7   17.76   12.14
   0   0   7   13.50   11.99
   0   0  -7   26.75   27.40
  -1   0  -7    5.15   24.69
   1   0   7   12.71   14.07
   1   0   7   11.77   11.12
   2   0   7   19.93   12.73
   2   0   7   21.65   12.55
  -2   0  -7   49.40   30.69
   3   0   7   35.69   14.69
  -3   0  -7  -13.34   27.19
   3   0   7    6.27   19.23
  -4   0  -7  159.57   46.85
   4   0   7  225.85   27.82
   4   0   7  260.65   39.02
   5   0   7  -10.15   23.88
  -5   0  -7    5.74   32.19
   6   0   7   81.14   35.01
  -6   0  -7   64.72   44.75
  -7   0  -7    2.83   44.41
   7   0   7  -16.20   28.77
  -7   1   7   46.61   38.71
  -7  -1   7  111.62   41.78
  -6  -1   7   -3.87   26.79
  -6   1   7   86.73   31.50
  -5  -1   7  123.97   35.26
   5   1  -7   99.28   28.87
  -5   1   7  174.42   38.15
   5  -1  -7   79.97   29.31
   5   1  -7  143.61   32.41
   4  -1  -7  434.13   35.34
   4   1  -7  433.18   36.74
   4   1  -7  371.47   36.07
  -4   1   7  505.81   49.03
  -4  -1   7  332.20   45.68
   4  -1  -7  405.74   44.74
   3   1  -7   29.46   19.10
  -3   1   7   10.63   14.82
   3  -1  -7   35.34   17.18
   3  -1  -7    9.99   15.53
  -3  -1   7   59.97   24.39
   3   1  -7    5.00   17.06
  -3   1   7   13.52   18.73
  -2  -1   7   12.30   13.49
   2  -1  -7  -22.37   14.94
  -2   1   7   23.79   13.30
   2   1  -7   -6.21   18.23
  -2   1   7   45.13   17.29
   2   1  -7    9.09   13.84
   2  -1  -7   35.38   16.48
  -1  -1   7   20.36   11.49
  -1  -1   7   12.56   14.42
  -1   1   7    8.81   12.22
  -1   1   7   11.00   12.32
   1   1  -7   16.76   26.20
   1  -1  -7   14.98   27.57
   0  -1   7  132.58   22.19
   0   1  -7   56.22   31.03
   0  -1   7  156.34   22.36
   0   1   7   91.71   17.82
   0   1   7  139.56   21.37
   0  -1  -7  147.30   32.24
  -1  -1  -7  375.25   45.26
  -1   1  -7  273.15   40.60
   1  -1   7  310.40   25.30
   1   1   7  321.14   30.41
   1   1   7  332.55   24.38
   1  -1   7  342.02   30.03
   2   1   7  341.32   26.71
  -2  -1  -7  317.95   46.13
   2   1   7  310.26   35.80
   2  -1   7  311.31   26.38
  -2   1  -7  297.44   47.25
   3   1   7   23.60   14.68
  -3  -1  -7   31.00   27.75
   3   1   7   27.72   17.44
   3  -1   7   16.59   17.44
  -3   1  -7   -2.88   29.42
   3  -1   7  -27.50   12.52
   4  -1   7  102.29   21.15
  -4  -1  -7  100.46   39.25
   4   1   7  105.81   27.46
  -4   1  -7   57.68   36.38
   4  -1   7   95.74   28.28
   5   1   7   56.63   26.87
  -5  -1  -7   42.77   36.96
  -5   1  -7   -9.45   18.78
   5  -1   7    6.44   24.07
   6  -1   7   40.98   29.07
  -6  -1  -7  -47.84   22.53
   6   1   7   -4.03   27.80
  -6   1  -7    6.71   39.78
  -7  -1  -7  -16.08   43.03
  -7   1  -7   64.83   50.42
   7   1   7  -22.31   28.24
   7  -1   7   40.43   32.06
  -7  -2   7   48.61   35.90
  -7   2   7   32.20   31.80
  -6  -2   7  223.21   48.14
   6   2  -7  224.30   43.73
  -6   2   7  258.62   50.06
  -5   2   7  247.87   45.94
   5  -2  -7  226.32   36.03
   5   2  -7  221.74   39.51
   5   2  -7  404.23   47.71
   4  -2  -7   45.71   21.05
   4   2  -7   19.45   18.74
  -4  -2   7   26.97   22.50
  -4   2   7   41.38   21.66
   4   2  -7   59.06   21.40
  -4   2   7   41.67   19.72
   3  -2  -7   33.25   17.65
   3   2  -7   40.13   18.17
   3  -2  -7   66.39   23.59
  -3   2   7   57.67   22.28
   3   2  -7   63.21   22.38
  -3  -2   7   53.75   23.05
  -3   2   7   53.38   19.48
   2  -2  -7  248.03   28.40
  -2  -2   7  252.29   32.74
  -2   2   7  224.78   24.52
   2  -2  -7  267.37   32.26
  -2   2   7  215.43   32.48
   2   2  -7  246.06   32.74
  -1  -2   7   88.43   21.61
   1   2  -7  102.82   33.03
  -1   2   7  117.50   19.33
   1  -2  -7  120.78   30.88
  -1   2   7  105.86   22.32
   0  -2  -7  199.77   35.50
   0  -2   7  183.33   21.72
   0   2  -7  162.21   38.18
   0  -2   7  157.46   24.52
   0   2   7  159.85   23.12
   0   2   7  223.82   25.84
  -1  -2  -7   84.54   28.97
  -1   2  -7   62.21   31.30
   1   2   7   99.71   23.19
   1  -2   7  117.20   22.16
   1  -2   7   78.03   17.72
   1   2   7   95.44   16.47
   2  -2   7  110.99   20.69
   2   2   7   66.20   21.27
  -2   2  -7  103.76   37.57
  -2  -2  -7   64.95   29.07
   2   2   7   93.83   17.26
   3  -2   7   80.70   20.47
   3  -2   7   83.18   22.99
  -3   2  -7   75.28   37.16
   3   2   7   54.61   14.96
   3   2   7   66.52   21.09
  -3  -2  -7  128.69   35.51
   4  -2   7   86.20   25.48
   4   2   7  108.07   27.36
  -4  -2  -7  111.94   41.05
  -4   2  -7   80.09   39.02
   4  -2   7  113.36   23.81
   5   2   7    4.41   22.21
   5  -2   7   11.10   22.00
  -5  -2  -7  -52.05   27.26
  -5   2  -7  -55.16   22.55
  -6   2  -7   39.95   44.58
  -6  -2  -7   21.10   37.02
   6   2   7   27.97   28.05
   6  -2   7   44.39   29.24
  -7  -2  -7   63.57   44.89
   7  -2   7    8.91   30.36
  -7   2  -7  -26.36   41.56
   7   2   7   25.47   36.87
  -7   3   7   35.29   33.25
  -7  -3   7   77.35   41.42
  -6  -3   7   41.49   29.76
  -6   3   7   75.45   35.27
   6   3  -7   57.44   28.17
  -5   3   7  204.66   40.64
   5   3  -7  211.20   41.75
   5   3  -7  251.28   39.86
   4  -3  -7  140.05   30.23
  -4   3   7  177.99   36.04
   4   3  -7  143.15   29.95
  -4   3   7  147.13   27.34
  -4  -3   7  125.18   32.31
   4   3  -7  195.41   33.02
   3   3  -7  196.53   29.57
   3  -3  -7  192.73   32.27
   3   3  -7  260.21   33.96
  -3  -3   7  192.96   34.58
  -3   3   7  155.80   31.16
  -3   3   7  188.41   27.32
   2   3  -7  103.28   26.87
  -2   3   7  122.09   20.96
  -2   3   7   95.12   25.32
   2  -3  -7   77.50   24.27
  -2  -3   7  124.49   27.60
   1   3  -7  156.47   35.85
  -1   3   7  168.64   22.85
  -1  -3   7  150.75   25.98
  -1   3   7  123.06   23.36
   1  -3  -7   81.55   29.80
   0   3  -7  270.23   43.44
   0   3   7  251.53   24.39
   0  -3   7  274.51   23.08
   0  -3   7  238.28   23.67
   0   3   7  247.92   24.78
   0  -3  -7  271.83   36.34
   1  -3   7  215.19   26.04
   1  -3   7  185.47   26.46
  -1  -3  -7  165.30   33.58
   1   3   7  205.31   18.92
  -1   3  -7  173.60   40.29
   2   3   7  558.48   41.27
  -2  -3  -7  549.67   51.72
   2  -3   7  564.62   37.78
   2   3   7  602.07   31.67
  -2   3  -7  517.06   54.13
   3   3   7  129.82   27.54
  -3  -3  -7  150.40   38.89
   3  -3   7  183.50   27.81
   3  -3   7  174.98   32.86
  -3   3  -7  111.11   43.77
  -4  -3  -7   61.89   31.42
  -4   3  -7   55.88   30.16
   4  -3   7   59.01   21.25
   4  -3   7   80.44   27.28
   4   3   7   63.15   24.85
   5   3   7   18.56   25.15
   5  -3   7   -2.81   20.69
  -5  -3  -7   -9.78   32.12
  -5   3  -7   -1.97   37.45
  -6   3  -7  -14.54   39.54
  -6  -3  -7    7.15   35.72
   6  -3   7   45.86   30.82
   6   3   7   41.59   30.47
  -7   3  -7  -34.25   43.40
   7  -3   7    6.51   29.19
  -7  -3  -7  -45.44   30.06
   7   3   7   34.41   35.67
  -7   4   7   41.04   31.51
  -7  -4   7    9.04   34.51
  -6  -4   7   92.54   37.86
  -6   4   7  107.80   35.77
   5   4  -7  170.63   35.27
  -5  -4   7  140.83   37.79
   5  -4  -7  130.36   33.58
   5   4  -7  131.23   33.20
  -5   4   7  200.40   43.13
  -4   4   7  119.35   33.72
  -4  -4   7   84.86   26.99
   4  -4  -7   84.40   26.77
   4   4  -7   62.42   23.73
   4   4  -7  113.35   29.91
  -4   4   7  101.58   25.58
  -3  -4   7  455.82   41.67
  -3   4   7  545.90   39.96
  -3   4   7  459.22   43.28
   3   4  -7  505.20   38.87
   3   4  -7  560.74   41.82
   3  -4  -7  452.05   40.13
  -2   4   7  208.77   27.35
  -2   4   7  238.74   33.20
   2  -4  -7  270.84   33.28
  -2  -4   7  210.43   33.25
   2   4  -7  254.07   35.53
   1  -4  -7  221.10   31.49
   1   4  -7  181.17   37.96
  -1  -4   7  238.73   30.22
   1  -4  -7  217.90   34.42
  -1   4   7  227.24   28.87
  -1   4   7  230.25   28.01
   0   4   7  184.41   25.15
   0  -4  -7  133.65   28.77
   0  -4   7  161.84   20.89
   0   4   7  173.50   22.90
   0  -4  -7  192.71   28.49
   0   4  -7  144.79   38.25
   0  -4   7  169.52   24.19
   1   4   7   48.87   12.82
   1  -4   7   69.85   17.85
   1  -4   7   64.99   16.22
  -1   4  -7   45.75   33.09
  -1  -4  -7   46.28   23.96
  -2  -4  -7  176.82   37.97
   2  -4   7  201.73   28.88
   2   4   7  167.21   29.93
   2  -4   7  139.15   27.61
  -2   4  -7  157.94   41.28
   3  -4   7  298.30   35.29
  -3  -4  -7  261.06   48.17
   3  -4   7  327.51   34.87
  -3   4  -7  272.18   50.25
   3   4   7  289.72   38.45
   4   4   7   18.30   20.02
   4  -4   7   29.04   19.10
   4  -4   7   40.95   19.46
  -4  -4  -7   27.06   29.96
  -4   4  -7  -35.09   15.38
   5   4   7   68.61   26.65
   5  -4   7   63.05   24.57
   5  -4   7   84.91   24.31
  -5   4  -7   13.13   39.60
  -5  -4  -7   67.95   35.28
  -6  -4  -7   43.44   39.46
  -6   4  -7   80.92   49.25
   6   4   7   63.52   31.73
   6  -4   7   79.11   31.41
  -7  -4  -7   -9.07   35.56
  -7   4  -7  -21.69   42.30
   7   4   7   55.27   35.35
   7  -4   7   -4.34   29.82
  -7   5   7  110.43   40.85
  -7  -5   7   72.60   36.71
  -6  -5   7   38.81   31.26
  -6   5   7   16.17   31.17
   6   5  -7  -19.19   28.71
   6   5  -7   11.24   24.21
  -5   5   7   23.54   24.00
   5  -5  -7   69.10   25.57
   5   5  -7    5.42   27.32
   5   5  -7   25.55   20.36
  -5  -5   7   44.57   28.65
  -4  -5   7   21.29   16.92
  -4   5   7  109.81   31.68
   4   5  -7  103.72   31.67
   4   5  -7   73.40   24.32
   4  -5  -7   81.26   26.78
  -4   5   7  114.54   26.86
  -3   5   7   39.92   22.31
   3   5  -7    5.82   21.88
   3  -5  -7   76.45   25.87
  -3   5   7   27.84   19.91
  -3  -5   7   37.94   20.87
   3   5  -7   62.41   20.80
  -2  -5   7  122.76   27.01
   2   5  -7  111.50   29.76
   2   5  -7  136.87   24.60
  -2   5   7  107.98   26.01
   2  -5  -7  115.11   27.08
  -2   5   7  123.28   23.94
   1   5  -7  290.36   43.20
  -1  -5   7  283.79   33.51
  -1   5   7  270.31   27.29
   1  -5  -7  283.00   35.03
  -1   5   7  288.90   28.41
   0  -5   7   38.61   12.89
   0   5   7   37.57   17.77
   0  -5  -7   96.86   24.17
   0  -5   7   49.15   15.30
   0   5   7   56.94   15.77
   0   5  -7   49.17   32.38
   1   5   7   60.07   14.20
   1  -5   7   71.16   18.41
   1  -5   7   71.39   18.30
   1   5   7   51.74   17.06
  -1   5  -7   41.41   33.13
  -1  -5  -7   82.74   24.37
   2  -5   7  493.69   39.72
  -2   5  -7  423.26   56.62
   2  -5   7  493.71   36.27
   2   5   7  508.72   41.10
  -2  -5  -7  531.06   49.94
   3  -5   7  103.91   23.09
  -3  -5  -7   58.90   30.52
  -3   5  -7  149.33   45.53
   3  -5   7  107.26   23.85
   3   5   7  158.16   32.48
  -4  -5  -7   49.09   29.38
   4  -5   7    4.76   18.29
  -4   5  -7  -56.95   31.07
   4  -5   7   31.81   20.12
   4   5   7   46.68   23.87
  -5  -5  -7  109.56   39.81
   5  -5   7   96.14   29.01
  -5   5  -7  101.41   47.65
   5  -5   7  135.75   31.68
   5   5   7  126.06   35.32
  -6  -5  -7    5.22   35.10
   6   5   7   10.29   32.68
   6  -5   7   24.42   28.52
  -6   5  -7    5.08   40.78
  -7   5  -7  -54.04   42.44
   7   5   7  -15.88   30.29
  -7  -5  -7  -39.70   36.16
   7  -5   7   15.62   26.91
  -7   6   7   60.78   37.92
  -7  -6   7   18.16   31.82
  -6  -6   7   51.97   31.18
   6   6  -7   79.78   33.96
  -6   6   7   -2.17   30.59
  -5   6   7  139.47   38.16
  -5  -6   7  122.99   31.63
  -5   6   7  151.60   32.53
   5   6  -7  123.44   36.02
   5   6  -7  182.17   39.74
  -4   6   7   83.17   27.28
   4  -6  -7   81.56   28.53
   4   6  -7   57.98   24.10
  -4   6   7   89.84   28.72
   4   6  -7   36.09   26.20
   3   6  -7   73.64   26.93
  -3   6   7   85.04   25.93
   3   6  -7   82.88   26.46
  -3  -6   7  111.16   30.92
  -3   6   7   90.91   27.48
   3  -6  -7   54.33   22.30
  -2  -6   7    8.54   16.43
   2   6  -7    8.51   20.04
   2  -6  -7   24.15   20.61
  -2   6   7   23.40   18.30
  -2   6   7   12.79   15.64
  -1   6   7  347.63   30.70
   1   6  -7  276.86   43.28
  -1   6   7  332.31   30.81
  -1  -6   7  324.71   36.09
   1  -6  -7  327.64   37.62
   0  -6   7  141.93   23.86
   0   6   7  156.65   25.46
   0   6   7  176.68   22.84
   0   6  -7  148.09   40.28
   0  -6  -7  123.33   25.70
   0  -6   7  127.80   18.53
   1   6   7  500.30   37.81
  -1  -6  -7  538.66   46.20
   1  -6   7  486.58   35.28
  -1   6  -7  475.00   56.45
   1   6   7  516.65   28.34
   1  -6   7  559.86   36.02
   2  -6   7   48.04   19.82
  -2  -6  -7   52.65   27.03
  -2   6  -7   37.02   38.23
   2  -6   7   68.57   21.03
   2   6   7   71.83   24.60
   3  -6   7  298.43   34.32
   3  -6   7  349.63   42.39
   3   6   7  306.58   40.34
  -3   6  -7  287.84   44.86
  -3  -6  -7  259.69   46.84
  -4   6  -7   57.58   41.40
   4  -6   7   86.30   23.91
   4  -6   7   88.19   26.64
  -4  -6  -7   75.13   32.69
  -4  -6  -7  104.41   37.73
   4   6   7   71.31   27.84
  -5   6  -7   -6.73   37.91
  -5  -6  -7    9.36   33.40
   5  -6   7   15.15   22.48
  -5  -6  -7    8.58   31.17
   5   6   7    6.74   27.31
   5  -6   7   21.74   23.48
   6   6   7   36.99   31.59
  -6  -6  -7   -8.87   38.13
   6  -6   7   17.70   25.34
  -6   6  -7  -10.92   41.74
  -7   7   7   -9.45   34.67
  -7  -7   7   36.38   36.93
  -6   7   7  -48.64   30.15
   6   7  -7   -7.95   31.70
  -6  -7   7   25.15   29.08
   6   7  -7   -2.16   26.93
  -5   7   7  129.12   34.20
   5  -7  -7  102.45   32.11
   5   7  -7  140.80   33.79
  -5  -7   7   76.70   31.54
  -5   7   7  133.56   33.73
   5   7  -7  107.81   34.08
  -4   7   7   48.06   25.70
   4   7  -7   48.03   23.03
   4   7  -7   57.33   27.26
  -4   7   7   33.64   25.60
  -4  -7   7   22.42   21.21
   4  -7  -7   -0.55   23.41
  -3   7   7  155.13   33.35
   3   7  -7  101.16   25.65
  -3  -7   7  120.93   28.91
  -3   7   7  150.62   31.55
   3  -7  -7  133.78   30.19
   3   7  -7  142.02   34.71
   2   7  -7  803.13   55.61
  -2   7   7  870.82   51.86
  -2   7   7  770.87   51.40
   2  -7  -7  725.15   49.89
  -2  -7   7  795.94   51.14
  -1   7   7  682.51   42.77
  -1  -7   7  752.38   45.70
   1  -7  -7  692.14   46.64
   1   7  -7  661.87   53.47
  -1   7   7  735.26   44.65
   0  -7  -7  268.14   33.53
   0   7   7  369.01   28.81
   0  -7   7  316.30   24.04
   0   7  -7  326.35   49.55
   0  -7  -7  307.10   34.17
   0  -7   7  321.17   29.56
  -1   7  -7   99.50   41.88
   1  -7   7   86.31   19.98
   1  -7   7  104.57   20.49
  -1  -7  -7   84.72   26.77
   1   7   7   81.29   20.96
   1   7   7   61.42   13.17
  -2  -7  -7  317.68   46.10
  -2   7  -7  371.27   56.03
   2   7   7  303.57   37.70
   2  -7   7  369.97   33.36
   2  -7   7  317.96   30.75
   3   7   7   97.68   28.59
  -3  -7  -7   83.52   36.34
   3  -7   7   85.22   20.92
  -3  -7  -7   95.36   31.49
   3  -7   7  118.59   23.81
  -4  -7  -7   -8.86   25.69
  -4  -7  -7  -16.02   23.14
   4  -7   7  -20.12   18.04
   4   7   7   -4.53   23.52
   4  -7   7   34.76   19.37
  -4   7  -7   26.48   38.58
   5   7   7  101.35   30.69
   5  -7   7  130.75   32.98
  -5   7  -7   65.30   46.08
   5  -7   7   75.69   29.05
  -5  -7  -7  141.04   47.75
  -5  -7  -7  124.18   45.28
  -6  -7  -7   -9.73   32.44
  -6   7  -7   32.25   42.68
   6   7   7   25.16   30.86
   6  -7   7   37.99   24.08
  -6  -7  -7  -37.14   35.59
  -7   8   7  -83.70   28.73
  -6   8   7   18.48   30.63
   6   8  -7  109.90   38.74
  -6  -8   7   44.44   32.60
  -5   8   7   18.03   29.27
  -5   8   7  110.25   33.36
  -5  -8   7   47.83   28.95
   5   8  -7  104.46   33.92
   5   8  -7   88.86   31.83
   4  -8  -7  145.97   39.97
  -4   8   7  206.56   40.59
  -4  -8   7  172.58   35.65
  -4   8   7  191.23   35.80
   4   8  -7  184.67   37.24
   4   8  -7  213.75   40.68
  -3   8   7  410.84   48.24
   3   8  -7  278.44   43.96
   3   8  -7  358.28   42.09
  -3   8   7  332.87   42.56
   3  -8  -7  403.49   43.95
   2   8  -7   51.69   26.22
  -2   8   7   98.79   26.71
   2  -8  -7   76.43   26.79
  -2  -8   7   56.45   20.46
  -2   8   7   97.14   24.77
   1  -8  -7   15.22   21.32
  -1   8   7   37.18   18.13
  -1   8   7   36.66   16.46
  -1  -8   7   51.59   18.41
   1   8  -7   34.51   25.98
   0  -8  -7  283.50   36.68
   0  -8  -7  269.09   32.75
   0   8  -7  278.12   48.61
   0  -8   7  280.62   23.27
   0   8   7  296.55   25.70
   0  -8   7  283.83   33.84
   1  -8   7  229.02   26.71
  -1   8  -7  144.54   44.11
   1   8   7  163.09   28.97
  -1  -8  -7  171.89   32.88
   1  -8   7  149.30   26.75
   2  -8   7  102.18   23.77
   2  -8   7   93.43   23.02
  -2  -8  -7  131.05   36.69
  -2   8  -7  130.24   41.63
   2   8   7  121.15   25.83
  -2  -8  -7  164.03   34.85
  -3  -8  -7  373.38   53.14
  -3  -8  -7  291.97   53.02
   3  -8   7  337.44   38.80
   3   8   7  279.55   40.96
  -4   8  -7   65.86   44.43
  -4  -8  -7   66.29   34.46
   4  -8   7   91.06   25.55
  -4  -8  -7   60.87   33.05
   4  -8   7   93.07   26.49
   4   8   7   73.14   26.33
  -5   8  -7   37.34   38.53
  -5  -8  -7   44.09   33.51
   5  -8   7    3.59   24.41
   5  -8   7   46.77   23.29
  -5  -8  -7  -10.73   31.29
   5   8   7   51.64   26.85
  -6   8  -7   39.19   47.05
   6  -8   7   64.05   27.08
   6   8   7   72.56   34.22
  -6  -8  -7  -20.39   35.52
  -6  -8  -7   53.30   43.20
   6  -8   7   36.59   29.49
   6   9  -7   -1.20   31.32
  -6  -9   7   86.76   33.79
  -6   9   7    3.91   31.33
  -5   9   7   61.95   36.87
   5   9  -7   88.95   34.20
   5   9  -7   82.42   32.05
  -5  -9   7  111.50   32.13
  -5   9   7  116.89   35.70
  -4   9   7  241.59   38.75
   4  -9  -7  136.72   36.76
   4   9  -7  194.76   40.29
  -4  -9   7  136.15   33.81
   4   9  -7  238.62   41.18
  -4   9   7  203.99   42.03
  -3   9   7   19.01   23.92
  -3   9   7    8.07   16.42
  -3  -9   7   -4.41   12.08
   3   9  -7   28.06   18.53
   3  -9  -7   22.96   18.91
   3   9  -7    6.80   22.86
  -2   9   7  832.22   54.38
  -2  -9   7  907.91   55.34
   2  -9  -7  778.21   53.20
  -2   9   7  857.33   54.56
   2   9  -7  811.26   59.49
   1  -9  -7  426.62   39.90
  -1   9   7  493.86   37.40
  -1  -9   7  450.74   36.85
   1   9  -7  359.70   47.18
  -1   9   7  394.29   35.48
   0  -9  -7   27.76   22.23
   0   9   7   23.84   12.34
   0   9   7    3.50   14.39
   0  -9   7   13.07   15.74
   0  -9  -7  -12.65   14.67
   0  -9   7   20.95   11.79
   0   9  -7   29.17   33.92
   1  -9   7   71.13   17.94
  -1  -9  -7   48.73   22.41
  -1   9  -7   44.65   38.72
   1   9   7   31.81   18.96
   1  -9   7   33.15   18.49
   2  -9   7  153.40   28.02
  -2  -9  -7  150.29   35.46
  -2  -9  -7  129.00   33.72
   2  -9   7  139.83   27.77
  -2   9  -7  187.58   45.50
   2   9   7   88.87   26.42
   3   9   7   82.43   28.29
   3  -9   7   92.26   24.07
  -3   9  -7   72.72   43.69
  -3  -9  -7  109.47   37.91
  -3  -9  -7  131.95   33.95
   4  -9   7   36.04   19.72
  -4   9  -7   91.03   50.27
  -4  -9  -7   71.98   34.46
  -4  -9  -7   48.56   32.45
   4  -9   7   56.59   25.62
   4   9   7   86.64   29.95
   5   9   7   54.26   30.01
   5  -9   7  101.79   29.41
   5  -9   7  119.12   32.55
  -5   9  -7   36.46   44.29
  -5  -9  -7  153.40   50.90
  -5  -9  -7   97.54   38.20
   6  -9   7   34.09   25.10
  -6  -9  -7   34.02   38.52
  -6  -9  -7   24.94   33.03
   6   9   7  135.41   39.27
   6  -9   7   96.47   34.13
  -6   9  -7   29.91   47.37
  -6  10   7   89.91   41.91
  -6 -10   7   25.79   30.84
   6  10  -7  103.86   40.86
  -5  10   7  144.30   36.25
  -5  10   7  154.00   40.25
   5  10  -7  191.46   40.88
  -5 -10   7  113.10   34.31
   5  10  -7  105.94   38.70
   4  10  -7   18.57   20.97
   4  10  -7    9.43   27.26
  -4  10   7    9.89   25.20
  -4 -10   7   19.56   20.68
   3 -10  -7   76.77   26.64
  -3 -10   7   18.48   15.72
  -3  10   7    7.41   24.64
   3  10  -7   43.88   25.34
   3  10  -7   10.57   14.14
  -2  10   7   68.49   22.09
   2 -10  -7   23.86   22.68
  -2 -10   7   34.85   17.43
  -2  10   7   25.33   22.02
   2  10  -7   71.18   27.78
   1 -10  -7  151.55   32.18
   1  10  -7  124.82   34.22
  -1 -10   7  147.87   26.28
  -1  10   7  182.63   29.86
   0  10   7  165.22   23.44
   0 -10   7  136.14   26.60
   0 -10  -7  168.42   33.01
   0 -10   7  107.61   18.50
   0 -10  -7  145.08   24.06
   0  10  -7  101.70   39.01
   0  10   7  128.45   28.03
  -1 -10  -7   81.02   26.06
   1 -10   7  105.19   23.00
  -1 -10  -7   66.85   23.10
   1  10   7  109.36   25.84
  -1  10  -7   36.16   39.64
   1 -10   7  114.45   22.06
   2  10   7  265.75   37.62
  -2 -10  -7  308.46   41.61
   2 -10   7  287.68   35.17
  -2 -10  -7  248.93   44.94
   2 -10   7  325.05   36.21
  -3 -10  -7  211.97   46.00
   3 -10   7  249.71   36.42
  -3  10  -7  202.04   50.70
   3  10   7  252.52   39.39
  -3 -10  -7  286.85   45.40
   4 -10   7  130.48   29.23
   4 -10   7   83.46   25.97
   4  10   7  104.03   30.46
  -4  10  -7   41.39   44.77
  -4 -10  -7   86.96   35.71
  -4 -10  -7   72.41   41.92
  -5 -10  -7   59.51   37.24
   5 -10   7   52.30   26.88
  -5  10  -7   23.60   44.01
  -5 -10  -7   66.31   35.29
   5  10   7   63.82   31.36
   5 -10   7   59.20   30.83
   6 -10   7   27.75   22.31
  -6 -10  -7  -39.46   32.93
   6  10   7   42.46   33.27
   6 -10   7   48.07   31.58
  -6  10  -7   -9.28   42.73
  -6 -10  -7   15.88   39.00
   6  11  -7   -1.89   35.85
  -6  11   7   -4.16   33.76
  -6 -11   7  -16.31   34.33
  -6 -11   7   43.99   30.07
  -5  11   7   67.61   32.79
   5  11  -7   20.43   30.65
  -5 -11   7  -64.12   18.47
  -4  11   7   20.66   27.36
   4  11  -7   23.90   23.86
   4  11  -7   42.05   29.43
  -4 -11   7  -20.76   16.01
  -3 -11   7   41.69   20.36
   3 -11  -7   -2.71   20.04
   3  11  -7   35.27   26.60
   3  11  -7  -21.99   15.30
  -3  11   7    3.16   24.88
   2  11  -7  -10.95   22.67
  -2 -11   7   24.45   18.01
   2 -11  -7   46.28   23.32
  -2  11   7   23.36   19.98
  -2  11   7    1.51   23.37
   1  11  -7   39.11   28.22
  -1 -11   7   36.53   18.68
   1 -11  -7   36.69   24.92
  -1  11   7   25.73   17.07
  -1  11   7   38.58   19.38
   0 -11  -7  103.63   29.19
   0  11   7   74.08   18.51
   0 -11   7   77.07   21.68
   0  11   7   86.71   24.52
   0  11  -7   64.64   37.32
   0 -11  -7   36.27   19.54
   0  11  -7  103.42   21.06
   1 -11   7   62.58   20.36
  -1 -11  -7   81.73   28.69
  -1  11  -7  106.65   43.79
   1  11   7   59.42   22.21
  -1 -11  -7   88.46   30.66
  -1 -11  -7   34.50   20.19
   1 -11   7   79.49   19.63
   2 -11   7  132.55   28.21
   2 -11   7  146.01   26.86
   2  11   7  135.41   31.04
  -2 -11  -7  134.61   36.66
  -2 -11  -7  182.71   35.16
   3 -11   7  134.94   25.44
  -3  11  -7  136.70   49.26
   3  11   7  145.28   33.90
   3 -11   7  208.48   35.39
  -3 -11  -7  242.45   45.57
  -3 -11  -7  189.17   45.58
   4 -11   7  231.73   38.55
  -4 -11  -7  311.73   63.83
  -4 -11  -7  241.27   48.11
   4  11   7  240.05   40.75
   4 -11   7  226.85   39.30
  -4  11  -7  258.47   61.15
  -5 -11  -7   41.29   35.81
   5  11   7   71.67   30.96
  -5  11  -7  119.20   50.37
   5 -11   7   47.43   22.69
   5 -11   7  103.08   32.56
  -5 -11  -7   97.67   39.94
  -6 -11  -7   71.80   42.31
   6 -11   7  246.78   43.85
   6 -11   7  304.09   52.03
  -6  11  -7  190.25   61.98
  -6 -11  -7   72.47   37.75
   6  11   7  215.55   47.78
   6  12  -7   64.45   40.85
  -6  12   7   -0.03   34.55
  -6  12   7   15.55   34.76
   5  12  -7   -3.03   29.28
  -5  12   7   42.61   33.76
  -5 -12   7  -22.91   20.62
   4  12  -7  103.14   37.21
  -4  12   7   40.48   30.26
  -4 -12   7  106.21   28.39
  -3 -12   7   66.95   22.44
   3  12  -7   72.62   32.66
   3 -12  -7   74.85   30.69
  -3  12   7   76.92   32.17
   2 -12  -7  244.13   40.30
  -2 -12   7  199.92   32.43
   2  12  -7  257.30   43.83
  -1 -12   7  110.95   25.47
  -1  12   7  113.92   29.75
   1 -12  -7   65.30   29.34
   1  12  -7   59.14   30.01
  -1  12   7  107.78   25.37
   0  12  -7  330.47   52.66
   0 -12  -7  355.38   43.75
   0 -12   7  371.03   34.93
   0  12   7  401.20   31.09
   0  12  -7  386.01   31.42
   0  12   7  379.72   37.05
  -1  12  -7  108.80   42.68
   1  12   7  141.35   29.41
  -1 -12  -7  136.85   31.57
   1 -12   7  140.21   29.40
  -1 -12  -7  163.57   35.94
  -2  12  -7   41.73   38.68
   2 -12   7  150.81   27.34
   2 -12   7  204.13   29.76
  -2 -12  -7  191.64   42.52
  -2 -12  -7  183.61   37.42
   2  12   7  135.20   31.23
  -3 -12  -7  129.67   37.69
   3 -12   7  110.67   28.30
  -3 -12  -7  158.19   37.76
   3  12   7   84.07   30.36
   3 -12   7  141.19   29.02
  -3  12  -7   80.88   46.48
   4 -12   7   60.22   24.84
   4  12   7   64.14   31.36
  -4 -12  -7   91.12   36.72
  -4  12  -7   50.22   43.55
  -4 -12  -7  100.79   42.05
   4 -12   7   52.65   21.76
   5 -12   7   -6.27   23.93
   5 -12   7   25.02   23.50
  -5 -12  -7   24.43   37.40
  -5 -12  -7  -44.80   31.37
  -5  12  -7  -50.57   40.82
   5  12   7  -10.57   28.34
   6 -12   7   17.60   24.23
   6  12   7   48.70   35.06
  -6 -12  -7   45.33   40.91
  -6 -12  -7   86.80   43.48
  -6  12  -7  -14.41   46.68
   6 -12   7  -24.63   30.99
   6  13  -7    3.34   36.68
  -6 -13   7  -11.83   29.86
  -6  13   7   44.05   38.49
  -5  13   7   21.40   29.27
   5  13  -7   32.94   34.81
  -5 -13   7   31.99   33.46
  -5 -13   7   29.90   22.25
  -4  13   7  161.89   41.33
  -4 -13   7  140.05   29.19
   4  13  -7  206.22   45.83
   4 -13  -7  157.07   41.09
   3  13  -7   61.14   30.74
  -3 -13   7   46.94   23.14
  -3  13   7   55.52   33.88
   3 -13  -7   27.06   28.96
   3 -13  -7   17.67   17.55
   2 -13  -7   33.39   24.70
  -2  13   7   12.44   15.27
   2  13  -7   21.40   26.17
  -2 -13   7   -2.08   12.19
  -1  13   7   85.25   23.69
   1 -13  -7   47.68   26.50
   1  13  -7   62.32   30.63
  -1  13   7   75.41   27.17
  -1 -13   7   64.21   22.47
   0  13  -7   21.39   15.85
   0  13   7   -1.64   14.15
   0 -13   7   -8.19   16.23
   0  13   7    5.65   18.54
   0 -13  -7    4.25   22.36
   0  13  -7   18.89   29.96
  -1  13  -7  211.19   43.79
   1  13   7  183.81   32.40
  -1  13  -7  181.16   31.39
   1 -13   7  178.30   32.00
  -1 -13  -7  189.03   33.08
  -1 -13  -7  183.98   39.12
   2 -13   7   76.19   21.68
  -2 -13  -7  159.09   36.20
   2  13   7  103.26   27.46
  -2  13  -7  134.01   48.27
  -2 -13  -7  166.41   39.33
  -2 -13  -7  192.76   37.01
   3  13   7   66.87   25.85
   3 -13   7   45.60   20.95
   3 -13   7   74.45   24.25
  -3  13  -7   75.17   45.33
  -3 -13  -7   65.47   30.79
  -3 -13  -7   62.38   35.06
   4  13   7   63.54   31.39
  -4 -13  -7   72.49   34.72
  -4  13  -7   87.10   47.10
   4 -13   7  100.82   29.93
  -4 -13  -7  146.36   44.46
   4 -13   7   79.32   26.05
  -5  13  -7   -4.59   40.63
  -5 -13  -7  -16.74   33.99
   5 -13   7   11.44   26.98
  -5 -13  -7   45.11   42.03
   5  13   7   12.20   29.99
  -6 -13  -7   62.55   47.32
   6  13   7  109.19   41.27
  -6  13  -7  114.28   52.99
  -6 -13  -7   13.97   39.93
   6 -13   7   49.93   35.02
  -6  14   7   74.87   37.19
   6  14  -7    6.80   36.24
  -5  14   7   26.98   32.11
   5 -14  -7   -3.61   31.42
  -5 -14   7   21.69   23.67
   5  14  -7   25.22   30.74
  -4 -14   7   89.95   33.54
   4 -14  -7   93.20   37.74
   4  14  -7   25.64   32.17
  -4  14   7  130.81   38.73
  -4 -14   7   74.29   24.61
   3 -14  -7   13.48   20.29
   3 -14  -7   74.78   31.97
  -3 -14   7   94.30   23.97
  -3  14   7   47.79   28.68
   3  14  -7   86.93   35.54
  -2  14   7  101.14   32.22
  -2 -14   7   28.82   17.30
   2 -14  -7  117.80   31.50
   2 -14  -7  103.19   29.42
   2  14  -7  140.77   36.66
   1 -14  -7   12.53   24.82
  -1 -14   7    5.57   16.01
   1  14  -7   10.71   24.38
  -1  14   7    9.34   20.41
   0  14   7   95.01   27.15
   0  14  -7   68.51   21.78
   0 -14  -7   70.64   28.79
   0  14  -7   39.85   32.54
   0  14   7  111.49   22.41
   0 -14   7   83.46   23.89
  -1 -14  -7  268.54   39.85
  -1 -14  -7  204.28   39.75
   1  14   7  236.60   36.59
  -1  14  -7  278.58   35.37
   1 -14   7  215.88   34.45
  -2  14  -7  113.58   45.47
  -2 -14  -7  242.19   47.31
   2 -14   7  175.66   31.37
  -2 -14  -7  213.10   39.91
  -2  14  -7  250.25   37.61
   2  14   7   98.62   29.24
  -3  14  -7  181.83   53.23
   3  14   7  105.65   30.75
   3 -14   7  134.72   30.31
  -3 -14  -7  190.34   48.90
   4 -14   7   90.92   27.22
  -4  14  -7   62.65   45.62
  -4 -14  -7  155.40   48.58
  -4 -14  -7  143.86   44.37
   4  14   7   97.00   38.10
  -5  14  -7   94.36   50.75
  -5 -14  -7  163.50   49.88
   5  14   7   86.02   40.21
  -5 -14  -7  196.52   55.71
   5 -14   7  106.31   33.94
   6 -14   7   30.82   34.98
   6  14   7   40.05   37.15
  -6 -14  -7   47.53   40.39
  -6 -14  -7  -86.58   37.37
  -6  14  -7  -83.23   41.45
   6  15  -7   30.46   41.47
  -6  15   7  -18.99   33.87
   5 -15  -7   65.71   35.23
  -5  15   7  -11.21   32.84
  -5 -15   7   -1.07   19.56
   5  15  -7  -13.85   26.68
  -4  15   7    4.53   29.81
   4 -15  -7   48.71   33.13
  -4 -15   7   39.81   22.56
   4  15  -7   18.76   29.75
  -4 -15   7   29.07   29.45
  -3  15   7   36.98   19.74
  -3 -15   7   69.50   22.17
   3 -15  -7   46.79   27.41
   3  15  -7   86.92   31.86
   2  15  -7  202.15   43.12
   2 -15  -7  209.61   39.85
  -2  15   7  140.37   35.21
  -2 -15   7  210.54   36.61
   2 -15  -7  171.24   35.45
   1  15  -7   32.17   26.89
  -1  15   7    2.64   22.20
  -1 -15   7   28.78   17.62
   1 -15  -7   -2.25   28.06
   0  15   7  106.64   29.92
   0 -15  -7  113.55   35.77
   0  15   7  153.94   26.51
   0 -15   7  153.67   30.44
   0  15  -7   91.45   33.18
   1 -15   7    4.89   15.51
  -1  15  -7    3.97   17.78
   1  15   7   10.89   18.01
  -1 -15  -7   37.40   28.31
  -1 -15  -7   36.64   21.41
  -1  15  -7   69.02   24.82
  -2 -15  -7   97.02   33.98
  -2 -15  -7   54.63   30.58
  -2  15  -7   69.71   41.82
   2  15   7   36.53   23.73
  -2  15  -7   61.35   24.35
   2 -15   7   32.28   20.13
  -3  15  -7  116.66   47.47
   3 -15   7  108.55   26.97
  -3  15  -7  201.17   37.28
   3  15   7  146.77   35.05
  -4  15  -7   21.10   46.62
  -4  15  -7  120.64   30.67
  -4 -15  -7  104.69   44.41
   4 -15   7   69.58   25.95
   4  15   7   93.05   35.04
  -5  15  -7   64.25   30.43
  -5 -15  -7   91.79   40.21
   5  15   7  -51.21   27.46
   5 -15   7   30.49   28.14
  -5 -15  -7   94.96   50.67
  -5  15  -7   33.20   46.68
  -5 -16   7  -25.35   27.98
  -5  16   7   34.53   32.71
   5  16  -7   -4.25   31.02
   5 -16  -7   58.80   34.78
  -4 -16   7    0.04   20.66
   4  16  -7   24.73   29.92
   4 -16  -7  -26.33   24.83
  -4  16   7    8.35   27.59
   3  16  -7   13.71   26.58
  -3  16   7  130.82   35.93
  -3 -16   7   52.27   25.75
   3 -16  -7   50.50   29.08
   2 -16  -7   28.44   24.87
  -2  16   7   71.45   28.31
  -2 -16   7   61.28   24.24
   2  16  -7   30.28   31.44
   1 -16  -7   24.99   30.72
  -1  16   7    3.07   22.26
   1  16  -7    9.23   21.98
  -1 -16   7   69.93   25.65
   0 -16  -7   83.73   33.44
   0 -16   7   19.72   18.54
   0  16  -7   17.99   22.02
   0  16   7   13.55   20.31
   1 -16   7   36.35   22.45
  -1 -16  -7  -15.59   26.78
   1  16   7    7.34   20.81
  -1  16  -7   -6.99   32.24
  -1 -16  -7   68.31   23.21
  -1  16  -7    9.37   18.98
  -2  16  -7   33.35   24.07
  -2 -16  -7   56.14   28.95
  -2  16  -7   63.07   37.18
   2 -16   7   15.43   17.90
   2  16   7   14.83   22.91
   3 -16   7   34.71   20.13
  -3  16  -7   27.09   37.88
   3  16   7   35.50   24.59
  -3  16  -7   29.32   23.17
   4  16   7   75.23   37.35
  -4  16  -7  123.51   44.84
  -4  16  -7  109.13   33.72
   4 -16   7   21.22   21.00
  -5 -16  -7  404.33   65.20
  -5 -16  -7  592.42   92.94
   5 -16   7  304.78   50.52
  -5  16  -7  204.70   62.21
   5  16   7  380.86   58.47
   5  17  -7   14.51   35.56
  -5 -17   7  -26.08   31.11
  -5  17   7   34.08   34.35
   5 -17  -7   71.63   37.41
   4 -17  -7   61.20   32.35
  -4 -17   7   18.16   21.86
   4  17  -7   37.38   31.91
  -4  17   7    7.79   21.89
   3 -17  -7  -27.60   20.99
   3  17  -7   12.17   25.77
  -3  17   7   60.28   34.81
  -3 -17   7   26.80   22.83
  -2  17   7   66.51   29.37
   2  17  -7   48.21   31.72
  -2 -17   7   47.67   24.50
   2 -17  -7   36.43   23.67
   1 -17  -7   17.41   26.31
   1  17  -7   56.45   29.23
   1 -17  -7   29.69   21.88
  -1  17   7   24.97   24.61
  -1 -17   7   18.22   17.98
   0 -17   7   40.01   22.95
   0 -17  -7   38.25   28.49
   0  17  -7   51.17   23.26
   0  17   7   35.00   23.99
   1 -17   7   59.52   23.09
  -1  17  -7   38.98   20.62
   1  17   7   49.03   25.85
  -1  17  -7   58.17   34.33
  -1 -17  -7   18.89   28.79
   2  17   7   15.53   23.08
   2 -17   7   20.79   18.23
  -2  17  -7    8.19   35.92
  -2  17  -7   -5.92   21.76
  -2 -17  -7   -4.67   25.97
  -3  17  -7   55.07   26.51
   3  17   7   29.76   28.42
   3 -17   7   35.03   22.01
  -3  17  -7   27.57   42.40
   4 -17   7   72.48   26.45
   4  17   7   25.33   30.73
  -4  17  -7   63.57   48.27
  -4  17  -7  123.94   34.16
   5 -17   7   -6.88   25.10
  -5  17  -7  -14.64   27.49
  -5 -17  -7  105.17   52.61
  -5  17  -7   35.90   44.55
   5  17   7    8.37   33.33
   5  18  -7   13.06   34.88
   5 -18  -7   45.71   38.99
  -5  18   7   14.41   35.37
  -4  18   7   48.17   30.42
   4  18  -7   -2.46   28.31
  -4 -18   7   15.71   26.62
   4 -18  -7   17.55   28.84
  -3  18   7   13.60   32.12
   3  18  -7   -4.23   27.68
  -3 -18   7   48.49   24.81
   3 -18  -7   24.24   26.90
  -2 -18   7   14.61   20.67
   2  18  -7   18.58   30.61
   2 -18  -7   15.71   21.95
  -2  18   7   -3.99   24.05
  -1 -18   7    2.33   14.74
  -1  18   7   33.86   25.18
   1 -18  -7   14.98   18.87
   1 -18  -7    6.60   25.54
   1  18  -7    3.79   23.90
   0  18   7  -11.31   20.69
   0  18  -7   29.55   15.26
   0 -18  -7    6.70   26.24
   0 -18   7   -3.44   18.66
  -1  18  -7  177.05   42.34
   1 -18   7  164.69   33.17
   1  18   7  154.91   36.04
  -1 -18  -7  130.95   38.24
  -1  18  -7  184.68   32.02
  -2  18  -7   49.66   25.27
   2 -18   7   14.75   20.38
   2  18   7   41.97   30.14
  -2  18  -7   17.83   33.35
   3 -18   7   43.72   23.57
  -3  18  -7   28.71   29.09
  -3  18  -7   68.73   40.16
   3  18   7   48.43   30.59
  -3 -18  -7   24.71   31.89
   4  18   7   19.59   30.91
  -4  18  -7   33.82   31.53
  -4  18  -7   42.72   39.78
   4 -18   7   29.16   22.71
  -5  18  -7   97.43   39.16
   5  18   7   43.62   37.89
   5 -18   7   33.14   29.91
  -5  18  -7   14.41   45.22
   5  19  -7   -0.44   32.57
  -5  19   7  -19.76   27.37
   5 -19  -7   17.64   32.51
   4  19  -7  -11.28   30.20
   4 -19  -7   15.61   26.19
  -4  19   7   55.10   35.00
  -4 -19   7   44.93   26.57
   3 -19  -7   12.99   28.20
   3  19  -7   59.30   31.96
  -3  19   7   31.73   30.78
  -3 -19   7   58.12   26.74
  -2  19   7   58.73   31.49
  -2 -19   7   67.17   25.30
   2 -19  -7    3.61   22.23
   2 -19  -7   36.02   33.15
   2  19  -7   29.00   33.36
   1  19  -7   32.77   27.19
  -1 -19   7   11.74   18.58
   1 -19  -7   29.37   31.18
  -1  19   7   34.68   24.85
   0  19  -7   11.53   17.56
   0  19   7   31.10   25.10
   0 -19  -7   23.44   30.56
   0 -19   7   -8.84   17.20
  -1 -19  -7   84.03   35.59
   1 -19   7   67.48   25.42
   1  19   7   40.08   26.52
  -1  19  -7   56.27   29.07
  -2  19  -7   -2.09   32.23
  -2  19  -7    5.19   23.88
   2  19   7   -5.68   25.60
   2 -19   7   30.12   21.67
   3 -19   7   65.10   27.64
   3  19   7  133.88   39.56
  -3  19  -7   61.52   31.81
   3  19   7   64.18   32.79
  -3  19  -7   54.78   36.95
  -4  19  -7   27.03   40.88
   4 -19   7   13.80   23.06
  -4  19  -7   15.27   36.42
   4  19   7  -12.94   29.85
   5  19   7  -12.81   34.78
   5 -19   7  -24.72   25.15
   4 -20  -7  -13.37   24.19
   4  20  -7   -1.32   29.19
  -4  20   7   47.09   37.11
  -3  20   7   65.04   37.56
   3 -20  -7   18.33   26.17
   3  20  -7   56.33   34.82
  -3 -20   7   25.90   26.35
   2 -20  -7   47.99   28.61
  -2 -20   7   59.21   27.85
   2  20  -7   75.00   33.76
  -2  20   7   54.32   30.70
  -1  20   7  133.21   38.06
  -1 -20   7   74.39   27.35
   1 -20  -7   98.43   41.13
   1  20  -7  144.00   40.27
   0 -20   7   47.53   25.89
   0 -20  -7   40.78   34.79
   0  20   7   65.48   30.85
   0  20  -7   59.52   31.45
  -1 -20  -7    2.96   31.86
   1  20   7   23.14   25.64
   1 -20   7  -16.36   17.35
  -1  20  -7   63.48   27.00
   2 -20   7    7.87   22.18
  -2  20  -7   39.04   28.31
  -2  20  -7  127.34   37.68
   2  20   7   48.77   31.23
  -2 -20  -7   30.04   33.18
   3  20   7  -22.04   27.88
   3  20   7   21.88   30.15
  -3  20  -7   43.03   37.31
   3 -20   7    3.39   18.43
  -3  20  -7  -25.63   29.93
   4 -20   7   13.97   22.06
   4  20   7   38.75   35.31
  -4  20  -7  -51.87   29.87
  -4  20  -7   88.86   39.54
   4  21  -7   12.20   34.70
   4 -21  -7    6.51   30.38
  -4  21   7   63.67   42.09
   3 -21  -7   73.03   34.14
  -3 -21   7   52.07   29.01
   3  21  -7   44.61   37.62
  -3  21   7   92.26   39.79
   2 -21  -7   37.28   28.28
   2  21  -7   51.39   35.44
  -2  21   7    7.17   28.05
  -2 -21   7   37.73   25.78
  -1  21   7   29.85   29.55
  -1 -21   7   47.64   28.07
   1 -21  -7    6.90   32.65
   1  21  -7   42.90   31.09
   0 -21   7   15.02   21.76
   0  21   7   64.68   28.62
   0  21  -7   39.78   26.47
   1  21   7   79.78   30.91
  -1  21  -7   87.84   34.15
   1 -21   7   22.80   23.10
  -1 -21  -7   19.47   33.79
  -2  21  -7   52.33   31.71
   2 -21   7    3.93   21.40
   2  21   7   25.32   27.84
  -2 -21  -7    7.86   30.42
  -2  21  -7   43.11   28.74
   3  21   7   19.34   28.64
  -3  21  -7   44.76   35.78
   3 -21   7   21.14   21.48
  -3  21  -7  -60.42   28.29
   3  21   7   24.01   32.77
  -4  21  -7  105.35   41.80
   4  21   7  100.77   41.26
   4 -21   7   50.10   27.01
  -4  21  -7  154.41   46.57
  -4  22   7    1.20   37.25
   4 -22  -7    5.76   28.71
   4  22  -7  -20.86   30.84
   3  22  -7   30.94   33.40
   3 -22  -7   55.83   32.61
  -3 -22   7   10.87   28.55
  -3  22   7    1.54   34.70
   2 -22  -7   30.84   28.14
  -2  22   7   57.36   33.26
   2  22  -7   30.75   36.67
  -2 -22   7  -16.28   25.85
   1 -22  -7    3.94   33.82
  -1 -22   7   72.19   29.27
   1  22  -7  145.50   40.94
  -1  22   7   52.98   33.23
   0  22   7   65.43   30.24
   0 -22  -7   21.78   34.26
   0  22  -7   70.10   33.03
   0 -22   7   25.55   24.49
   1 -22   7   34.15   24.22
  -1 -22  -7   -8.03   31.27
   1  22   7   25.95   30.35
  -1  22  -7   44.89   27.59
   2 -22   7   99.97   32.01
  -2  22  -7  157.51   38.15
  -2 -22  -7   90.71   37.95
   2  22   7  120.68   39.10
  -3  22  -7  -13.23   29.94
   3  22   7   44.31   35.82
   3 -22   7   24.85   26.59
  -3  22  -7   96.43   37.51
  -4  22  -7  -75.68   33.06
   4  22   7  -17.94   36.23
   4 -22   7   27.77   25.44
   3 -23  -7   42.01   27.45
  -3  23   7   83.44   39.11
   3  23  -7   14.19   32.98
  -2  23   7    0.60   29.77
  -2 -23   7  -10.70   29.90
   2  23  -7   22.81   36.67
  -1 -23   7    6.58   24.93
   1  23  -7   55.79   30.26
  -1  23   7    3.45   27.43
   0  23   7   75.67   37.04
   0  23  -7  127.11   37.70
   0 -23  -7   95.23   40.48
   0 -23   7   45.95   26.27
   1  23   7   58.92   33.16
  -1  23  -7   79.25   33.72
   1 -23   7   45.08   25.56
   2  23   7   13.88   31.64
   2 -23   7  -15.96   21.61
  -2 -23  -7   29.27   28.06
  -2  23  -7   54.23   30.61
   3  23   7  -19.65   34.07
  -3  23  -7   98.47   37.71
   3 -23   7   23.03   22.73
  -3  23  -7  -51.93   33.49
   3  24  -7   12.15   36.79
   3 -24  -7   84.32   34.58
  -3  24   7    8.95   33.18
  -2  24   7   25.71   32.24
  -2 -24   7   13.35   31.44
   2  24  -7    7.37   32.96
  -1 -24   7   -5.87   28.44
   1  24  -7  -36.45   28.43
  -1  24   7  -18.85   29.28
   0 -24   7   -7.67   20.31
   0 -24  -7   17.06   37.79
   0  24   7   60.37   33.46
   0  24  -7   -1.78   31.84
   1 -24   7  -39.93   19.53
  -1  24  -7   50.99   27.83
   1  24   7    1.07   29.51
  -1 -24  -7  -46.47   33.50
   2 -24   7   15.69   24.86
   2  24   7   19.89   30.91
  -2  24  -7   47.91   34.47
  -3  24  -7  -10.44   33.62
  -3  24  -7   81.87   34.06
   3  24   7   38.81   35.29
   3 -24   7  -14.89   20.44
  -2 -25   7   33.86   34.04
  -2  25   7    2.80   30.10
   2  25  -7   19.40   37.91
  -1  25   7   10.83   31.47
  -1 -25   7   12.67   26.18
   1  25  -7  -38.94   30.87
   0  25   7   45.88   34.09
   0  25  -7   71.68   33.17
   0 -25   7   21.72   21.98
  -1 -25  -7   -9.88   37.98
   1  25   7   64.07   38.61
  -1  25  -7   57.60   30.53
   1 -25   7   50.41   26.00
   2 -25   7  -27.43   21.19
  -2  25  -7   73.10   35.39
   2  25   7   59.69   38.29
  -1 -26   7  -33.55   25.99
   1  26  -7   60.36   41.71
  -1  26   7   40.44   32.18
   0  26   7  -32.16   32.48
   0  26  -7  105.69   38.44
   0 -26   7  -33.71   21.80
   1 -26   7    3.61   26.65
  -1  26  -7   33.89   33.67
   1  26   7   47.31   41.08
  -7   0   8   53.34   35.63
  -6   0   8   46.12   35.21
  -5   0   8   52.10   27.10
   5   0  -8   31.02   24.37
  -4   0   8  124.60   34.93
   4   0  -8  121.69   30.11
   4   0  -8  215.62   32.19
   3   0  -8   58.60   21.22
   3   0  -8   55.55   22.03
  -3   0   8   84.10   26.10
  -2   0   8    9.73   17.31
  -2   0   8   12.84   13.03
   2   0  -8   51.51   21.63
   2   0  -8   42.72   16.90
  -1   0   8  523.64   31.51
   1   0  -8  482.24   48.70
  -1   0   8  426.69   36.73
   0   0   8   52.41   17.37
   0   0   8   21.25   14.10
   0   0  -8   32.66   34.18
   1   0   8   -3.91   11.66
   1   0   8   23.67   17.34
  -1   0  -8   45.04   32.84
   2   0   8  152.15   23.01
  -2   0  -8   59.14   35.85
   3   0   8   22.52   18.54
   3   0   8   51.76   16.34
  -3   0  -8   43.88   38.09
  -4   0  -8   92.69   41.32
   4   0   8   99.65   27.96
   5   0   8  155.61   37.26
  -5   0  -8  157.84   54.07
   6   0   8    4.42   28.61
  -6   0  -8   22.02   38.46
  -7  -1   8   19.87   38.56
  -7   1   8    5.57   32.73
  -6   1   8   81.03   39.09
  -6  -1   8   -2.04   28.74
   5  -1  -8  -12.93   16.69
  -5   1   8   18.69   27.84
  -5  -1   8   27.71   27.56
  -4  -1   8   37.74   24.74
   4   1  -8   90.81   26.15
   4   1  -8   51.58   22.39
  -4   1   8   84.70   29.08
   4  -1  -8   47.93   20.87
   3  -1  -8   16.88   17.52
  -3  -1   8   11.41   20.17
   3   1  -8   25.36   19.88
   3  -1  -8    0.04   16.72
   3   1  -8   64.01   21.16
  -3   1   8   42.67   20.87
  -2  -1   8   46.53   17.35
  -2   1   8   74.41   16.54
   2   1  -8    9.68   13.04
   2   1  -8   87.65   26.34
  -2   1   8   38.92   20.17
   2  -1  -8   34.87   21.21
   2  -1  -8   71.18   24.12
  -1  -1   8   49.95   19.28
   1  -1  -8   16.58   33.76
  -1   1   8   69.08   17.43
   1   1  -8   24.75   34.26
  -1  -1   8   82.73   16.46
  -1   1   8   48.14   20.19
   0  -1   8   73.15   18.95
   0   1  -8  103.18   38.77
   0  -1  -8  101.63   35.37
   0   1   8  118.92   21.27
   0   1   8   88.66   18.69
   0  -1   8   54.00   17.74
   1  -1   8  189.32   27.97
  -1  -1  -8  118.97   35.83
   1  -1   8  189.41   24.36
   1   1   8  127.45   20.21
  -1   1  -8  113.68   38.88
   1   1   8  193.53   30.59
  -2   1  -8   28.24   34.80
   2   1   8   53.35   19.16
   2  -1   8   44.10   19.10
   2   1   8   62.33   18.43
  -2  -1  -8   64.70   36.56
   3   1   8  395.61   39.81
   3  -1   8  388.90   31.11
  -3  -1  -8  324.02   56.44
   3  -1   8  395.14   38.73
   3   1   8  402.72   30.08
  -3   1  -8  331.57   60.29
   4   1   8  184.40   37.68
   4  -1   8  114.03   30.00
  -4   1  -8  126.66   44.21
  -4  -1  -8  118.89   41.66
   4  -1   8  140.59   25.72
   5  -1   8  -10.54   21.39
   5   1   8    8.07   24.68
  -5  -1  -8  -13.29   35.62
  -5   1  -8  -16.04   32.67
  -6   1  -8  -59.88   25.43
   6   1   8   68.46   35.25
  -6  -1  -8   34.83   43.93
   6  -1   8    5.56   28.08
  -7   2   8   58.47   39.68
  -7  -2   8    3.92   39.19
  -6  -2   8    8.77   25.61
  -6   2   8   15.81   31.07
   5  -2  -8   26.46   23.30
  -5  -2   8   24.71   27.23
  -5   2   8   38.87   30.66
  -4   2   8   61.67   26.23
   4   2  -8   25.61   19.33
  -4  -2   8   42.01   26.16
   4  -2  -8   65.68   24.75
   4   2  -8   47.51   25.59
  -3   2   8   44.64   18.36
  -3   2   8    9.58   17.99
   3   2  -8   11.19   16.03
  -3  -2   8    3.48   19.68
   3   2  -8  -16.72   20.52
   3  -2  -8   -6.42   14.66
   3  -2  -8    3.94   15.92
   2  -2  -8  138.79   26.51
   2   2  -8  171.48   34.18
  -2  -2   8  185.16   29.93
  -2   2   8  131.49   27.11
   2  -2  -8  151.99   28.65
  -2   2   8  131.60   22.81
  -1   2   8   99.71   22.64
  -1  -2   8  115.14   24.65
   1   2  -8  124.51   38.94
   1  -2  -8  100.02   34.23
  -1  -2   8  120.81   19.14
  -1   2   8  110.20   20.96
   0  -2   8  102.38   21.54
   0  -2   8   79.09   19.95
   0   2  -8   52.41   37.78
   0  -2  -8  113.23   36.07
   0   2   8  128.22   23.78
   0   2   8   81.46   19.42
   1   2   8   90.08   22.84
   1  -2   8   64.20   18.49
   1   2   8  104.87   18.53
  -1  -2  -8   41.88   31.47
  -1   2  -8   94.98   38.81
   1  -2   8   71.65   19.54
  -2   2  -8   35.87   37.88
   2  -2   8   80.99   19.67
   2   2   8   81.57   17.76
   2   2   8   49.76   21.07
  -2  -2  -8   11.59   28.93
   2  -2   8   35.42   20.65
  -3  -2  -8  390.14   59.49
   3   2   8  421.20   29.58
  -3   2  -8  367.91   60.36
   3   2   8  414.97   40.43
   3  -2   8  423.41   40.13
   3  -2   8  428.07   34.10
   4   2   8  155.02   33.16
  -4   2  -8  164.86   47.78
   4  -2   8  185.24   27.83
   4  -2   8  149.40   32.21
  -4  -2  -8  158.28   46.96
  -5  -2  -8   17.38   41.67
   5  -2   8  -17.65   19.47
  -5   2  -8   33.18   43.30
   5   2   8   19.59   28.50
  -6  -2  -8    4.27   42.85
   6   2   8   14.77   29.21
  -6   2  -8  -19.19   41.66
   6  -2   8    3.09   25.67
  -7  -3   8  -25.13   36.05
  -7   3   8   41.66   39.01
  -6   3   8   13.58   32.09
  -6  -3   8  -22.79   30.25
  -5   3   8   54.48   31.08
   5   3  -8   18.45   28.43
  -5  -3   8   47.32   29.59
   5  -3  -8   20.58   23.82
   5   3  -8    2.77   21.95
  -4   3   8   -5.23   20.53
   4   3  -8   34.73   18.57
   4   3  -8   26.40   24.66
   4  -3  -8  -23.07   15.93
  -4  -3   8   -2.28   21.02
   3   3  -8   -2.41   20.06
   3  -3  -8    3.15   15.40
  -3   3   8   -8.00   15.81
   3   3  -8  -21.23   15.37
  -3  -3   8   16.76   19.89
  -3   3   8  -11.48   16.03
   2  -3  -8   60.01   22.06
   2   3  -8   10.15   20.79
  -2   3   8    5.04   13.49
  -2  -3   8   15.52   15.65
  -2   3   8   11.33   15.08
  -1   3   8  105.82   23.94
   1   3  -8  108.62   37.76
  -1  -3   8  115.27   23.17
   1  -3  -8  107.99   33.30
  -1   3   8  118.61   23.20
   0  -3   8   69.35   18.54
   0  -3   8   89.99   20.92
   0   3  -8  119.01   40.88
   0   3   8   44.93   17.68
   0  -3  -8   49.77   32.19
   0   3   8   66.14   18.55
   1  -3   8  562.06   37.86
   1  -3   8  414.04   32.57
   1   3   8  426.99   36.47
  -1  -3  -8  379.60   46.89
   1   3   8  463.49   29.29
  -1   3  -8  338.03   52.53
  -2   3  -8   57.37   37.43
   2   3   8   42.46   19.82
   2   3   8   46.54   16.07
   2  -3   8   64.16   21.84
   2  -3   8   50.52   19.56
  -2  -3  -8    8.61   29.64
   3   3   8  112.99   25.97
   3  -3   8  148.39   26.26
   3  -3   8  173.33   33.98
  -3   3  -8  103.82   45.80
  -3  -3  -8   87.49   37.49
  -4  -3  -8  147.11   45.90
   4  -3   8  150.78   29.69
  -4   3  -8  140.59   49.29
   4  -3   8  238.85   33.38
   4   3   8  185.89   34.24
  -5   3  -8  -49.44   20.80
   5   3   8   15.22   29.79
   5  -3   8  -18.38   21.27
  -5  -3  -8    4.81   35.99
   6   3   8  -14.68   28.10
  -6   3  -8  -12.72   44.99
  -6  -3  -8   23.69   41.56
   6  -3   8   -5.37   25.80
  -7  -4   8   27.21   35.96
  -7   4   8   73.80   39.89
   6   4  -8    8.02   25.69
  -6  -4   8   21.13   31.24
  -6   4   8  -31.90   29.37
  -5  -4   8   60.83   28.64
   5   4  -8   32.29   27.91
  -5   4   8   45.22   27.82
   5   4  -8   24.55   23.76
  -4  -4   8    0.77   21.26
  -4   4   8   27.53   21.49
   4   4  -8    9.38   17.94
   4   4  -8    8.02   24.04
   4  -4  -8    2.76   18.42
  -3   4   8   42.89   25.24
  -3   4   8  109.46   24.68
   3   4  -8   78.31   23.68
   3  -4  -8  104.85   28.19
  -3  -4   8   84.44   27.85
   3   4  -8  102.26   30.11
  -2  -4   8   10.18   17.44
   2  -4  -8   10.55   15.07
  -2   4   8   12.49   18.27
   2   4  -8   10.74   21.48
  -2   4   8   -3.65   14.60
   1   4  -8  486.77   50.69
   1  -4  -8  547.93   47.38
  -1  -4   8  526.47   39.63
  -1   4   8  575.25   37.20
  -1   4   8  534.18   39.62
   0   4   8   82.28   20.10
   0   4  -8   58.73   38.00
   0  -4   8  111.79   19.65
   0   4   8  120.09   24.07
   0  -4  -8   60.37   31.71
   0  -4   8  119.43   22.83
   1   4   8    7.62   13.48
   1  -4   8   20.72   14.13
   1  -4   8   39.92   16.49
  -1  -4  -8   22.78   25.89
   1   4   8   35.98   13.03
  -1   4  -8  -40.08   32.11
  -2  -4  -8    8.49   26.17
  -2   4  -8   52.70   41.19
   2  -4   8   25.48   17.22
   2  -4   8   44.71   21.03
   2   4   8   21.98   20.09
   2   4   8   37.32   14.68
   3  -4   8  352.79   37.24
  -3  -4  -8  267.10   51.32
   3  -4   8  292.25   40.36
  -3   4  -8  253.52   52.80
   3   4   8  350.91   44.29
   4  -4   8  152.65   27.08
  -4  -4  -8   70.92   38.67
   4   4   8   16.92   19.99
   4  -4   8   59.60   24.76
  -4   4  -8   21.21   37.01
   5  -4   8  163.61   35.86
   5   4   8  159.12   37.34
  -5  -4  -8  154.75   48.49
  -6  -4  -8  124.43   52.08
   6   4   8   56.33   32.30
  -6   4  -8   69.98   51.51
   6  -4   8   85.57   30.87
  -7  -5   8    6.13   34.67
  -7   5   8   65.78   38.50
   6   5  -8   23.53   26.98
  -6   5   8   67.81   36.44
  -6  -5   8   34.13   34.12
  -5   5   8   46.00   28.51
   5   5  -8   21.27   27.72
  -5  -5   8   -9.22   19.23
   5   5  -8    6.18   24.61
   4   5  -8  -11.06   22.47
  -4  -5   8   51.87   28.43
   4  -5  -8    9.00   22.12
  -4   5   8   17.90   22.49
   4   5  -8   16.70   25.55
  -4   5   8   60.71   25.98
   3   5  -8   24.57   25.33
   3   5  -8   43.40   20.28
  -3  -5   8   -2.12   19.71
   3  -5  -8   67.77   25.36
  -3   5   8   40.50   21.78
  -3   5   8   -5.82   16.64
   2   5  -8  -20.09   21.96
  -2   5   8  -29.66   13.79
  -2   5   8   -3.01   17.29
   2  -5  -8    6.67   14.93
  -2  -5   8    1.52   15.36
  -1   5   8   15.01   15.97
   1   5  -8  -25.18   27.84
   1  -5  -8   -9.89   17.44
   1  -5  -8    6.79   28.53
  -1   5   8   16.67   16.74
  -1  -5   8   40.49   19.69
   0  -5   8  154.48   22.25
   0  -5   8  210.44   28.15
   0   5   8  193.37   28.74
   0   5   8  180.63   24.91
   0  -5  -8  223.36   36.32
   0   5  -8  160.53   44.41
  -1  -5  -8  174.00   36.57
   1   5   8  134.86   19.54
   1  -5   8  132.53   25.01
   1  -5   8  225.33   29.35
  -1   5  -8  129.37   43.02
   2  -5   8  355.16   33.60
  -2   5  -8  322.09   56.14
   2  -5   8  351.06   39.48
   2   5   8  297.06   38.93
  -2  -5  -8  308.65   50.09
   3   5   8  308.31   42.11
  -3  -5  -8  285.31   52.09
   3  -5   8  345.31   32.55
  -3   5  -8  264.96   55.37
   3  -5   8  343.29   42.57
   4  -5   8  189.69   33.06
   4  -5   8  256.06   38.10
   4   5   8  138.35   31.92
  -4   5  -8  161.62   44.05
  -4  -5  -8  157.08   42.87
   5   5   8   13.02   28.23
  -5  -5  -8   -3.13   32.22
   5  -5   8   -6.34   20.61
   5  -5   8   42.42   25.43
  -5   5  -8  -29.15   36.42
  -6  -5  -8   -0.79   40.28
   6   5   8    6.60   28.49
   6  -5   8   58.74   32.56
  -6   5  -8  -33.13   44.46
   6   6  -8   12.57   33.38
  -6  -6   8   41.07   35.07
  -6   6   8   66.01   34.16
   5   6  -8   30.87   23.71
   5  -6  -8   36.23   26.21
  -5  -6   8  -19.99   24.87
   5   6  -8   17.77   29.46
  -5   6   8  -15.27   24.11
   4   6  -8    6.48   21.58
  -4   6   8    9.20   20.50
  -4  -6   8   27.21   24.37
   4   6  -8   -8.98   24.16
   4  -6  -8    0.35   20.91
  -4   6   8   -9.19   22.32
  -3   6   8  503.54   46.44
  -3  -6   8  553.55   48.27
   3  -6  -8  442.35   49.22
   3   6  -8  534.15   48.96
  -3   6   8  606.89   45.29
   2  -6  -8  229.96   34.77
  -2   6   8  250.58   38.19
   2   6  -8  256.51   42.60
  -2  -6   8  147.69   30.19
  -2   6   8  219.79   30.85
  -1   6   8  340.28   33.19
   1  -6  -8  369.07   34.90
   1   6  -8  309.59   48.22
  -1   6   8  338.96   32.41
  -1  -6   8  347.51   34.02
   0  -6   8  263.56   24.07
   0  -6   8  277.92   34.07
   0   6   8  296.67   34.84
   0  -6  -8  262.98   37.82
   0   6   8  278.74   26.39
   0   6  -8  216.44   48.24
  -1   6  -8   54.81   40.21
   1  -6   8   53.97   20.39
  -1  -6  -8   82.43   27.92
   1   6   8   43.22   13.44
   1  -6   8   50.96   18.30
   1   6   8   66.01   20.29
   2  -6   8  137.02   26.92
  -2  -6  -8  127.47   34.38
   2   6   8  120.94   28.84
  -2   6  -8  120.41   46.91
   2  -6   8  119.87   27.04
   3  -6   8   54.18   19.50
  -3  -6  -8  108.07   36.83
  -3   6  -8   93.05   43.87
   3   6   8   61.74   25.47
   3  -6   8  103.88   23.09
   4   6   8    6.61   21.49
   4  -6   8   10.57   21.26
   4  -6   8    4.54   20.32
  -4   6  -8  -30.17   18.19
  -4  -6  -8    1.94   29.26
   5  -6   8   77.44   28.52
  -5  -6  -8   40.80   32.04
  -5   6  -8   86.64   50.70
   5  -6   8   51.60   27.90
   5   6   8    6.91   28.41
   6   6   8   28.59   32.19
  -6  -6  -8  -58.52   32.59
  -6   6  -8   18.78   50.80
   6  -6   8   48.07   28.25
   6   7  -8    7.39   26.86
  -6   7   8   63.83   34.37
  -6  -7   8   14.52   32.84
   6   7  -8   -4.13   33.72
  -5   7   8   50.09   28.69
   5   7  -8   16.64   30.92
  -5  -7   8   61.66   32.33
   5   7  -8   26.86   25.94
   4  -7  -8  138.21   35.46
   4   7  -8  108.83   30.69
  -4   7   8  125.07   35.00
  -4   7   8  150.45   33.50
  -4  -7   8   91.07   25.26
   4   7  -8  165.16   40.29
  -3   7   8  158.18   31.06
   3   7  -8  164.56   36.36
  -3   7   8  175.77   35.82
  -3  -7   8  135.96   32.04
   3  -7  -8  128.53   29.45
   2   7  -8   78.50   30.15
  -2  -7   8   80.00   24.11
  -2   7   8  144.40   28.87
   2  -7  -8   96.63   26.24
  -2   7   8  126.91   29.41
  -1   7   8   53.02   18.02
  -1   7   8   20.78   18.84
   1  -7  -8   52.93   22.16
   1   7  -8   48.21   33.08
  -1  -7   8   32.29   18.47
   0   7   8  258.08   29.19
   0  -7   8  249.64   22.89
   0  -7   8  227.60   33.23
   0  -7  -8  263.22   37.28
   0   7  -8  257.85   50.31
   0   7   8  286.07   34.88
   1   7   8  122.49   18.63
  -1  -7  -8  156.94   33.01
   1  -7   8  141.89   27.46
   1  -7   8  153.60   25.85
   1   7   8  125.41   27.41
  -1   7  -8  135.10   47.22
   2  -7   8  209.49   32.74
   2   7   8  184.43   33.18
  -2   7  -8  154.51   46.24
   2  -7   8  145.93   28.47
  -2  -7  -8  125.16   36.11
  -3   7  -8   74.36   43.45
   3   7   8   52.10   25.25
   3  -7   8   21.03   19.07
   3  -7   8  -13.29   12.63
  -3  -7  -8   39.32   30.02
   4   7   8  270.32   45.48
   4  -7   8  205.05   35.56
   4  -7   8  223.40   39.58
  -4  -7  -8  212.70   52.25
   5  -7   8    8.04   25.81
  -5  -7  -8  -27.43   28.14
   5  -7   8   -5.99   22.90
  -5   7  -8  -48.58   39.04
   5   7   8   33.61   26.53
   6   7   8    0.39   32.19
  -6  -7  -8  -46.62   31.58
   6  -7   8   36.39   25.99
  -6   7  -8   54.07   49.03
  -6   8   8   26.59   32.04
   6   8  -8    6.30   33.79
  -6  -8   8   33.95   33.17
   5   8  -8    8.51   23.13
  -5   8   8   58.93   29.40
  -5  -8   8    1.55   26.58
   5   8  -8   15.29   30.74
   4   8  -8   22.16   28.62
   4   8  -8   34.07   23.55
  -4  -8   8  -27.73   14.89
  -4   8   8   49.68   27.38
   4  -8  -8   39.54   26.72
  -4   8   8   41.23   28.73
  -3  -8   8  140.64   32.11
  -3   8   8  167.67   33.67
   3   8  -8  210.95   41.96
  -3   8   8  186.41   36.29
   3  -8  -8  208.48   35.58
  -2  -8   8  474.98   43.03
  -2   8   8  535.39   44.65
  -2   8   8  571.10   44.76
   2   8  -8  452.25   47.78
   2  -8  -8  521.06   44.29
   1   8  -8  263.41   46.07
  -1  -8   8  333.73   37.87
  -1   8   8  338.46   36.82
  -1   8   8  358.90   39.00
   1  -8  -8  292.89   39.26
   0  -8   8  603.36   33.52
   0   8  -8  534.31   61.88
   0  -8   8  566.93   43.54
   0  -8  -8  560.51   41.94
   0  -8  -8  563.36   44.51
   0   8   8  640.47   38.73
   1   8   8  150.89   29.33
  -1   8  -8  119.29   47.96
   1  -8   8  227.93   26.90
  -1  -8  -8  162.41   33.92
   1  -8   8  124.87   26.20
   1   8   8  145.87   18.87
   2  -8   8  340.87   32.76
  -2   8  -8  250.15   52.89
   2   8   8  287.38   38.82
  -2  -8  -8  429.07   56.17
   2  -8   8  386.41   41.79
   3  -8   8   -2.15   13.36
  -3  -8  -8   24.56   25.64
  -3   8  -8   50.61   38.51
   3   8   8   29.03   23.53
   3  -8   8   -2.38   16.30
   4  -8   8   46.30   23.46
   4   8   8   25.26   24.68
  -4   8  -8   56.91   44.24
  -4  -8  -8   -3.60   31.12
   4  -8   8    3.98   21.83
   5  -8   8   11.71   26.91
  -5  -8  -8    4.30   35.59
   5  -8   8   -6.63   22.60
   5   8   8   -3.09   25.90
  -5   8  -8  -14.22   41.37
   6  -8   8    1.27   27.19
  -6   8  -8   -5.39   48.72
   6   8   8   36.69   37.47
  -6  -8  -8   -0.58   36.75
   6   9  -8    3.73   37.19
   6   9  -8   86.31   33.50
  -6  -9   8   48.54   33.21
  -6   9   8    7.17   35.60
  -5   9   8   49.09   28.82
  -5  -9   8  -40.50   22.53
  -5   9   8   32.92   27.15
   5   9  -8   10.83   29.98
  -4   9   8   34.19   27.05
   4   9  -8   14.62   26.11
  -4  -9   8    2.73   21.13
   4  -9  -8   38.16   28.81
  -4   9   8   63.53   28.44
  -3  -9   8   -7.05   15.95
  -3   9   8   20.69   24.21
   3  -9  -8   64.92   24.83
  -3   9   8   22.86   24.67
   3   9  -8    7.68   24.78
   2   9  -8  224.41   43.09
  -2  -9   8  183.87   34.04
  -2   9   8  215.45   37.21
   2  -9  -8  159.04   35.28
  -2   9   8  255.49   36.69
  -1  -9   8  157.93   29.99
   1   9  -8  158.80   39.40
  -1   9   8  214.23   33.54
   1  -9  -8  179.08   33.51
  -1   9   8  219.07   33.54
   0  -9   8   91.13   18.19
   0  -9  -8  108.17   26.48
   0  -9  -8  125.43   31.47
   0  -9   8   94.66   26.04
   0   9   8  149.25   23.21
   0   9  -8  107.82   42.13
   1   9   8   24.71   19.89
   1  -9   8    2.13   15.13
  -1   9  -8    9.07   37.32
   1  -9   8    9.40   14.90
  -1  -9  -8   36.74   21.63
  -2   9  -8   11.59   43.97
   2   9   8   27.14   21.14
  -2  -9  -8   52.96   26.24
   2  -9   8   36.88   17.98
   2  -9   8   23.28   17.24
  -3  -9  -8  142.49   41.80
   3   9   8   95.01   31.31
   3  -9   8  129.89   27.09
   3  -9   8  140.46   31.50
  -3   9  -8   78.83   30.27
   4  -9   8   18.41   21.22
  -4  -9  -8   29.04   34.01
  -4   9  -8   19.15   44.81
   4  -9   8    4.09   20.50
  -4  -9  -8  -15.27   29.29
   4   9   8   23.54   23.97
  -5   9  -8   99.85   53.42
   5  -9   8    4.96   26.22
   5   9   8   29.34   29.38
   5  -9   8   23.80   23.88
  -5  -9  -8    2.28   33.32
  -5  -9  -8  -46.21   34.40
   6  -9   8   69.97   28.00
   6   9   8   30.39   34.25
  -6  -9  -8  -20.14   41.46
  -6   9  -8   39.14   46.55
  -6  10   8   40.95   37.20
  -6 -10   8   44.95   32.66
   6  10  -8   10.12   37.56
  -5 -10   8   11.09   24.65
  -5  10   8   96.08   33.44
  -5  10   8   50.33   29.13
   5  10  -8   57.40   36.44
   5  10  -8   54.98   32.36
   4  10  -8   29.64   29.25
  -4  10   8   19.41   26.16
   4 -10  -8   17.43   25.30
  -4  10   8   25.39   25.49
  -4 -10   8  -14.32   18.99
   4  10  -8  -20.29   20.82
  -3  10   8  157.06   38.17
  -3 -10   8  117.60   31.81
  -3  10   8  121.89   32.23
   3 -10  -8  100.62   29.51
   3  10  -8  111.16   33.93
  -2 -10   8   93.18   23.49
  -2  10   8  144.37   32.64
   2 -10  -8   41.04   24.96
   2  10  -8   78.61   32.20
  -2  10   8  109.14   26.53
   1  10  -8   16.87   25.00
  -1  10   8   -6.56   16.63
   1 -10  -8   28.45   24.47
  -1 -10   8   -0.70   13.70
  -1  10   8  -13.30   16.94
   0  10   8   74.62   21.98
   0 -10  -8   60.63   28.03
   0 -10  -8   60.99   22.29
   0 -10   8   76.89   17.05
   0  10  -8   16.33   36.01
   0 -10   8   65.48   23.10
   0  10   8   88.41   19.01
   1 -10   8   30.81   19.21
   1  10   8   64.32   21.25
  -1  10  -8   57.33   39.90
  -1 -10  -8  117.27   28.84
   1 -10   8   58.10   21.23
  -1 -10  -8    7.90   12.30
   2 -10   8  154.21   28.68
   2 -10   8  207.78   30.76
  -2 -10  -8  157.19   37.80
  -2  10  -8  105.24   50.15
   2  10   8  165.53   31.85
   3 -10   8  178.69   32.10
  -3 -10  -8  131.29   37.94
   3 -10   8  181.36   32.02
   3  10   8  109.74   30.52
  -3 -10  -8  124.28   40.38
   4  10   8   -8.11   22.76
   4 -10   8   15.30   23.24
   4 -10   8   53.86   25.15
  -4  10  -8  -11.95   41.05
  -4 -10  -8   -9.96   32.26
  -4 -10  -8   15.39   29.43
  -5 -10  -8   36.91   38.69
   5 -10   8   39.39   29.85
   5 -10   8   33.91   25.21
  -5  10  -8   15.05   47.35
   5  10   8   24.85   28.43
  -5 -10  -8   -7.22   37.72
  -6  10  -8  -33.78   48.11
   6 -10   8   12.72   25.82
   6  10   8   51.01   33.72
   6 -10   8  -15.36   33.51
  -6 -10  -8   15.12   42.31
  -6 -10  -8   21.60   41.30
  -6 -11   8  -55.89   23.25
   6  11  -8   61.79   40.41
  -6  11   8  -27.00   29.23
   5  11  -8   42.87   34.76
  -5 -11   8   -9.44   23.89
  -5  11   8   13.54   26.63
  -5  11   8   53.88   31.36
  -4  11   8  -23.89   25.51
   4  11  -8   18.57   25.73
  -4 -11   8  -29.43   20.43
  -4  11   8   27.95   25.50
   4 -11  -8    7.72   24.65
  -3  11   8   64.59   29.52
   3 -11  -8   79.34   29.65
   3  11  -8   95.43   34.60
  -3 -11   8   45.56   20.26
  -3  11   8  108.76   30.56
   2 -11  -8  171.87   36.01
  -2  11   8  200.75   36.67
   2  11  -8  149.04   38.52
  -2 -11   8  141.88   29.40
  -2  11   8  197.97   35.74
   1  11  -8  234.54   46.23
   1 -11  -8  211.05   37.34
  -1 -11   8  254.06   37.42
  -1  11   8  304.24   36.70
   0 -11  -8   36.43   19.14
   0  11   8   45.00   21.68
   0 -11  -8    2.19   21.69
   0  11  -8   -6.27   34.24
   0 -11   8   24.93   19.14
   0  11   8   57.13   17.40
  -1 -11  -8   51.24   22.81
   1 -11   8   24.83   18.07
  -1 -11  -8  -11.61   19.36
   1 -11   8   30.77   19.60
   1  11   8   65.40   23.74
  -1  11  -8  -11.83   38.32
   2 -11   8   54.93   22.25
  -2 -11  -8   68.90   33.63
   2 -11   8   83.83   23.29
   2  11   8   91.68   26.52
  -2  11  -8   69.77   44.46
   3 -11   8   44.40   19.31
  -3 -11  -8   48.86   32.36
  -3 -11  -8   57.15   33.44
   3  11   8   41.04   27.29
   3 -11   8   52.72   21.27
  -3  11  -8  -65.69   26.25
  -4  11  -8  108.23   49.72
   4 -11   8  142.25   32.79
   4  11   8  132.39   34.41
   4 -11   8  125.61   30.92
  -4 -11  -8  132.42   45.01
  -4 -11  -8  222.50   51.67
  -5 -11  -8    0.29   43.85
  -5 -11  -8   56.98   41.23
   5 -11   8  -18.15   21.35
   5  11   8   25.42   30.17
   5 -11   8   28.71   28.90
  -5  11  -8   -3.71   42.58
  -6 -11  -8    1.54   37.69
  -6 -11  -8  -10.24   39.68
   6 -11   8  106.75   42.03
  -6  11  -8   37.23   53.72
   6  11   8   38.87   38.51
   6 -11   8   81.06   28.65
   6  12  -8  133.44   44.09
  -6 -12   8   14.51   27.23
  -6  12   8   46.31   31.94
  -6 -12   8  -10.73   33.92
  -5  12   8   95.60   36.58
  -5 -12   8   77.28   26.63
   5  12  -8  163.30   44.47
  -5  12   8   85.94   35.78
   4  12  -8  -27.83   26.63
  -4  12   8   40.31   29.30
  -4 -12   8  -11.00   20.43
  -4  12   8   43.66   27.00
   3  12  -8   81.24   34.37
  -3  12   8  119.86   33.26
  -3  12   8  112.52   32.38
  -2  12   8   32.80   26.36
  -2  12   8   83.86   26.72
   2  12  -8   33.02   26.45
   2 -12  -8   41.85   21.78
  -2 -12   8   69.14   21.32
  -1  12   8  104.90   24.56
  -1 -12   8  234.50   36.70
  -1  12   8  340.37   38.40
   1 -12  -8  200.08   37.23
   1  12  -8  238.80   44.75
   0  12  -8   19.61   32.79
   0 -12   8   14.49   13.91
   0  12   8   23.31   20.89
   0 -12  -8    8.67   24.01
   0  12   8   52.38   17.31
   1 -12   8   56.38   22.49
   1 -12   8   76.98   20.46
  -1  12  -8   33.59   37.32
  -1 -12  -8  104.72   30.79
   1  12   8   72.10   24.39
  -2 -12  -8   96.38   32.31
  -2 -12  -8   78.02   30.80
   2 -12   8   93.12   26.12
   2 -12   8   93.87   24.10
  -2 -12  -8   67.90   25.67
  -2  12  -8  105.20   40.30
   2  12   8  117.97   29.60
   3 -12   8    0.12   19.44
   3 -12   8   79.25   24.49
  -3 -12  -8   51.48   31.92
  -3 -12  -8   46.13   30.02
  -3  12  -8   70.76   48.88
   3  12   8   29.54   24.53
  -4 -12  -8   50.11   36.75
   4 -12   8   -2.29   20.08
  -4 -12  -8   64.24   35.31
   4 -12   8   74.97   26.12
  -4  12  -8   28.11   40.43
   4  12   8   57.48   28.06
  -5 -12  -8  133.01   46.89
  -5 -12  -8   99.33   44.48
  -5  12  -8   30.97   49.71
   5 -12   8  125.05   37.46
   5 -12   8   79.51   29.32
   5  12   8  109.17   37.72
  -6 -12  -8  -33.94   41.12
   6 -12   8  -51.48   36.49
   6 -12   8   61.18   29.42
  -6  12  -8   18.84   53.74
  -6 -12  -8   15.62   42.58
   6  12   8   45.54   37.36
   6  13  -8   27.37   43.97
  -6  13   8  -11.70   29.74
   5  13  -8  -17.64   32.85
  -5 -13   8    3.08   23.73
  -5  13   8   29.94   29.54
  -5  13   8   -2.79   29.36
  -4  13   8  144.31   41.08
  -4  13   8   84.05   36.51
  -4 -13   8  116.09   32.17
   4  13  -8   95.79   36.92
  -3  13   8  317.25   49.83
  -3  13   8  289.57   46.95
   3  13  -8  294.98   52.78
  -2  13   8  157.09   31.68
  -2 -13   8   71.86   24.48
   2  13  -8  111.42   35.76
  -2  13   8   46.82   23.25
   2 -13  -8  135.18   34.54
  -1  13   8  302.25   37.60
  -1  13   8  156.31   32.73
   1 -13  -8  179.81   36.60
   1  13  -8  203.73   42.63
  -1 -13   8  162.66   32.79
   0  13  -8  148.82   42.39
   0  13   8  110.46   23.59
   0 -13  -8  152.99   37.15
   0  13   8  154.12   33.47
   0 -13   8  136.34   28.25
  -1  13  -8  116.26   42.99
  -1 -13  -8  131.61   31.45
   1  13   8   99.62   28.73
   1 -13   8  138.93   32.00
  -2 -13  -8  140.28   35.23
   2  13   8   65.78   25.40
   2 -13   8  157.42   29.25
  -2 -13  -8  114.11   32.47
   2 -13   8   78.05   21.97
  -3 -13  -8  -32.12   24.22
   3 -13   8   -3.01   18.36
   3  13   8    0.78   21.15
   3 -13   8   25.55   18.45
  -3 -13  -8  -13.20   26.02
  -3  13  -8  -11.15   43.73
   4  13   8   -9.72   25.81
   4 -13   8  -19.98   19.80
  -4  13  -8  -41.93   41.15
  -4 -13  -8    7.42   33.71
   4 -13   8   30.05   20.80
  -4 -13  -8  -13.20   29.63
  -5 -13  -8   85.73   41.02
   5 -13   8   23.14   29.56
  -5 -13  -8   29.97   40.82
  -5  13  -8   57.43   48.59
   5 -13   8   64.24   27.70
   5  13   8   37.93   34.19
   6  14  -8   82.75   47.08
  -6  14   8   31.85   32.26
  -5  14   8   71.62   31.49
  -5 -14   8   53.87   28.44
  -5  14   8   87.42   36.84
   5  14  -8   80.85   43.19
  -5 -14   8   56.93   34.80
  -4 -14   8   -4.30   23.40
  -4  14   8   81.18   37.51
   4  14  -8   11.94   29.65
   3  14  -8   -5.52   27.82
  -3  14   8   38.97   25.25
  -3  14   8  -12.80   27.67
   3 -14  -8   32.91   29.62
  -3 -14   8   19.66   21.71
  -2  14   8   19.62   15.59
  -2  14   8  101.03   28.76
  -2 -14   8   92.87   26.98
   2  14  -8   70.25   28.26
   2 -14  -8   52.51   25.64
  -1  14   8    7.19   21.91
   1  14  -8   33.76   26.82
   1 -14  -8   49.98   27.30
  -1  14   8   41.56   20.89
  -1 -14   8    6.98   19.09
   0 -14  -8   55.69   27.87
   0  14   8   19.70   20.99
   0 -14   8   50.93   21.89
   0  14   8   54.60   18.82
   0  14  -8   23.03   28.44
  -1  14  -8   70.93   41.46
   1  14   8   62.33   26.33
  -1 -14  -8   69.50   31.94
   1 -14   8   39.83   20.99
  -1  14  -8   71.77   24.23
  -1 -14  -8   54.78   24.77
  -2 -14  -8   38.06   27.13
  -2 -14  -8   31.21   29.97
   2 -14   8   -6.18   14.86
   2  14   8   17.74   23.12
  -2  14  -8    4.88   18.90
  -2 -14  -8    5.17   24.24
   3 -14   8   11.19   20.67
  -3  14  -8   61.56   46.67
  -3 -14  -8   72.99   36.19
   3  14   8    2.13   22.59
  -3 -14  -8   55.04   33.17
  -4 -14  -8   27.27   38.36
   4  14   8   -3.24   27.47
  -4  14  -8   17.34   42.49
  -4 -14  -8   70.92   41.62
   4 -14   8   47.79   24.24
  -5 -14  -8   -5.64   38.10
   5 -14   8  -22.79   27.97
  -5 -14  -8   50.08   42.03
   5  14   8   10.95   33.55
  -5  14  -8   21.39   50.09
   5  15  -8  -17.94   34.76
  -5 -15   8   10.15   26.06
  -5  15   8   22.90   33.89
  -4 -15   8  123.82   31.02
  -4  15   8   51.61   39.33
   4  15  -8   82.93   39.58
  -3  15   8  104.29   34.95
  -3 -15   8  109.08   29.94
   3  15  -8   96.06   38.86
  -2  15   8   99.99   32.01
  -2  15   8   54.61   26.40
   2  15  -8   66.99   31.08
   2 -15  -8    9.79   22.82
  -2 -15   8   64.70   25.51
  -1  15   8  118.91   29.58
  -1  15   8   71.55   28.42
   1  15  -8   90.46   32.43
  -1 -15   8  140.53   29.61
   1 -15  -8   87.31   29.59
   0  15  -8   53.37   28.27
   0 -15   8    8.77   18.93
   0 -15  -8   23.78   25.31
   0  15   8    0.17   23.33
  -1 -15  -8  113.07   30.96
   1 -15   8  128.21   30.90
   1  15   8   99.01   26.97
  -1 -15  -8  120.67   37.96
  -1  15  -8  133.96   26.54
  -1  15  -8  159.25   45.58
   2  15   8   62.55   26.77
   2 -15   8   44.25   21.04
  -2  15  -8   53.09   24.26
  -2  15  -8   -6.40   39.87
  -2 -15  -8   40.87   26.27
  -2 -15  -8   77.25   27.52
   3  15   8   34.30   25.23
   3 -15   8   16.82   20.21
  -3 -15  -8   41.50   31.53
  -3 -15  -8   29.91   31.75
  -3  15  -8   60.31   45.56
  -3  15  -8  103.62   30.23
  -4  15  -8    1.63   43.62
  -4 -15  -8   33.15   35.86
   4 -15   8    3.38   22.94
   4  15   8   33.43   31.52
  -4 -15  -8  -38.36   31.29
  -5 -15  -8   11.00   42.72
  -5  15  -8   24.70   49.03
   5  15   8   30.95   33.62
   5 -15   8   -0.12   27.21
  -5 -15  -8  -47.54   38.28
  -5  15  -8   70.57   32.31
  -5  16   8   95.32   41.20
   5  16  -8   54.44   46.25
  -5 -16   8   50.92   25.42
  -4  16   8   71.49   35.28
  -4 -16   8   52.25   26.59
   4  16  -8   60.53   41.09
  -3  16   8   49.47   22.95
  -3 -16   8  172.96   35.97
   3  16  -8   83.29   38.03
   2 -16  -8   14.96   28.03
  -2  16   8   63.73   31.44
  -2 -16   8   -0.24   17.03
   2  16  -8   64.92   32.71
  -1 -16   8   12.46   19.12
  -1  16   8   14.38   23.21
   1  16  -8   40.33   26.85
  -1  16   8   46.26   19.35
   1 -16  -8   12.95   23.85
   0 -16   8   46.90   24.10
   0  16  -8   25.34   27.26
   0  16   8   87.37   29.93
   0 -16  -8   41.92   27.30
  -1  16  -8   65.11   25.49
  -1 -16  -8   38.99   29.66
   1  16   8   14.70   21.33
   1 -16   8   33.36   20.94
   2 -16   8   22.98   17.33
  -2  16  -8   12.54   21.73
   2  16   8   -2.74   22.85
  -2 -16  -8   -9.85   26.76
  -2 -16  -8   26.61   27.81
  -2  16  -8   50.53   36.54
  -3  16  -8   20.85   22.90
   3 -16   8   36.27   21.15
  -3 -16  -8   48.11   32.64
  -3 -16  -8   27.84   31.65
  -3  16  -8   30.26   40.80
   3  16   8   11.00   25.20
   4  16   8   52.25   33.65
   4 -16   8   65.50   28.22
  -4 -16  -8   60.71   39.77
  -4  16  -8   49.61   41.35
  -4  16  -8   64.39   29.72
  -4 -16  -8  -12.13   39.37
  -5 -16  -8   48.76   47.47
  -5  16  -8   98.86   53.92
  -5  16  -8  168.57   40.25
  -5 -16  -8  167.83   53.44
   5 -16   8  162.92   42.08
   5  16   8  161.26   45.45
   5  17  -8   -4.83   33.26
  -5  17   8   61.24   39.42
  -4  17   8   58.41   35.41
  -4 -17   8   91.83   31.52
   4  17  -8   84.03   38.03
  -3  17   8  151.48   39.02
   3 -17  -8  193.18   42.94
  -3 -17   8  114.23   32.85
   3  17  -8  106.24   43.49
  -2 -17   8   21.74   17.56
  -2  17   8   43.35   29.74
   2  17  -8   27.66   29.36
  -1  17   8  151.81   38.31
   1  17  -8  114.71   33.53
  -1  17   8  197.97   34.78
   1 -17  -8   52.36   26.57
  -1 -17   8   96.24   28.26
   0 -17   8    7.50   21.61
   0 -17  -8   41.29   26.69
   0  17   8   66.07   29.17
   0  17  -8   30.26   28.49
  -1 -17  -8   65.11   34.71
  -1  17  -8   73.35   20.73
   1 -17   8   33.50   20.88
   1  17   8   55.54   26.29
   2 -17   8   99.52   25.89
  -2  17  -8   77.73   28.25
  -2 -17  -8   29.09   28.70
  -2 -17  -8   54.06   29.19
   2  17   8   90.16   29.59
  -2  17  -8   29.17   40.17
  -3 -17  -8  -13.06   29.69
   3 -17   8   -1.59   18.76
   3  17   8   22.65   25.21
  -3  17  -8  -41.38   37.37
  -3  17  -8    6.82   27.36
  -3 -17  -8  101.21   39.81
  -4 -17  -8   63.18   43.45
  -4  17  -8  -11.49   29.78
  -4 -17  -8  -35.79   32.89
   4  17   8   -1.77   29.98
  -4  17  -8   31.18   42.45
   4 -17   8    7.61   24.44
   5  17   8   17.84   39.63
  -5 -17  -8   36.95   46.18
   5 -17   8   23.02   30.56
  -5 -17  -8   89.51   48.07
  -5  17  -8   92.14   35.36
  -5  17  -8   30.02   47.79
  -5  18   8  130.13   44.48
   5  18  -8  119.50   46.42
  -4  18   8  -12.67   25.34
   4  18  -8    4.28   34.00
  -4 -18   8  -21.11   25.12
  -3 -18   8  120.15   32.74
  -3  18   8  153.04   41.54
   3  18  -8   86.70   35.96
   2  18  -8   95.91   38.70
  -2  18   8  120.15   38.19
  -2 -18   8  139.71   32.10
  -1 -18   8   64.75   24.75
  -1  18   8   53.26   28.44
   1 -18  -8    1.83   29.81
   1  18  -8   73.38   32.84
   0 -18  -8   18.33   29.65
   0 -18   8   17.46   26.81
   0  18  -8   25.54   29.50
   0  18   8   97.58   30.68
  -1 -18  -8   62.42   35.60
   1  18   8   51.06   27.03
  -1  18  -8   29.64   23.08
   1 -18   8   40.09   20.81
   2 -18   8    9.45   16.76
  -2  18  -8   37.00   37.62
  -2  18  -8    6.00   23.02
   2  18   8    6.54   26.68
  -2 -18  -8   59.75   34.90
  -3  18  -8   84.99   41.09
  -3 -18  -8   34.23   37.37
   3 -18   8   15.25   24.11
  -3 -18  -8   27.90   36.67
   3  18   8   43.00   28.49
  -3  18  -8   34.96   30.12
  -4  18  -8   24.10   30.00
   4  18   8  -55.71   31.87
   4 -18   8   26.81   23.41
  -4 -18  -8   98.30   46.08
  -4  18  -8   41.48   43.87
  -4 -18  -8   56.72   41.09
   4 -19  -8   12.96   25.90
   4  19  -8   29.71   35.99
  -4  19   8  110.28   37.28
  -4 -19   8   48.62   29.90
  -3  19   8   59.58   34.00
   3 -19  -8   15.16   27.87
   3  19  -8   12.89   28.03
  -3 -19   8    2.64   23.20
   2  19  -8   43.74   33.78
  -2 -19   8   37.16   26.78
   2 -19  -8   36.41   31.65
  -2  19   8   80.14   36.78
  -1 -19   8   65.98   28.36
   1  19  -8   98.49   34.49
  -1  19   8  148.85   40.47
   1 -19  -8   48.10   32.00
   0  19  -8   11.03   27.79
   0 -19  -8   24.52   34.42
   0 -19   8   34.65   22.79
   0  19   8   84.39   31.68
   1  19   8   99.84   33.83
   1 -19   8   69.66   27.95
  -1  19  -8   78.33   32.24
  -2  19  -8    6.57   26.06
  -2  19  -8   42.36   33.87
   2  19   8  -14.57   25.12
   2 -19   8   31.56   22.94
  -3 -19  -8   28.34   32.67
   3 -19   8   -3.02   21.64
  -3  19  -8   18.77   28.45
   3  19   8   34.31   31.32
  -3 -19  -8   89.34   39.82
  -3  19  -8   29.17   35.27
  -4 -19  -8   37.79   40.53
   4  19   8  -17.63   31.39
  -4 -19  -8  136.30   49.78
  -4  19  -8   18.56   43.15
   4 -19   8   -2.74   25.02
  -4  19  -8   -7.35   35.06
  -4  20   8   49.69   34.44
   4 -20  -8   -7.02   29.71
  -4 -20   8   10.11   27.57
   4  20  -8   11.57   34.52
  -3  20   8   52.00   33.19
   3  20  -8   19.18   33.27
   3 -20  -8  122.88   38.65
  -3 -20   8   42.02   30.41
   2 -20  -8   78.68   36.09
  -2  20   8   54.94   32.80
  -2 -20   8   39.59   29.09
   2  20  -8   48.60   34.23
  -1  20   8  -20.16   23.85
   1  20  -8   20.94   26.15
   1 -20  -8  -50.23   29.13
  -1 -20   8  -18.42   23.01
   0  20   8   66.13   30.34
   0 -20  -8  -12.41   32.32
   0  20  -8  101.50   27.62
   0 -20   8   33.56   27.77
   1  20   8   40.97   28.74
   1 -20   8   17.04   21.59
  -1 -20  -8   76.09   37.49
  -1  20  -8   47.30   33.41
   2 -20   8   26.84   21.37
  -2  20  -8   59.79   35.41
   2  20   8    8.09   29.35
  -3  20  -8    0.95   36.47
  -3  20  -8  -15.50   28.45
   3  20   8   17.71   29.36
   3 -20   8   14.88   21.75
  -4 -20  -8  173.62   54.31
   4  20   8   25.75   36.71
  -4 -20  -8   43.44   46.58
  -4  20  -8  -25.86   34.07
  -4  20  -8  137.07   42.95
   4 -20   8   21.71   25.77
   4 -21  -8   96.98   40.22
   4  21  -8    6.40   35.47
  -4  21   8   76.92   40.40
  -3 -21   8  -13.74   27.95
  -3  21   8    3.35   29.24
   3 -21  -8   -2.57   27.02
   3  21  -8   13.33   31.50
  -2 -21   8    5.22   27.67
  -2  21   8   27.70   36.59
   2 -21  -8  -11.41   33.00
   2  21  -8   59.10   35.50
   1  21  -8   85.62   37.39
  -1  21   8  100.90   34.50
  -1 -21   8   11.68   22.74
   0 -21   8   28.68   26.36
   0 -21  -8   51.12   40.02
   0  21  -8   30.90   21.48
   0  21   8   12.16   31.89
   1  21   8   35.52   28.57
  -1  21  -8   84.14   35.41
   1 -21   8   13.28   21.86
  -2  21  -8   -2.37   32.20
   2  21   8   46.51   31.93
   2 -21   8   42.06   26.00
   3  21   8  -14.22   29.60
  -3  21  -8   -1.35   29.95
  -3 -21  -8   31.62   34.19
   3 -21   8   -2.33   22.61
  -3  21  -8  106.90   39.91
   3  22  -8    9.07   33.18
  -3  22   8   63.83   38.72
   3 -22  -8  103.87   34.07
  -3 -22   8   37.49   32.89
  -2 -22   8  123.64   37.37
   2  22  -8   96.95   41.76
  -2  22   8   80.09   35.10
  -1  22   8   30.65   29.39
   1  22  -8   37.83   34.66
  -1 -22   8   39.97   24.55
   0  22  -8   22.54   21.74
   0 -22   8   84.06   30.56
   0  22   8   56.53   31.07
   0 -22  -8   -2.75   33.20
  -1  22  -8   70.10   32.99
   1 -22   8   46.40   25.91
   1  22   8   49.30   30.88
   2 -22   8  -15.68   20.68
   2  22   8    8.60   32.98
  -2 -22  -8   17.92   34.97
  -2  22  -8   56.49   30.91
   3 -22   8   32.58   25.52
   3  22   8   42.14   34.80
  -3  22  -8   82.15   38.87
  -3  23   8   37.44   35.75
   3  23  -8   17.26   32.45
   3 -23  -8   49.89   32.89
  -3 -23   8   27.09   30.98
  -2  23   8   82.04   40.33
  -2 -23   8   46.15   34.07
   2  23  -8   56.11   41.69
  -1  23   8   81.77   34.89
  -1 -23   8   -4.84   25.31
   1  23  -8  106.92   40.02
   0  23  -8   59.21   35.68
   0 -23   8   41.67   27.00
   0  23   8   29.91   32.10
   1  23   8   60.25   32.50
   1 -23   8   89.06   32.04
  -1  23  -8   70.29   34.50
   2 -23   8   34.57   24.28
   2  23   8    8.23   32.85
  -2  23  -8   40.47   31.78
   3  23   8   23.03   37.35
   3 -23   8   74.11   30.66
  -2  24   8   98.33   38.72
  -2 -24   8  150.25   41.69
   2  24  -8  121.64   44.40
  -1 -24   8   34.89   29.35
  -1  24   8   -4.95   27.55
   1  24  -8    4.45   33.81
   0 -24   8  131.22   35.53
   0  24   8   94.84   38.76
   0  24  -8  200.17   48.17
   1 -24   8    8.89   23.26
  -1  24  -8   60.83   32.79
   1  24   8   47.09   35.23
   2 -24   8   42.20   27.52
  -2  24  -8   84.43   39.33
   2  24   8   42.07   37.93
   1  25  -8   50.95   36.83
  -1 -25   8   10.97   30.40
  -1  25   8  -28.62   30.45
   0  25   8   30.58   36.72
   0  25  -8  -17.41   29.62
   0 -25   8    4.13   25.28
  -1 -25  -8   32.52   38.51
   1 -25   8   85.01   30.84
  -1  25  -8  109.08   37.61
   1  25   8   35.05   35.13
  -6   0   9   77.05   37.70
   5   0  -9  207.26   38.69
  -5   0   9  220.74   50.54
  -4   0   9    5.49   23.39
   4   0  -9   16.43   19.72
   3   0  -9  100.98   26.36
  -3   0   9   77.99   23.09
   3   0  -9  117.53   25.80
   2   0  -9   -2.81   13.95
  -2   0   9   75.31   22.35
   2   0  -9   57.20   26.73
  -1   0   9  340.68   28.03
   1   0  -9  294.69   47.93
  -1   0   9  330.59   37.57
   0   0   9    3.53   13.99
   0   0   9   55.04   19.04
   0   0  -9   79.68   39.54
   1   0   9   98.37   20.71
  -1   0  -9  105.59   43.37
   1   0   9   89.49   25.45
  -2   0  -9   82.51   41.32
   2   0   9   16.56   16.55
   2   0   9    0.36   15.56
  -3   0  -9   93.88   44.77
   3   0   9   88.27   29.79
   3   0   9  113.30   25.64
  -4   0  -9   10.16   42.02
   4   0   9  -11.87   21.57
   5   0   9  -22.10   23.08
  -5   0  -9  -22.91   35.09
  -6   0  -9  -47.19   44.77
   6   0   9  -16.45   26.62
  -6   1   9  -10.47   32.19
  -6  -1   9   13.92   35.08
   5   1  -9  109.23   30.39
  -5   1   9   60.14   33.08
   5  -1  -9   15.45   22.66
  -5  -1   9   39.01   35.38
   4   1  -9   35.10   19.98
  -4  -1   9   49.64   27.48
   4  -1  -9   51.61   23.85
  -4   1   9   75.27   32.18
  -3   1   9  212.50   37.90
   3   1  -9  207.82   34.60
  -3  -1   9  252.61   40.72
   3  -1  -9  268.46   37.28
   3  -1  -9  273.26   34.28
   3   1  -9  309.45   40.75
   2  -1  -9   80.28   26.93
   2   1  -9   32.25   24.80
  -2  -1   9   42.26   21.03
  -2   1   9   88.14   20.33
  -2   1   9   89.22   24.54
   2  -1  -9   82.27   24.64
  -1   1   9   24.10   15.14
  -1  -1   9   52.11   16.58
   1   1  -9   -7.62   32.64
  -1   1   9   41.37   17.33
  -1  -1   9   47.32   18.93
   1  -1  -9   43.01   36.31
   0   1   9  -11.18   12.73
   0  -1   9    8.29   14.90
   0  -1   9   13.76   14.12
   0   1  -9   23.89   38.69
   0   1   9   44.12   19.18
   0  -1  -9    7.91   34.94
   1   1   9   53.14   21.01
   1   1   9   23.78   15.46
   1  -1   9   17.64   20.90
   1  -1   9   -3.94   13.77
  -1   1  -9  -16.27   35.93
  -1  -1  -9   49.72   38.41
   2   1   9  386.97   31.74
  -2   1  -9  319.24   58.26
  -2  -1  -9  317.40   54.10
   2  -1   9  411.77   38.56
   2  -1   9  446.13   35.09
  -3  -1  -9    5.94   36.11
   3   1   9   25.87   21.79
   3  -1   9   49.33   24.10
  -3   1  -9   27.94   38.69
   3  -1   9   52.49   23.69
   3   1   9   42.27   20.86
   4   1   9   -1.34   19.19
   4  -1   9   21.93   24.18
  -4   1  -9  -19.08   38.39
  -4  -1  -9    8.94   37.15
  -5   1  -9   -0.34   44.29
   5  -1   9   12.52   24.28
   5   1   9  -13.43   24.70
  -5  -1  -9  -22.35   34.34
   6  -1   9  -10.74   26.33
   6   1   9  -47.09   27.32
  -6  -1  -9   11.58   42.98
  -6   1  -9  -17.31   46.22
  -6   2   9   80.99   41.16
  -6  -2   9   20.52   33.89
   6   2  -9    4.01   27.07
   5   2  -9   82.71   30.70
  -5  -2   9  174.05   40.90
   5  -2  -9   69.44   27.11
  -5   2   9   62.02   33.25
  -4   2   9   84.79   28.93
   4   2  -9  115.11   31.95
  -4  -2   9  135.99   36.52
   4  -2  -9   63.52   24.02
   4   2  -9   52.49   22.92
  -3  -2   9   49.24   24.17
   3  -2  -9   30.45   20.20
   3   2  -9   41.34   27.89
  -3   2   9   59.91   24.38
   3   2  -9   42.56   22.43
   2  -2  -9  556.95   42.41
   2  -2  -9  513.91   42.01
  -2   2   9  618.02   47.25
  -2   2   9  579.80   37.30
   2   2  -9  577.48   47.70
  -2  -2   9  518.28   44.58
  -1  -2   9  142.25   26.97
  -1   2   9  161.22   29.80
  -1  -2   9  210.89   24.43
  -1   2   9  202.97   27.89
   1  -2  -9  202.51   41.78
   1   2  -9  156.74   42.08
   0  -2  -9   66.72   35.19
   0   2   9  115.39   24.86
   0  -2   9  100.74   21.55
   0  -2   9  122.28   23.56
   0   2   9  102.99   21.55
   0   2  -9   99.60   42.45
   1  -2   9  530.43   40.30
  -1   2  -9  437.94   60.33
   1  -2   9  483.62   37.59
  -1  -2  -9  451.06   56.95
   1   2   9  469.24   32.66
   1   2   9  580.77   44.14
   2   2   9  195.97   25.66
   2  -2   9  118.65   27.21
  -2  -2  -9  102.89   38.84
  -2   2  -9  124.70   44.05
   2  -2   9  185.59   33.69
   2   2   9  120.56   26.79
  -3  -2  -9   98.80   43.79
   3  -2   9  144.52   27.63
  -3   2  -9  105.04   46.13
   3  -2   9   62.61   24.20
   3   2   9   59.17   23.70
   4  -2   9   22.13   23.55
   4   2   9   -1.93   25.32
  -4  -2  -9  -23.19   30.70
  -4   2  -9   20.77   43.54
   5   2   9   23.48   26.61
  -5  -2  -9   -5.45   36.97
   5  -2   9   17.51   22.82
  -5   2  -9  -79.24   37.49
  -6   2  -9   42.72   42.30
   6  -2   9   51.20   29.78
  -6  -2  -9    4.87   45.38
   6   2   9  -13.23   29.54
   6  -3  -9   16.25   26.35
  -6  -3   9   69.19   35.71
  -6   3   9   61.63   41.81
   6   3  -9    8.46   25.74
  -5   3   9   28.55   30.37
   5  -3  -9   16.43   24.42
  -5  -3   9    4.42   28.00
  -4   3   9  121.91   33.27
   4   3  -9  170.55   32.14
   4  -3  -9  135.07   31.83
   4   3  -9  192.90   36.51
  -4  -3   9  133.07   36.22
   3  -3  -9  343.71   43.38
   3   3  -9  376.34   47.69
  -3  -3   9  359.69   49.43
  -3   3   9  243.37   40.26
  -2  -3   9  273.35   40.16
  -2   3   9  353.94   30.83
  -2   3   9  296.28   39.26
   2  -3  -9  297.18   37.67
   2   3  -9  309.04   44.15
   2  -3  -9  290.08   35.28
  -1   3   9  166.83   30.08
  -1  -3   9  201.40   29.63
   1   3  -9  209.02   45.63
  -1   3   9  233.00   28.89
   1  -3  -9  205.71   43.45
   0  -3  -9  156.09   39.86
   0   3   9  182.54   28.34
   0  -3   9  177.13   28.56
   0   3   9  131.86   25.77
   0  -3   9  181.32   25.50
   0   3  -9  170.28   46.38
   1  -3   9  101.49   24.22
   1   3   9   77.56   17.68
   1  -3   9   66.03   20.63
   1   3   9   66.30   24.54
  -1   3  -9   68.30   40.89
  -1  -3  -9   81.96   38.71
   2   3   9  188.17   32.26
   2   3   9  201.36   25.83
  -2   3  -9   82.68   45.60
   2  -3   9  201.15   32.97
  -2  -3  -9  149.51   45.68
   2  -3   9  155.46   28.63
  -3  -3  -9  121.93   42.32
   3   3   9  104.11   28.90
   3  -3   9  200.71   29.56
  -3   3  -9  137.60   52.72
   3  -3   9  225.41   36.06
   4  -3   9   98.94   28.31
  -4   3  -9   55.75   43.82
  -4  -3  -9   39.54   37.42
   4  -3   9   67.79   28.33
   4   3   9   78.52   29.33
  -5   3  -9  -77.55   39.89
   5   3   9    5.92   25.52
   5  -3   9   19.23   25.62
  -5  -3  -9   29.35   40.27
   6   3   9    3.27   31.53
   6  -3   9  -23.07   24.64
  -6  -3  -9  -42.93   38.06
  -6   3  -9  -84.64   28.94
  -6  -4   9  -27.94   24.85
  -6   4   9   30.87   37.21
   5   4  -9   99.07   33.19
  -5  -4   9   46.85   29.05
  -5   4   9  116.23   37.13
   4   4  -9   27.24   20.66
  -4  -4   9   10.32   24.99
  -4   4   9    4.27   22.93
   4  -4  -9    0.87   20.85
   4   4  -9   18.45   25.55
  -3   4   9   78.86   26.55
   3   4  -9  118.11   33.59
  -3  -4   9   90.93   29.05
   3  -4  -9   93.95   29.06
   3   4  -9   74.50   21.29
  -3   4   9  117.76   25.05
   2   4  -9   13.49   26.25
   2  -4  -9   37.15   22.29
  -2  -4   9   63.78   21.86
  -2   4   9   52.38   22.03
   2  -4  -9   41.15   20.66
  -2   4   9   25.52   19.69
   1   4  -9    7.02   33.50
  -1  -4   9   34.99   18.65
  -1   4   9   27.67   15.30
   1  -4  -9    4.24   11.40
   1  -4  -9   31.87   31.34
  -1   4   9   17.32   15.85
   0   4  -9   39.36   37.53
   0  -4   9   68.71   19.33
   0  -4  -9   46.75   36.02
   0   4   9   36.67   17.67
   0  -4   9   59.09   19.33
   0   4   9   96.73   23.19
   1   4   9  160.15   29.83
   1  -4   9  134.13   27.65
   1   4   9  160.44   22.18
   1  -4   9  166.95   29.17
  -1  -4  -9  206.92   43.41
  -1   4  -9   92.99   42.83
  -2   4  -9  110.90   46.22
  -2  -4  -9  132.07   44.31
   2   4   9  108.57   28.73
   2  -4   9   68.45   24.70
   2  -4   9  130.15   25.74
   2   4   9  110.81   20.41
   3  -4   9  225.62   31.70
  -3  -4  -9  227.31   52.80
   3   4   9  169.98   37.67
  -3   4  -9  120.19   47.56
   3  -4   9  102.62   26.98
   4  -4   9   38.16   23.58
  -4   4  -9   35.39   39.29
   4   4   9   48.41   23.26
   4  -4   9   19.08   23.53
  -4  -4  -9   30.66   36.45
   5  -4   9  -69.11   23.14
   5   4   9   -3.30   30.22
  -5  -4  -9   23.59   38.94
  -5   4  -9   25.45   43.70
  -6   4  -9  -61.43   42.59
  -6  -4  -9   13.08   38.36
   6  -4   9   29.01   26.82
   6   4   9  -29.63   29.56
  -6  -5   9   24.22   32.18
  -6   5   9   51.39   39.13
   5  -5  -9   32.25   27.98
   5   5  -9    5.23   30.07
  -5  -5   9  -11.71   26.83
  -5   5   9   -9.29   28.52
   4   5  -9  114.28   34.59
   4   5  -9   35.97   25.79
   4  -5  -9   26.33   24.34
  -4  -5   9   41.05   31.54
  -4   5   9   45.33   29.70
  -3   5   9  135.22   28.88
   3   5  -9  109.21   36.02
  -3   5   9   60.00   25.87
   3  -5  -9  110.70   29.35
  -3  -5   9   95.39   28.24
   2   5  -9   40.93   30.41
   2  -5  -9   31.12   20.38
  -2  -5   9   31.99   20.37
  -2   5   9   67.51   22.20
  -2   5   9   60.41   23.44
   1  -5  -9  114.49   35.03
  -1   5   9  113.75   25.49
   1   5  -9   58.12   37.85
  -1   5   9   78.31   21.69
   1  -5  -9  102.54   25.09
  -1  -5   9   99.81   23.16
   0   5   9  370.79   34.49
   0  -5   9  287.03   36.15
   0  -5   9  295.93   26.93
   0  -5  -9  299.51   46.93
   0   5   9  291.76   32.77
   0   5  -9  208.51   49.35
   1   5   9    3.50   11.78
   1   5   9  -24.49   16.04
   1  -5   9  -37.06   14.45
   1  -5   9  -25.84   12.66
  -1  -5  -9    7.36   27.06
  -1   5  -9    1.76   41.87
   2  -5   9  786.19   51.03
  -2   5  -9  491.66   68.87
   2  -5   9  667.70   46.64
   3   5   9   66.20   28.49
  -3  -5  -9  125.91   40.68
  -3   5  -9   75.40   47.54
   3  -5   9  139.15   27.75
   4  -5   9   41.83   25.65
   4  -5   9  -11.86   19.19
   4   5   9  -13.97   17.56
  -4  -5  -9  -16.84   36.54
  -4   5  -9  -15.30   44.20
  -5  -5  -9   34.52   41.23
   5  -5   9   41.87   29.35
  -5   5  -9    5.79   29.92
   5   5   9    3.72   30.75
  -6  -5  -9  -24.94   38.19
   6   5   9   -1.24   32.87
   6  -5   9   41.63   31.62
  -6   5  -9   56.43   51.71
  -6   6   9   42.77   34.25
  -6  -6   9   24.43   34.63
   6   6  -9   82.94   34.37
   5   6  -9   57.15   28.23
  -5  -6   9   32.13   28.57
   5  -6  -9    0.72   21.64
  -5   6   9   57.49   29.81
   5   6  -9   26.95   30.92
   4  -6  -9   56.67   27.47
   4   6  -9   36.45   25.23
   4   6  -9   78.44   30.96
  -4   6   9   60.39   27.44
  -4  -6   9   59.84   30.84
   3  -6  -9   76.01   26.02
  -3  -6   9   75.58   28.59
   3   6  -9   -0.42   15.27
  -3   6   9  118.41   28.10
   3   6  -9   67.50   31.90
  -3   6   9   58.92   27.80
  -2  -6   9  262.53   37.26
  -2   6   9  286.44   40.41
   2   6  -9  295.52   47.76
   2  -6  -9  274.97   37.98
  -2   6   9  335.94   33.80
   1  -6  -9    2.77   30.03
  -1   6   9   -5.84   15.32
   1  -6  -9    3.06   19.89
   1   6  -9    3.09   32.83
  -1  -6   9   37.11   19.97
  -1   6   9   31.86   17.49
   0   6  -9   81.55   43.97
   0   6   9  158.89   29.15
   0  -6  -9  155.07   37.34
   0   6   9  113.54   23.29
   0  -6   9  111.15   26.42
   0  -6   9  109.05   21.95
  -1  -6  -9  164.70   38.73
   1  -6   9  186.74   29.13
   1  -6   9  148.42   31.17
   1   6   9  144.31   22.37
  -1   6  -9  127.90   49.65
   2  -6   9   76.55   23.42
   2  -6   9   65.76   23.33
   2   6   9   35.57   22.02
  -2   6  -9   18.55   40.14
  -2  -6  -9   17.87   28.20
   3  -6   9  139.60   29.22
  -3   6  -9   98.90   45.76
   3   6   9  158.71   34.18
  -3  -6  -9  153.66   42.19
   4  -6   9   97.00   28.74
  -4  -6  -9   53.01   35.40
   4   6   9   92.58   26.34
  -4   6  -9   87.67   47.59
   4  -6   9   81.65   29.35
   5  -6   9   17.83   28.60
   5   6   9   32.75   32.25
  -5  -6  -9  -18.28   37.30
  -5   6  -9  -91.39   25.80
   6   6   9   49.94   34.20
   6  -6   9  -14.38   25.26
  -6   6  -9   55.62   56.05
  -6  -6  -9  -62.39   37.25
   6   7  -9   75.41   33.43
  -6   7   9   44.66   37.35
  -6  -7   9   67.71   41.76
  -5   7   9   18.62   27.11
   5  -7  -9  -40.74   24.95
   5   7  -9  -21.99   30.06
  -5  -7   9   -9.88   23.72
   5   7  -9   33.35   28.97
   4   7  -9   96.31   35.66
   4  -7  -9   73.16   28.09
  -4  -7   9   32.97   25.09
  -4   7   9   83.07   31.49
   3  -7  -9  -11.09   20.16
  -3   7   9   14.86   26.10
  -3   7   9   -3.83   20.84
  -3  -7   9    4.11   21.02
   3   7  -9   23.11   30.81
  -2   7   9  247.88   39.61
  -2   7   9  337.23   33.93
   2  -7  -9  296.76   39.88
  -2  -7   9  243.55   37.41
   2   7  -9  269.86   46.57
  -1   7   9  484.62   38.32
  -1   7   9  448.15   38.75
   1  -7  -9  424.50   40.58
  -1  -7   9  432.97   41.20
   1   7  -9  376.72   54.23
   0   7  -9  334.70   57.28
   0  -7   9  396.66   28.93
   0   7   9  373.15   35.86
   0  -7   9  339.40   40.70
   0  -7  -9  324.84   44.51
   0   7   9  356.02   32.00
   1   7   9   53.69   15.87
   1  -7   9   70.80   22.36
   1  -7   9   94.28   22.98
   1   7   9   45.16   19.94
  -1   7  -9   98.25   46.08
  -1  -7  -9   97.55   32.97
  -2  -7  -9   48.48   30.30
   2  -7   9   43.34   21.21
  -2   7  -9   52.23   43.29
   2   7   9   37.11   20.96
   2  -7   9   78.09   23.75
   3   7   9  199.56   39.04
  -3  -7  -9  127.53   41.06
  -3   7  -9   69.83   47.37
   3  -7   9   80.39   25.03
   3  -7   9  129.14   28.02
  -4   7  -9   90.78   46.24
   4   7   9   22.63   23.38
   4  -7   9   24.65   22.97
   4  -7   9  -30.06   22.89
  -4  -7  -9  -25.56   30.52
   5  -7   9   24.03   29.62
   5  -7   9   32.67   28.11
  -5  -7  -9   22.50   36.60
   5   7   9  -25.37   26.34
   6   7   9   17.27   34.14
  -6  -7  -9   31.70   45.42
   6  -7   9   12.97   29.59
  -6   7  -9  -10.04   50.74
   6   8  -9   29.60   37.21
  -6   8   9    4.59   31.49
  -6  -8   9  -33.21   33.15
  -5   8   9   56.86   33.42
   5   8  -9   -3.51   27.06
   5  -8  -9   47.06   31.18
  -5  -8   9  -59.11   21.55
   5   8  -9   16.90   33.11
  -4   8   9   40.13   26.98
  -4  -8   9   24.42   24.30
  -4   8   9   95.38   30.63
   4   8  -9   75.31   33.94
   4  -8  -9   22.49   29.33
  -3   8   9  -15.18   21.61
  -3   8   9   38.47   22.40
   3   8  -9   21.43   27.00
   3  -8  -9   15.68   23.12
  -3  -8   9    3.66   20.75
  -2   8   9  451.93   39.82
  -2  -8   9  386.80   47.29
   2  -8  -9  416.31   47.95
  -2   8   9  428.33   49.38
   2   8  -9  425.62   55.34
   1  -8  -9   19.96   23.00
  -1   8   9   77.82   23.72
  -1  -8   9   55.89   22.74
  -1   8   9   26.69   19.42
   1   8  -9   -6.20   29.95
   0   8  -9   96.67   44.85
   0  -8   9  169.98   21.27
   0  -8   9  176.42   31.28
   0   8   9  179.35   33.32
   0  -8  -9  172.58   36.45
   0   8   9  186.41   26.51
   1  -8   9   -7.14   16.25
  -1   8  -9  -12.71   38.36
   1   8   9   37.58   19.74
   1  -8   9   16.80   18.47
  -1  -8  -9   46.03   27.70
   1   8   9   17.66   13.37
  -2   8  -9   49.82   44.10
  -2  -8  -9   44.86   30.36
   2   8   9   55.96   23.72
   2  -8   9   49.47   20.78
   2  -8   9   53.78   21.21
  -3  -8  -9  123.74   42.05
   3  -8   9  230.72   35.89
   3  -8   9  182.93   34.63
  -3   8  -9  167.67   52.82
   3   8   9  179.42   37.35
  -4   8  -9  183.41   49.22
   4  -8   9   66.83   28.74
   4   8   9   87.21   34.28
  -4  -8  -9  114.28   42.82
   4  -8   9   98.71   30.67
  -5   8  -9   85.22   50.50
   5  -8   9    5.34   23.17
   5  -8   9   44.75   30.38
  -5  -8  -9  -23.77   33.16
   5   8   9   22.97   29.27
   6  -8   9   35.18   29.15
  -6  -8  -9   35.39   37.82
  -6   8  -9   37.00   54.00
   6   8   9  -28.33   32.05
  -6   9   9  -27.98   30.07
   6   9  -9   25.60   40.12
  -6  -9   9  -48.37   30.57
   6   9  -9  -32.45   26.58
  -5  -9   9  -13.56   27.49
   5   9  -9   -2.98   35.53
  -5   9   9  -32.28   26.04
   4   9  -9   57.64   26.15
  -4   9   9   31.87   27.40
   4  -9  -9   14.05   27.53
  -4  -9   9   17.25   23.34
  -4   9   9   27.63   25.91
   4   9  -9   22.63   32.26
  -3   9   9   29.77   26.86
  -3   9   9    3.75   23.52
   3   9  -9   14.01   26.64
   3  -9  -9   43.26   25.31
  -3  -9   9   24.57   22.85
   2  -9  -9   11.65   20.18
   2   9  -9   -8.61   24.36
  -2   9   9   21.44   23.57
  -2   9   9   20.70   22.09
  -2  -9   9   27.25   20.59
   1   9  -9  210.05   45.13
   1  -9  -9  241.32   37.05
  -1  -9   9  239.08   36.16
  -1   9   9  275.39   36.12
  -1   9   9  256.62   37.82
   0  -9  -9  368.55   45.08
   0   9   9  389.37   32.42
   0   9  -9  307.44   55.09
   0  -9   9  286.53   39.77
   1   9   9   30.34   21.18
   1  -9   9   27.12   17.49
  -1  -9  -9   52.17   27.60
   1  -9   9   -9.73   18.13
  -1   9  -9   47.74   40.82
  -2   9  -9  217.64   55.52
  -2  -9  -9  215.48   46.39
   2  -9   9  246.19   34.37
   2  -9   9  248.17   37.89
   2   9   9  244.59   39.20
  -3   9  -9  -30.56   37.98
   3   9   9   -6.10   21.16
  -3  -9  -9   22.13   29.30
   3  -9   9   19.05   19.83
   3  -9   9   -7.62   19.50
  -4  -9  -9  -31.72   31.77
   4  -9   9   -3.15   22.71
   4   9   9   -5.30   24.38
   4  -9   9   18.17   27.96
  -4   9  -9  -57.33   23.70
   5  -9   9   17.04   28.21
  -5  -9  -9   20.04   39.60
   5   9   9   -1.69   26.07
  -5   9  -9  -42.22   46.28
   5  -9   9    1.67   26.56
  -6  -9  -9  -32.85   39.58
   6   9   9   82.24   40.19
   6  -9   9   71.09   28.39
  -6   9  -9  -14.09   49.52
  -6  10   9   37.88   38.54
  -6 -10   9  -16.45   28.93
   6  10  -9   34.11   42.63
  -5  10   9   79.84   38.06
   5  10  -9  127.60   43.74
  -5 -10   9   52.84   29.53
  -4  10   9   50.08   25.95
   4  10  -9   97.05   39.73
  -4  10   9   64.58   34.35
   4 -10  -9   67.85   34.39
  -4 -10   9    6.45   19.25
   3 -10  -9  131.57   34.40
  -3 -10   9  106.00   30.72
   3  10  -9  149.73   39.84
  -3  10   9  213.04   38.17
  -3  10   9  180.21   39.16
  -2  10   9   85.39   27.05
  -2 -10   9   85.87   25.90
  -2  10   9   66.97   28.16
   2  10  -9   89.63   34.37
   2 -10  -9  108.75   28.25
  -1  10   9   39.29   23.42
  -1 -10   9   21.91   18.90
   1 -10  -9   -3.82   20.20
   1  10  -9   -3.70   25.93
  -1  10   9   44.87   18.54
   0  10   9   10.08   13.47
   0  10   9  134.97   24.64
   0  10  -9   66.81   38.74
   0 -10  -9   42.16   28.15
   0 -10  -9   45.69   23.49
   0 -10   9   95.47   27.20
  -1  10  -9   10.41   38.63
   1  10   9   27.75   21.94
   1 -10   9   30.40   21.27
  -1 -10  -9   30.74   25.95
   1 -10   9   45.96   19.16
  -1 -10  -9   30.70   22.00
   2 -10   9   65.48   24.61
   2 -10   9   55.97   23.38
  -2  10  -9   75.71   50.35
   2  10   9   60.30   24.79
  -2 -10  -9   71.13   30.05
   3  10   9  111.59   32.96
   3 -10   9  214.25   36.61
  -3 -10  -9  114.12   40.08
   3 -10   9  151.78   32.42
  -3  10  -9  178.58   51.27
   4  10   9  153.07   39.93
  -4 -10  -9   91.67   39.65
   4 -10   9  182.11   39.17
   4 -10   9  174.38   35.57
  -5  10  -9   30.81   51.70
  -5 -10  -9  -43.36   31.81
   5 -10   9   13.52   29.13
   5  10   9   23.51   28.01
   5 -10   9   84.29   33.34
  -6 -11   9   16.64   30.58
  -6  11   9   38.23   36.96
   6  11  -9   38.02   45.76
  -5 -11   9    0.89   24.72
   5  11  -9  -13.84   38.97
  -5  11   9   36.38   33.68
   5  11  -9  -27.75   25.73
   4  11  -9   26.85   30.74
  -4 -11   9    4.72   18.76
  -4  11   9   75.75   33.24
  -4  11   9   82.59   31.89
   3 -11  -9   53.53   26.25
   3  11  -9   31.90   31.34
  -3  11   9   45.10   27.68
  -3 -11   9   27.79   24.55
  -3  11   9   29.41   26.30
  -2 -11   9   13.57   17.43
  -2  11   9   26.14   20.35
   2  11  -9  -28.88   25.74
  -2  11   9   27.77   23.50
   2 -11  -9   14.62   22.52
  -1 -11   9  165.98   33.00
   1  11  -9  119.97   38.10
   1 -11  -9  155.84   33.71
  -1  11   9  139.40   30.25
  -1  11   9  154.16   33.75
   0  11  -9  103.54   40.24
   0  11   9  162.62   26.82
   0  11   9  192.80   34.21
   0 -11  -9  171.71   36.64
   0 -11   9  133.06   30.46
   1 -11   9  223.32   37.57
  -1 -11  -9  240.90   41.07
   1 -11   9  218.53   29.74
  -1  11  -9  174.76   50.97
   1  11   9  251.23   40.02
   2 -11   9  100.92   27.41
   2 -11   9  120.51   29.49
   2  11   9  106.05   29.59
  -2  11  -9  132.11   50.31
  -2 -11  -9  137.09   40.15
  -3 -11  -9  159.20   41.68
   3 -11   9  164.14   33.90
   3  11   9  181.15   38.72
  -3  11  -9  240.12   55.77
   3 -11   9  195.83   35.15
   4  11   9   98.31   34.18
  -4 -11  -9   27.43   35.01
   4 -11   9   11.75   24.40
   4 -11   9   42.50   27.28
  -4  11  -9   25.86   47.11
   5 -11   9   48.49   24.69
   5 -11   9    8.21   29.44
  -5 -11  -9  -39.33   34.41
   5  11   9  -15.70   27.32
  -5  11  -9   40.19   51.26
  -6  12   9   31.36   37.05
   5  12  -9   70.12   43.01
  -5 -12   9   43.79   30.46
  -5  12   9   12.22   31.01
   4  12  -9   75.17   37.02
  -4  12   9   45.32   31.23
  -4  12   9   73.72   31.83
  -4 -12   9   14.59   22.36
  -3  12   9   12.84   26.80
   3  12  -9   28.14   26.66
  -3 -12   9   25.65   22.53
   3 -12  -9    9.60   24.77
  -3  12   9   28.53   24.74
   2 -12  -9   52.21   30.57
  -2  12   9   48.44   25.13
  -2 -12   9   41.90   19.57
   2  12  -9   61.56   30.17
  -2  12   9   15.85   26.40
  -1 -12   9  180.67   34.04
   1  12  -9  108.34   37.82
  -1  12   9  179.17   34.51
   1 -12  -9  125.06   35.71
   0  12  -9   41.36   34.56
   0 -12   9   45.78   23.76
   0  12   9   57.92   18.80
   0  12   9   48.73   25.16
   0 -12  -9    3.24   25.98
  -1 -12  -9  120.48   30.99
  -1  12  -9  180.00   50.05
   1 -12   9  138.98   25.33
   1 -12   9   75.73   26.98
   1  12   9  122.21   31.66
  -2 -12  -9   27.74   27.59
  -2  12  -9   10.11   40.21
   2 -12   9    2.01   18.69
   2  12   9  -37.94   16.21
   2 -12   9  -16.55   16.67
   3  12   9  125.96   33.53
   3 -12   9  127.97   30.79
  -3 -12  -9   95.91   38.89
  -3  12  -9   50.56   28.38
   3 -12   9  144.35   31.38
  -4 -12  -9   23.22   34.23
   4 -12   9   48.34   29.42
   4 -12   9   -5.85   20.59
   4  12   9   24.42   28.47
  -4  12  -9   49.41   47.04
  -5  12  -9    7.53   48.97
   5 -12   9   93.27   37.80
   5 -12   9  -55.83   21.79
  -5 -12  -9   68.60   51.05
   5  12   9  -29.74   28.56
  -5 -13   9   17.55   26.91
  -5  13   9   16.44   33.14
  -5  13   9    2.14   29.59
   5  13  -9   19.95   37.80
  -4 -13   9   86.58   26.75
  -4  13   9  100.44   38.87
  -4  13   9   90.12   35.75
   4  13  -9   26.53   33.84
  -3  13   9  154.14   40.85
   3  13  -9   96.09   35.86
   3 -13  -9  199.32   40.56
  -3 -13   9  124.99   30.12
  -3  13   9  240.95   43.20
   2  13  -9   54.56   32.73
  -2  13   9   44.86   30.85
  -2 -13   9   45.69   21.31
   2 -13  -9   90.71   31.26
  -2  13   9  102.23   29.53
   1 -13  -9   49.37   27.13
  -1  13   9   25.74   18.96
   1  13  -9   40.89   29.32
  -1 -13   9   57.52   24.13
  -1  13   9   67.54   26.31
   0 -13   9   11.97   17.04
   0  13   9   17.15   21.95
   0 -13  -9   29.58   24.15
   0  13  -9   17.98   30.10
   1  13   9   22.51   20.60
  -1 -13  -9   29.53   20.98
   1 -13   9    5.25   19.80
  -1  13  -9   11.85   36.83
   2  13   9   53.30   25.23
   2 -13   9   47.68   24.20
  -2  13  -9   14.17   39.83
  -2 -13  -9   25.75   27.37
   2 -13   9   22.87   18.68
   3  13   9   41.34   28.93
   3 -13   9   58.64   23.20
   3 -13   9   65.38   24.78
  -3 -13  -9   22.65   30.57
  -3  13  -9  -49.06   22.72
   4 -13   9   -9.26   18.57
  -4  13  -9   59.18   56.84
   4  13   9   49.47   33.01
  -4 -13  -9   63.44   42.16
  -4 -13  -9   66.12   38.50
   4 -13   9   48.52   28.18
   5  13   9   27.07   37.57
  -5 -13  -9   65.47   49.43
  -5 -13  -9   23.12   44.83
   5 -13   9   63.76   29.02
   5 -13   9   81.39   34.99
  -5  13  -9   70.62   52.22
  -5  14   9   69.12   38.89
   5  14  -9   34.24   42.38
  -5  14   9   12.19   33.60
  -5 -14   9    9.10   24.24
  -4  14   9   56.19   33.26
  -4 -14   9   35.04   25.18
  -4  14   9   20.87   32.69
   4  14  -9   27.27   37.66
   3  14  -9   25.87   34.31
  -3  14   9   60.52   33.59
  -3 -14   9    9.58   17.71
   3 -14  -9    5.72   25.52
  -3  14   9   25.91   31.06
  -2  14   9   71.99   30.29
  -2 -14   9   41.05   24.11
   2 -14  -9   31.58   27.92
   2  14  -9   24.43   28.99
  -2  14   9   45.04   28.87
   1  14  -9  117.97   36.19
  -1  14   9  136.61   33.00
  -1  14   9  179.44   31.54
   1 -14  -9   88.77   31.98
  -1 -14   9  134.01   32.64
   0  14  -9  181.23   43.46
   0  14   9  201.73   35.92
   0 -14   9  175.87   34.23
   0 -14  -9  174.84   38.87
  -1  14  -9  146.35   48.34
   1 -14   9  246.60   41.21
   1  14   9  233.17   38.63
  -2 -14  -9   19.98   29.99
  -2  14  -9   55.01   41.98
   2  14   9   60.86   27.37
   2 -14   9   60.20   25.11
  -3 -14  -9   27.93   33.79
  -3  14  -9   12.86   45.22
   3 -14   9   41.40   23.97
  -3 -14  -9   16.94   34.23
   3 -14   9   53.91   24.09
   3  14   9   34.06   27.94
  -4 -14  -9   46.79   42.63
   4  14   9   19.28   37.20
   4 -14   9   59.97   30.95
  -4 -14  -9   28.11   38.86
  -4  14  -9   58.10   55.96
   4 -14   9   24.41   23.13
  -5 -14  -9  -12.93   42.32
   5  14   9   44.52   37.12
  -5  14  -9   22.27   51.12
  -5 -14  -9   34.10   49.44
   5 -14   9  109.42   45.91
  -5 -15   9   -4.30   25.52
   5  15  -9   33.10   40.05
  -5  15   9   -5.80   32.82
  -5  15   9   90.37   41.04
  -4  15   9   46.65   29.59
   4  15  -9    9.86   35.94
  -4 -15   9   49.69   26.82
  -4  15   9   30.97   36.14
  -3  15   9  113.28   32.62
  -3  15   9  129.22   39.01
   3  15  -9  117.45   42.44
   2  15  -9   18.76   31.53
  -2  15   9   14.47   19.24
  -2  15   9   24.44   26.18
   2 -15  -9   76.95   31.27
  -2 -15   9   10.64   23.85
  -1 -15   9   31.54   22.75
  -1  15   9   29.22   22.16
   1  15  -9   54.80   29.90
   1 -15  -9   26.55   25.84
  -1  15   9   15.35   25.94
   0 -15   9   60.00   24.19
   0  15  -9   44.62   31.54
   0 -15  -9   36.56   27.36
   0  15   9   52.80   26.04
   1 -15   9   29.57   19.88
  -1  15  -9    4.23   35.31
   1  15   9   13.22   20.30
  -1 -15  -9    2.04   29.22
  -2 -15  -9   17.12   25.75
  -2  15  -9   55.45   23.87
   2  15   9    0.06   21.57
   2 -15   9   -7.80   15.73
  -2  15  -9   39.08   26.49
  -2 -15  -9   19.61   25.91
  -3 -15  -9  -31.93   30.91
   3  15   9   22.57   26.76
  -3 -15  -9  -30.86   28.63
   3 -15   9   19.66   21.55
  -3  15  -9   54.61   45.52
   4 -15   9   95.64   32.96
  -4 -15  -9  154.86   52.15
  -4  15  -9   84.99   48.79
  -4 -15  -9   80.72   50.16
   4  15   9  101.64   37.36
   5 -15   9   42.91   33.97
   5  15   9   22.31   38.22
  -5 -15  -9   21.88   47.44
  -5  15  -9    7.50   48.13
  -5 -15  -9   16.46   45.66
   5  16  -9  -15.56   38.87
  -5 -16   9   26.58   26.09
  -5  16   9   85.25   36.57
  -5  16   9   39.03   36.35
  -4  16   9   39.17   33.53
   4  16  -9   55.44   37.03
  -4 -16   9   49.43   29.86
  -4  16   9   92.93   35.71
  -3  16   9   39.29   30.92
  -3  16   9   45.85   30.30
  -3 -16   9   34.99   24.13
   3  16  -9   55.40   36.09
  -2  16   9   49.26   28.29
  -2 -16   9  -39.06   19.97
   2 -16  -9   32.28   31.87
  -2  16   9   57.00   27.51
   2  16  -9   27.27   30.68
   1  16  -9   37.25   29.43
  -1 -16   9   23.31   23.60
  -1  16   9   44.26   24.84
   1 -16  -9   62.51   33.94
  -1  16   9   13.14   25.42
   0  16  -9   23.64   28.80
   0 -16   9   59.29   26.31
   0 -16  -9   29.52   29.88
   0  16   9   66.29   29.81
   1 -16   9   28.48   20.57
  -1  16  -9   23.12   38.29
   1  16   9   21.91   25.37
  -1 -16  -9   43.67   32.58
   2 -16   9   -4.95   17.39
   2  16   9  -24.92   23.82
  -2  16  -9   74.59   27.69
  -2  16  -9   54.01   23.73
  -2 -16  -9    7.50   25.46
   3 -16   9   19.61   27.27
  -3 -16  -9   -3.25   39.12
   3  16   9   35.24   29.58
  -3  16  -9   41.65   44.00
  -3  16  -9  123.57   31.80
  -3 -16  -9   69.35   37.88
  -4 -16  -9    7.44   38.38
  -4  16  -9   59.89   51.80
   4  16   9   28.66   33.75
   4 -16   9  -14.71   25.37
  -4 -16  -9   23.24   41.15
  -5 -17   9    3.98   27.67
   4  17  -9   22.52   37.45
  -4  17   9   90.02   35.28
  -4 -17   9   93.05   32.77
  -4  17   9   42.48   34.50
  -3 -17   9   59.84   29.91
   3  17  -9   49.07   33.35
  -3  17   9    2.77   24.76
  -3  17   9  100.76   35.03
  -2  17   9   19.46   31.84
  -2 -17   9    6.70   22.66
   2  17  -9   12.22   31.53
  -2  17   9  110.70   31.72
   2 -17  -9   71.55   33.70
  -1  17   9   85.45   34.16
  -1 -17   9   51.99   24.39
   1 -17  -9   65.17   35.78
   1  17  -9   82.47   34.91
   0  17  -9    6.40   24.23
   0 -17  -9   -7.49   24.95
   0 -17   9   -0.25   22.67
   0  17   9   41.08   25.69
   1 -17   9    7.05   19.64
   1  17   9   14.05   24.36
  -1  17  -9   15.91   31.85
  -1 -17  -9   40.02   34.33
  -2  17  -9   30.97   36.04
   2  17   9   16.91   28.98
   2 -17   9   12.44   18.89
  -2 -17  -9   67.67   36.01
  -3  17  -9   99.69   31.75
  -3  17  -9   50.99   43.62
  -3 -17  -9   35.17   39.96
  -3 -17  -9   34.11   35.10
   3  17   9   32.86   30.43
   3 -17   9   60.39   25.86
  -4  17  -9   98.48   34.79
   4  17   9   60.65   39.24
   4 -17   9   45.76   30.05
  -4  17  -9   44.05   46.97
  -4 -17  -9   31.33   38.17
  -4 -17  -9   91.55   45.71
   4  18  -9    5.55   39.28
  -4  18   9   67.33   33.44
  -4 -18   9   70.42   30.91
  -4  18   9   42.93   35.50
  -3  18   9   65.05   28.31
   3 -18  -9   28.27   37.08
  -3 -18   9   13.95   26.94
   3  18  -9   33.21   40.36
  -3  18   9   48.88   32.14
  -2 -18   9   34.42   25.52
  -2  18   9   52.13   31.82
   2 -18  -9   91.79   39.03
  -2  18   9   92.13   30.60
   2  18  -9   98.15   39.46
  -1 -18   9   73.73   31.37
   1  18  -9   51.26   28.03
  -1  18   9   34.49   29.12
   1 -18  -9   23.11   29.35
   0  18  -9   46.83   26.49
   0 -18  -9   42.33   31.58
   0 -18   9   53.96   28.60
   0  18   9   29.35   26.34
  -1  18  -9   54.22   30.88
   1 -18   9   -3.50   19.56
   1  18   9    5.22   24.13
   2 -18   9   95.31   28.44
   2  18   9  115.44   36.05
  -2  18  -9  109.52   42.51
  -2 -18  -9  115.06   40.33
  -3  18  -9   90.00   31.93
   3  18   9   35.06   30.90
   3 -18   9   38.85   24.66
  -3 -18  -9   86.53   42.56
  -3 -18  -9   50.81   39.16
  -3  18  -9   54.69   42.42
  -4  18  -9   23.72   43.76
  -4 -18  -9   72.89   48.20
   4  18   9   27.18   34.80
   4 -18   9   -1.85   25.69
  -4  18  -9   91.68   34.98
  -4 -18  -9  -31.52   42.13
  -4  19   9  -18.84   31.00
  -4  19   9  -22.60   32.02
   4  19  -9   17.97   39.59
  -4 -19   9   42.90   29.70
  -3 -19   9   93.02   33.87
  -3  19   9   66.92   37.35
   3  19  -9  -29.15   30.80
  -3  19   9   77.66   35.22
   2  19  -9  -33.46   31.49
  -2 -19   9   19.86   20.75
  -2  19   9   51.72   28.64
  -2  19   9   31.90   31.49
  -1  19   9   69.22   32.03
   1 -19  -9   27.87   31.45
   1  19  -9   19.11   29.06
  -1 -19   9   -1.48   24.90
   0  19  -9   75.81   34.46
   0 -19   9    0.90   24.64
   0 -19  -9  -29.41   24.98
   0  19   9    2.98   25.87
   1  19   9   12.51   27.74
  -1  19  -9   61.28   21.64
   1 -19   9    9.75   22.89
   2 -19   9   10.91   21.17
   2  19   9   11.57   27.69
  -2  19  -9   14.62   35.72
   3  19   9   36.70   28.68
  -3  19  -9   92.17   45.92
   3 -19   9  -20.74   22.77
  -3  19  -9   -4.68   31.17
  -4 -19  -9  134.20   54.58
  -4 -19  -9  155.99   55.20
   4 -19   9   93.32   30.56
   4  19   9  109.96   45.04
  -4  19  -9  105.03   48.24
  -4  19  -9  116.65   50.34
  -4 -20   9   54.17   34.23
  -4  20   9   43.39   36.40
   4  20  -9   23.23   36.58
  -4  20   9   13.63   29.72
  -3  20   9   -2.09   36.62
  -3 -20   9   24.15   31.38
   3  20  -9   30.61   33.71
  -3  20   9   41.59   31.74
  -2 -20   9    8.30   24.10
   2 -20  -9  -16.64   31.05
   2  20  -9   46.33   33.97
  -2  20   9   40.16   36.23
  -1  20   9   -8.80   28.86
   1  20  -9    8.57   26.89
  -1 -20   9   35.68   30.13
   1 -20  -9   -1.94   26.65
   0 -20   9   41.09   26.93
   0  20  -9   24.56   27.07
   0  20   9   62.39   31.25
   0 -20  -9   -1.49   35.20
   1  20   9   20.81   28.95
   1 -20   9   -4.13   21.62
  -1  20  -9   39.27   23.35
   2 -20   9   21.31   22.00
   2  20   9   21.90   29.79
  -2 -20  -9   21.12   31.84
  -2  20  -9   97.50   40.13
   3 -20   9   49.39   29.05
   3  20   9   44.58   33.44
  -3  20  -9   50.44   39.57
   3  21  -9   29.61   33.62
  -3 -21   9   23.84   29.66
  -3  21   9   30.76   30.04
  -3  21   9   44.85   36.30
  -2  21   9   20.63   32.61
   2  21  -9   -3.66   31.22
  -2 -21   9   17.84   28.14
  -1 -21   9    6.57   29.00
  -1  21   9   49.80   31.29
   1  21  -9   17.51   31.30
   0  21   9   22.49   29.53
   0 -21   9  -18.84   24.74
   0  21  -9    6.79   29.43
   0 -21  -9  -20.90   32.32
  -1  21  -9   45.72   34.21
   1 -21   9   38.20   24.23
  -1 -21  -9   84.96   35.96
   1  21   9   53.27   31.97
   2  21   9   58.43   35.72
   2 -21   9   26.16   25.86
  -2  21  -9  133.75   43.28
   3 -21   9    6.34   22.16
   3  21   9   28.53   30.90
  -3  21  -9  157.78   44.57
  -3  22   9   63.78   38.93
  -3  22   9   43.72   36.03
  -3 -22   9    9.99   32.95
   3  22  -9   26.93   37.09
  -2 -22   9    8.49   28.49
  -2  22   9   13.57   32.88
   2  22  -9   31.36   35.98
  -1 -22   9   27.58   27.48
  -1  22   9   33.32   32.09
   1 -22  -9   13.77   34.17
   1  22  -9   -6.49   27.52
   0 -22   9   16.18   26.80
   0  22  -9   65.16   30.87
   0  22   9   44.51   30.77
   0 -22  -9    2.07   33.92
  -1  22  -9   47.51   36.11
   1 -22   9   -2.75   21.78
   1  22   9   17.57   31.68
   2 -22   9   12.23   27.57
  -2  22  -9   80.45   39.26
   2  22   9  -32.47   30.44
   2  23  -9   15.27   34.87
  -2  23   9    4.22   34.69
  -2 -23   9   40.14   35.31
  -1 -23   9   54.83   28.61
   1  23  -9   83.58   38.71
  -1  23   9   58.72   34.74
   1 -23  -9   -9.83   32.34
   0  23  -9   92.09   30.51
   0  23   9   57.02   34.10
   0 -23   9   15.19   30.53
   1  23   9   30.97   33.60
  -1 -23  -9   23.86   36.88
  -1  23  -9   95.85   35.66
   1 -23   9   57.25   31.57
   2  23   9  -13.83   32.55
   2 -23   9    6.71   22.94
  -2  23  -9   31.79   36.95
   1  24  -9  105.87   43.24
  -1  24   9   36.01   33.86
  -1 -24   9  -67.37   25.50
   0  24   9  -13.54   36.00
   0  24  -9   14.95   24.76
   0 -24   9   44.73   25.78
   1  24   9   31.63   34.67
  -1  24  -9  116.67   37.47
  -1 -24  -9   30.53   38.73
   1 -24   9   21.20   24.80
  -6   0  10  -50.29   33.18
  -5   0  10  -52.69   27.79
   5   0 -10    6.70   24.21
   4   0 -10   -2.23   23.38
  -4   0  10   30.00   26.62
   3   0 -10   22.38   24.18
  -3   0  10    6.05   19.40
   2   0 -10   27.45   25.81
  -2   0  10   12.52   21.22
  -1   0  10   83.34   21.45
  -1   0  10   35.28   18.82
   1   0 -10   34.40   38.34
   0   0 -10   63.49   42.18
   0   0  10   52.72   18.64
   0   0  10   49.04   20.99
   1   0  10  -10.80   14.98
  -1   0 -10  -12.48   41.31
   1   0  10   -3.26   17.38
  -2   0 -10   50.23   41.71
   2   0  10   19.90   20.87
   2   0  10   -0.57   19.72
   3   0  10   22.35   19.83
   3   0  10    3.80   24.01
  -3   0 -10   25.48   46.99
  -4   0 -10   31.46   45.91
   4   0  10   20.96   28.51
   5   0  10   46.89   29.19
  -5   0 -10   17.19   47.41
   6   0  10  108.68   32.43
  -6   0 -10   67.09   53.76
  -6  -1  10   42.59   39.44
  -6   1  10  100.88   42.20
   6  -1 -10  -33.95   24.05
  -5   1  10   68.65   33.94
   5  -1 -10   28.55   23.94
   5   1 -10   11.01   24.07
  -5  -1  10   41.59   34.59
   4  -1 -10    0.06   21.05
   4   1 -10   55.13   24.55
  -4  -1  10    8.71   23.34
  -4   1  10   22.53   25.93
   3  -1 -10   36.52   21.42
  -3  -1  10   -7.36   18.67
  -3   1  10   -1.01   21.37
   3   1 -10   27.37   21.47
   3   1 -10   63.92   27.97
   2   1 -10   39.62   27.30
   2  -1 -10   31.49   24.59
  -2  -1  10   18.87   19.86
  -2   1  10   50.31   22.03
  -1  -1  10   81.73   22.61
  -1   1  10  144.18   26.93
  -1  -1  10   83.16   20.92
   1  -1 -10   83.98   40.21
   1   1 -10  101.94   41.26
  -1   1  10   60.43   22.04
   0   1  10   29.59   19.88
   0  -1  10   41.17   18.80
   0  -1 -10   19.92   38.88
   0  -1  10   27.97   19.26
   0   1 -10   21.48   42.36
   0   1  10   51.79   19.50
   1   1  10   22.61   16.28
   1  -1  10    0.19   16.35
   1   1  10  -20.48   16.93
  -1   1 -10   -6.18   39.64
   1  -1  10    3.73   17.11
  -1  -1 -10   14.20   38.18
   2  -1  10   49.26   23.10
   2  -1  10   33.74   22.98
   2   1  10   54.73   23.63
  -2   1 -10   17.96   40.95
   2   1  10   61.73   24.40
  -2  -1 -10   35.93   42.33
  -3  -1 -10   30.54   40.02
   3  -1  10   19.05   20.23
   3   1  10   18.72   23.83
  -3   1 -10   47.46   45.52
   3  -1  10   19.95   21.13
  -4   1 -10    2.98   42.41
   4   1  10   22.10   28.38
  -4  -1 -10    0.76   40.76
   4  -1  10    8.51   27.55
  -5   1 -10  -24.05   43.67
  -5  -1 -10   45.89   47.63
   5   1  10    2.78   28.33
   5  -1  10   45.45   30.17
   6   1  10  -55.94   24.97
   6  -1  10   34.09   28.40
  -6  -1 -10  -65.19   48.68
  -6   1 -10  -73.69   45.87
  -6  -2  10   35.28   39.20
  -6   2  10   54.18   38.89
   6   2 -10  -11.22   31.17
  -5  -2  10   36.92   34.37
  -5   2  10   13.85   33.48
   5   2 -10   12.91   23.12
   4   2 -10   20.29   19.94
   4  -2 -10    7.67   22.94
  -4  -2  10   -1.24   24.37
  -4   2  10  -24.17   17.50
   3  -2 -10   29.71   20.63
  -3  -2  10   27.11   24.52
   3   2 -10   34.59   28.08
   3   2 -10   25.15   22.23
  -3   2  10   68.32   23.97
  -2  -2  10  117.40   25.18
  -2   2  10   88.72   24.76
   2   2 -10  117.60   34.49
   2  -2 -10   81.15   27.09
   2  -2 -10   93.11   26.34
  -2   2  10  101.42   23.03
  -1  -2  10  146.92   27.14
  -1   2  10  177.73   27.33
  -1   2  10  165.01   30.11
   1  -2 -10  158.14   42.49
   1   2 -10  141.63   44.82
   0   2  10  111.89   22.69
   0  -2  10  101.21   24.40
   0  -2  10   98.61   24.23
   0  -2 -10   96.57   42.65
   0   2 -10  147.00   47.21
   0   2  10  151.06   28.04
   1  -2  10   86.65   22.29
   1   2  10   51.49   18.74
   1   2  10   97.73   27.31
  -1  -2 -10  101.14   43.98
  -1   2 -10   26.90   42.72
   1  -2  10   63.22   22.44
   2  -2  10   38.07   21.95
   2   2  10   86.06   23.16
  -2   2 -10   10.69   41.07
  -2  -2 -10   62.32   43.43
   2   2  10    5.02   17.17
   2  -2  10   25.11   20.90
  -3   2 -10   25.91   43.36
   3   2  10   26.42   23.04
   3  -2  10   18.23   21.89
   3  -2  10   18.03   19.50
  -3  -2 -10   32.44   42.24
  -4  -2 -10   55.11   49.21
  -4   2 -10   14.45   43.29
   4  -2  10  -26.90   23.31
   4   2  10   21.63   26.86
   5   2  10    6.61   30.01
   5  -2  10   18.51   29.20
  -5   2 -10   39.85   47.60
  -5  -2 -10   26.15   48.25
   6  -2  10  -23.75   27.46
  -6  -2 -10  -41.32   48.68
  -6   2 -10  -69.12   44.16
   6   2  10   15.11   29.53
   6   3 -10    1.36   28.44
  -6   3  10  106.48   44.44
  -6  -3  10  -10.83   30.92
  -5   3  10   24.43   31.58
  -5  -3  10   47.61   36.41
   5  -3 -10  -24.96   23.15
   4   3 -10   46.05   23.98
   4   3 -10   56.36   30.82
   4  -3 -10   40.47   24.91
  -4  -3  10   27.51   29.03
  -4   3  10   64.24   29.57
  -3  -3  10   84.21   31.32
  -3   3  10   93.03   28.82
   3   3 -10   76.87   28.29
   3   3 -10   91.66   33.55
   3  -3 -10  105.38   29.53
  -2  -3  10   20.21   20.06
   2  -3 -10   24.38   19.87
   2  -3 -10   19.67   19.37
   2   3 -10  -12.30   23.94
  -2   3  10   29.07   19.32
  -2   3  10   26.65   19.42
  -1   3  10  158.44   28.21
   1   3 -10  117.34   42.57
  -1   3  10  136.78   27.42
   1  -3 -10  166.96   40.72
  -1  -3  10  119.49   26.68
   0   3 -10  144.33   45.95
   0   3  10  158.63   24.44
   0   3  10  167.03   29.07
   0  -3  10  201.76   29.40
   0  -3  10  141.45   27.95
   0  -3 -10  205.39   46.63
   1   3  10    4.01   19.88
   1  -3  10    7.32   17.24
  -1   3 -10   -1.96   38.96
  -1  -3 -10   49.39   39.40
   1   3  10   14.61   14.58
   1  -3  10   27.40   19.31
   2  -3  10  252.94   37.49
  -2  -3 -10  174.16   49.96
   2  -3  10  294.27   39.82
  -2   3 -10  174.12   55.63
   2   3  10  277.96   31.92
   3  -3  10  134.53   27.66
   3   3  10   67.26   26.86
  -3  -3 -10   64.09   44.10
  -3   3 -10  123.29   51.22
   3  -3  10    5.60   18.29
   4  -3  10  120.12   36.91
   4   3  10   67.84   28.20
  -4   3 -10   76.71   51.28
  -4  -3 -10   42.24   48.19
  -5   3 -10   73.91   49.73
   5   3  10   36.48   28.73
   5  -3  10   49.89   30.27
  -5  -3 -10    2.70   44.05
   6  -3  10    0.42   29.22
  -6  -3 -10  -25.54   48.44
  -6   3 -10   -5.62   48.75
   6   3  10  -29.49   31.93
  -6   4  10   -4.53   35.28
  -6  -4  10   10.26   34.12
   5   4 -10   43.57   29.01
  -5  -4  10   19.81   31.85
   5  -4 -10   22.02   24.79
  -5   4  10   20.12   31.18
   4   4 -10   29.17   24.00
   4   4 -10   31.36   28.01
   4  -4 -10   31.84   25.12
  -4  -4  10  -18.55   25.11
  -4   4  10   75.14   27.14
  -3  -4  10   48.45   29.09
   3  -4 -10   -8.36   19.90
   3   4 -10  -12.20   15.15
  -3   4  10   -6.91   19.72
   3   4 -10   13.34   27.58
  -2   4  10  117.87   26.23
  -2  -4  10  111.62   26.78
  -2   4  10   65.37   23.98
   2   4 -10   92.45   31.66
   1   4 -10  -23.19   31.66
   1  -4 -10    2.53   32.33
  -1   4  10    3.13   15.29
  -1   4  10    3.17   17.24
  -1  -4  10   42.86   19.70
   0  -4  10   26.78   19.92
   0   4 -10   27.12   37.64
   0  -4  10   76.65   21.24
   0  -4 -10   53.62   38.59
   0   4  10   49.65   21.58
   0   4  10   57.55   19.50
   1   4  10   55.74   18.19
  -1  -4 -10  102.22   41.41
  -1   4 -10   46.63   44.04
   1  -4  10   78.58   24.89
   1   4  10   73.38   27.07
   1  -4  10   83.99   23.60
   2  -4  10   13.36   23.09
   2   4  10   67.24   23.73
  -2   4 -10   -2.45   44.04
   2  -4  10    9.41   20.04
  -2  -4 -10   40.64   36.65
  -3   4 -10   58.44   51.23
  -3  -4 -10   63.04   43.98
   3   4  10  121.62   33.87
   3  -4  10  106.99   27.95
   4  -4  10   28.52   25.12
   4  -4  10   -1.43   22.86
   4   4  10   17.99   25.91
  -4   4 -10  -73.60   38.91
  -4  -4 -10   15.65   40.83
  -5  -4 -10    0.66   38.66
   5   4  10    3.13   26.33
  -5   4 -10  -47.35   48.34
   5  -4  10   52.39   29.92
  -6   4 -10   32.25   46.52
  -6  -4 -10  -12.82   45.91
   6   4  10    2.44   34.82
   6  -4  10  119.49   33.26
  -6   5  10    4.22   37.96
   6   5 -10   -4.97   25.86
  -6  -5  10   39.59   34.00
  -5  -5  10   59.65   37.16
   5  -5 -10   11.10   25.53
  -5   5  10   -7.90   28.88
   5   5 -10    4.90   26.93
  -4  -5  10   37.56   25.16
   4  -5 -10    3.31   26.61
   4   5 -10   35.89   23.72
   4   5 -10   70.44   32.73
  -4   5  10   48.29   28.93
   3   5 -10  196.58   42.62
  -3   5  10  116.32   30.10
  -3  -5  10   86.31   31.07
   3  -5 -10  170.77   35.03
  -2   5  10   55.52   23.02
  -2  -5  10   76.11   24.38
   2  -5 -10   58.51   25.00
  -2   5  10   25.58   20.40
   2   5 -10   33.12   27.69
   1  -5 -10   -1.70   31.01
  -1  -5  10   -5.57   18.65
  -1   5  10   16.10   17.17
  -1   5  10   24.72   18.78
   1   5 -10   71.50   38.37
   0  -5  10   20.39   20.08
   0   5  10   40.46   22.22
   0  -5  10   40.57   16.93
   0  -5 -10  -14.44   32.12
   0   5 -10    5.62   37.89
   0   5  10   21.99   16.34
  -1   5 -10  -19.77   43.90
   1  -5  10   20.14   20.21
   1   5  10   32.86   20.75
   1   5  10    8.59   13.29
  -1  -5 -10   -3.87   34.81
   1  -5  10   27.65   17.88
   2  -5  10  158.16   31.97
  -2  -5 -10  157.91   47.75
  -2   5 -10   74.42   47.25
   2   5  10  128.60   33.82
   2  -5  10  144.75   31.02
   3  -5  10   55.37   24.00
  -3   5 -10   32.33   46.81
   3   5  10   18.49   27.56
   3  -5  10   33.46   25.40
  -3  -5 -10   42.27   39.07
   4  -5  10  138.22   30.51
  -4  -5 -10   74.71   45.26
   4  -5  10  121.42   34.65
  -4   5 -10   64.33   49.69
   4   5  10   77.37   33.38
  -5  -5 -10   92.30   49.52
  -5   5 -10    5.85   47.80
   5  -5  10  158.62   39.85
   5   5  10  103.69   34.58
  -6   6  10   99.18   44.16
   6   6 -10    8.01   29.85
  -6  -6  10    9.81   30.25
   5   6 -10    0.60   26.70
  -5  -6  10   27.92   30.34
  -5   6  10   -7.48   29.86
  -4   6  10   30.82   26.93
   4   6 -10   11.68   30.48
  -4  -6  10    7.70   26.14
   4  -6 -10   15.17   25.16
  -3   6  10   40.42   25.73
  -3   6  10    9.96   22.08
   3   6 -10   22.13   30.11
  -3  -6  10  -20.15   22.03
   3  -6 -10    0.89   20.25
  -2   6  10   56.39   22.47
   2  -6 -10   36.37   21.81
   2   6 -10   55.35   30.37
  -2   6  10   51.28   22.45
  -2  -6  10   61.44   24.86
   1  -6 -10   51.77   32.94
  -1   6  10   49.66   18.95
   1   6 -10  113.42   42.16
  -1   6  10  101.06   26.89
  -1  -6  10   61.83   23.72
   0   6 -10    4.53   38.68
   0   6  10   -0.21   18.13
   0  -6  10   37.64   20.68
   0  -6  10   18.85   17.30
   0  -6 -10    2.25   32.71
   0   6  10   20.93   13.94
   1  -6  10   63.19   23.71
  -1  -6 -10    7.84   35.83
   1   6  10   32.15   15.59
  -1   6 -10   20.57   44.62
   1  -6  10   12.17   18.76
   1   6  10   43.93   23.01
   2   6  10   76.44   28.45
   2  -6  10   24.03   20.66
  -2   6 -10    6.56   43.46
   2  -6  10   15.99   21.43
  -2  -6 -10   30.21   37.95
   3   6  10   31.82   26.78
  -3   6 -10   55.92   48.01
   3  -6  10   43.76   24.69
   3  -6  10   78.00   28.19
  -3  -6 -10   26.12   37.65
   4  -6  10   72.84   28.03
   4   6  10  -19.59   22.71
  -4  -6 -10   52.04   42.58
   4  -6  10   49.03   28.40
  -4   6 -10   18.90   51.68
  -5   6 -10   41.00   50.07
   5   6  10  -19.81   28.05
   5  -6  10   -4.54   25.73
  -5  -6 -10   17.77   44.34
  -6   7  10  -11.16   32.56
  -6  -7  10   22.92   31.57
   5   7 -10   -3.26   25.64
  -5   7  10   -6.02   28.92
   5   7 -10  -11.77   35.29
  -5  -7  10   -3.13   28.81
   4  -7 -10   14.24   27.40
  -4   7  10   60.39   31.23
   4   7 -10   45.61   33.08
  -4  -7  10   -1.88   26.00
   3  -7 -10  194.04   37.97
  -3   7  10  130.03   37.34
  -3   7  10  199.96   35.20
   3   7 -10  156.28   42.07
  -3  -7  10  151.30   32.06
  -2   7  10   20.08   20.09
   2   7 -10   36.62   27.92
  -2   7  10    8.16   22.57
   2  -7 -10   11.94   19.59
  -2  -7  10   12.05   20.74
  -1   7  10   35.18   19.31
   1   7 -10    0.63   29.27
  -1   7  10   63.34   23.11
  -1  -7  10   17.86   21.83
   1  -7 -10   45.82   22.85
   0  -7 -10   87.09   35.27
   0   7  10   64.58   24.33
   0   7  10   58.90   17.47
   0   7 -10   62.45   38.14
   0  -7  10   11.95   19.67
   1  -7  10   33.50   23.31
  -1   7 -10   47.28   41.32
   1  -7  10   74.32   21.65
   1   7  10  -16.10   13.75
  -1  -7 -10   86.08   39.60
   1   7  10   43.54   16.83
   2  -7  10   76.87   24.83
  -2  -7 -10   35.68   34.24
   2  -7  10   52.76   24.94
   2   7  10    5.54   21.32
  -2   7 -10   -3.06   40.41
  -3   7 -10    3.83   44.10
   3  -7  10   20.47   21.35
   3  -7  10   16.56   22.89
   3   7  10   38.56   24.71
  -3  -7 -10   46.49   38.07
  -4   7 -10   42.39   53.54
   4  -7  10   43.31   26.23
   4   7  10   38.08   26.88
   4  -7  10   34.63   26.27
  -4  -7 -10   26.21   41.67
   5  -7  10   58.04   32.08
  -5   7 -10  169.39   56.09
  -5  -7 -10   65.62   43.26
   5   7  10   23.53   31.33
  -6   8  10  137.98   46.07
  -6  -8  10  -76.75   28.81
  -5  -8  10   26.50   29.38
  -5   8  10    1.14   31.51
   5  -8 -10  -21.90   26.56
   5   8 -10  -14.48   27.28
   5   8 -10  -19.75   37.32
  -4   8  10   57.37   31.53
   4   8 -10   63.35   38.76
   4  -8 -10   99.29   34.03
  -4  -8  10   65.51   31.14
  -3   8  10   -7.04   21.84
  -3  -8  10  -15.36   17.67
  -3   8  10   -1.23   24.82
   3  -8 -10   39.52   24.64
   3   8 -10    7.15   30.61
   2   8 -10   42.49   29.31
   2  -8 -10    9.06   22.50
  -2   8  10  -20.05   19.98
  -2  -8  10  -23.36   16.32
  -2   8  10  -19.40   20.09
  -1  -8  10  146.65   32.38
  -1   8  10   91.14   25.12
   1  -8 -10   85.29   31.64
  -1   8  10  147.18   30.97
   1   8 -10   48.77   34.93
   0   8  10   49.74   24.81
   0  -8 -10   58.16   33.27
   0   8  10   21.90   17.70
   0  -8  10   40.91   23.32
   0   8 -10   25.19   36.46
  -1   8 -10   81.52   45.15
   1  -8  10   88.78   28.07
   1  -8  10  126.48   24.64
  -1  -8 -10   86.94   29.86
   1   8  10   66.79   24.95
  -2  -8 -10   36.18   31.97
   2  -8  10   36.60   22.84
   2  -8  10   63.08   23.93
   2   8  10    5.47   19.90
  -2   8 -10   13.37   45.67
   3  -8  10  142.85   31.68
   3   8  10  157.96   34.19
  -3   8 -10   39.46   46.26
   3  -8  10  115.14   30.00
  -3  -8 -10  110.03   42.80
  -4   8 -10  -14.62   46.19
   4   8  10   -8.84   24.44
  -4  -8 -10   -1.70   34.92
   4  -8  10  -12.14   24.58
   4  -8  10  -34.34   22.95
  -5   8 -10   22.08   43.17
   5   8  10  -22.03   27.82
  -5  -8 -10  -52.81   37.34
   5  -8  10  -20.73   26.91
  -5   9  10   29.96   33.71
   5   9 -10   35.91   39.74
  -5  -9  10  -26.62   22.13
  -4  -9  10    0.05   25.40
   4   9 -10   76.84   38.49
  -4   9  10  118.33   39.15
   4   9 -10   65.34   26.93
   4  -9 -10   45.55   37.14
  -3   9  10  114.09   31.44
  -3  -9  10  106.88   31.64
   3  -9 -10   84.81   29.45
   3   9 -10  112.22   42.70
  -3   9  10   43.91   29.27
   2  -9 -10   51.31   25.79
   2   9 -10   37.43   29.35
  -2   9  10   33.85   22.87
  -2  -9  10   22.66   22.46
  -2   9  10   47.70   23.12
   1   9 -10  159.71   41.01
  -1   9  10  157.66   28.76
   1  -9 -10  184.32   38.43
  -1   9  10  202.61   35.84
  -1  -9  10  205.02   37.19
   0   9 -10   15.64   37.30
   0  -9  10   34.05   23.27
   0   9  10   18.15   21.92
   0   9  10   31.27   17.90
  -1   9 -10  112.42   45.12
   1  -9  10  167.46   26.62
   1   9  10  249.43   37.84
   1  -9  10  140.73   35.08
  -1  -9 -10  127.76   37.99
   2  -9  10    1.35   19.07
  -2   9 -10   -9.38   41.78
   2   9  10   51.32   26.48
   2  -9  10   14.10   21.76
  -2  -9 -10  -13.37   29.43
  -3  -9 -10   30.13   36.71
  -3   9 -10   38.61   48.53
   3  -9  10    1.53   22.88
   3  -9  10   25.49   22.49
   3   9  10   25.09   26.93
   4  -9  10   43.55   28.26
   4  -9  10   41.80   27.11
  -4  -9 -10    4.15   36.29
  -4   9 -10   31.54   48.71
   4   9  10   37.28   29.68
  -5  -9 -10  -30.03   38.00
   5  -9  10   67.74   33.29
   5  -9  10   24.11   31.45
   5   9  10   -4.67   24.85
  -5  10  10   70.27   32.81
   5  10 -10   74.13   44.05
  -5 -10  10  -41.42   21.99
  -4  10  10   46.88   28.44
   4  10 -10   -1.01   35.15
  -4 -10  10   13.32   23.48
  -3  10  10   33.49   28.01
  -3 -10  10   -1.41   24.13
   3 -10 -10   70.03   30.02
   3  10 -10   41.58   36.68
  -3  10  10  -12.65   25.42
  -2 -10  10    7.11   19.21
  -2  10  10   50.24   26.71
   2  10 -10   44.32   29.88
   2 -10 -10  -25.58   20.08
  -2  10  10   57.36   26.87
  -1  10  10   23.57   20.43
  -1 -10  10   14.62   21.26
  -1  10  10   22.19   22.43
   1 -10 -10   -7.65   20.44
   1  10 -10   -0.93   27.10
   0  10  10   11.27   17.93
   0 -10  10   52.92   23.24
   0 -10 -10   49.59   25.35
   0  10 -10   49.91   37.61
   0  10  10   30.20   17.16
   1 -10  10  156.34   34.11
   1 -10  10  209.94   29.70
   1  10  10  200.10   37.76
  -1  10 -10  110.00   46.38
  -1 -10 -10  172.52   41.04
   2 -10  10  102.24   28.58
   2 -10  10   53.93   26.55
   2  10  10   69.47   29.98
  -2 -10 -10   86.65   36.61
  -2  10 -10  192.28   55.07
  -3  10 -10    9.36   45.01
  -3 -10 -10   29.62   35.34
   3 -10  10   66.72   27.12
   3 -10  10   -2.03   24.89
   3  10  10   76.10   28.63
   4 -10  10   32.29   29.67
  -4 -10 -10   44.76   39.83
   4  10  10   -8.54   27.61
  -4  10 -10  113.43   49.73
   4 -10  10    8.30   21.81
   5 -10  10   44.80   32.57
  -5 -10 -10  -52.70   38.75
  -5  10 -10  -18.93   49.89
   5  10  10   13.95   30.40
   5 -10  10  -13.07   25.64
  -5 -11  10   -5.52   27.25
   5  11 -10   20.06   42.05
  -5  11  10   23.95   30.57
  -4  11  10  -10.31   31.56
   4  11 -10    8.57   35.65
  -4  11  10   50.35   33.18
  -4 -11  10   29.96   26.99
   3 -11 -10   84.91   31.30
   3  11 -10   39.15   37.37
  -3 -11  10   72.59   29.41
  -3  11  10  146.19   37.82
  -3  11  10   81.98   31.29
   2 -11 -10   42.34   25.67
   2  11 -10   33.52   28.86
  -2  11  10   -0.47   23.14
  -2  11  10   66.16   27.71
  -2 -11  10   23.98   20.62
   1  11 -10  -21.26   23.63
  -1 -11  10   -0.38   17.69
  -1  11  10   -6.61   21.91
  -1  11  10    7.99   20.01
   1 -11 -10    2.62   24.71
   0 -11  10   84.17   26.67
   0  11  10   14.95   17.90
   0  11 -10   73.40   37.76
   0  11  10   88.35   20.59
   0 -11 -10   94.20   28.30
   1  11  10   24.56   22.51
  -1 -11 -10   17.26   28.70
  -1  11 -10   66.67   44.87
   1 -11  10    5.14   21.37
   2 -11  10   26.00   20.82
   2 -11  10  -22.11   19.11
  -2 -11 -10  -31.79   26.68
   2  11  10   -7.28   21.30
  -2  11 -10   -4.94   41.30
  -3 -11 -10  -11.13   31.39
   3 -11  10  -13.25   21.89
   3  11  10   87.03   31.14
   3 -11  10  -19.26   21.27
  -3  11 -10  -26.52   47.10
   4  11  10   17.11   30.68
  -4 -11 -10  -35.68   34.55
   4 -11  10   12.74   31.15
   4 -11  10   -9.44   22.21
  -4  11 -10   71.02   36.17
   5 -11  10   85.41   35.49
  -5  11 -10  109.69   59.62
   5 -11  10   32.84   29.21
   5  11  10   79.65   36.68
  -5 -11 -10   67.28   47.66
  -5 -12  10  102.47   35.24
   5  12 -10   49.21   45.99
  -5  12  10   73.71   36.61
  -4  12  10   58.22   34.70
  -4  12  10  -22.92   30.30
  -4 -12  10   15.03   26.93
   4  12 -10   42.63   39.67
  -3  12  10   83.03   33.17
  -3  12  10   79.70   29.81
  -3 -12  10   51.51   27.89
   3 -12 -10   71.53   29.93
   3  12 -10    2.25   36.89
  -2  12  10  177.59   37.62
   2 -12 -10   98.32   34.88
  -2  12  10   92.81   33.06
   2  12 -10  115.41   37.09
  -2 -12  10   90.70   29.80
   1  12 -10   14.34   26.92
  -1  12  10   86.24   25.67
  -1  12  10   69.69   29.54
  -1 -12  10   66.60   26.71
   1 -12 -10   60.91   27.17
   0  12  10   89.66   29.79
   0 -12 -10  138.02   36.21
   0  12 -10   84.51   37.65
   0 -12  10   65.58   26.33
   1 -12  10   23.89   21.41
  -1  12 -10   72.91   44.98
   1  12  10   47.25   25.98
   2  12  10   36.75   23.76
  -2  12 -10   32.37   43.48
  -2 -12 -10   62.86   36.28
   2 -12  10   44.98   22.26
   2 -12  10   12.14   20.28
   3 -12  10   10.79   21.06
   3 -12  10   43.95   23.20
  -3 -12 -10   10.06   37.60
  -3  12 -10  -23.13   47.57
   3  12  10   29.75   27.85
  -4 -12 -10  -16.66   36.13
   4 -12  10   54.80   32.29
   4 -12  10   16.29   27.65
   4  12  10  -24.69   24.63
  -4  12 -10  -70.77   29.01
  -5 -12 -10  105.76   52.94
   5 -12  10  117.89   34.66
   5  12  10   65.37   34.62
   5 -12  10  108.86   38.57
  -5  12 -10  109.35   56.57
  -5 -13  10   33.72   28.35
  -5  13  10    9.24   30.71
   5  13 -10   39.43   44.28
  -4 -13  10    7.17   22.21
  -4  13  10   22.66   34.09
  -4  13  10   26.57   31.39
   4  13 -10   46.23   40.30
  -3  13  10  106.28   34.48
  -3  13  10  125.08   38.64
   3  13 -10  130.45   47.07
  -3 -13  10  130.40   33.73
  -2  13  10   42.11   25.84
  -2  13  10   21.88   27.45
  -2 -13  10   -0.06   20.80
   2 -13 -10   29.35   27.39
   2  13 -10   59.91   37.50
   1 -13 -10   50.26   28.28
   1  13 -10   30.71   27.35
  -1  13  10   22.10   22.99
  -1  13  10   11.22   20.67
  -1 -13  10   32.33   23.74
   0  13 -10   88.75   38.51
   0 -13 -10   89.63   33.72
   0  13  10   81.84   28.06
   0 -13  10   45.67   26.46
  -1  13 -10   33.86   37.78
   1  13  10   28.06   23.34
   1 -13  10   50.33   25.35
   2 -13  10   -1.11   23.89
  -2 -13 -10   21.04   30.55
   2  13  10   22.44   23.28
   2 -13  10   14.36   18.97
  -2  13 -10   49.00   42.55
   3 -13  10  -14.22   22.10
   3 -13  10   34.47   23.14
  -3 -13 -10   25.22   35.16
   3  13  10    9.67   25.18
  -3  13 -10   91.87   48.89
  -4  13 -10 -102.39   41.89
  -4 -13 -10   47.22   41.74
   4  13  10  -12.58   27.85
   4 -13  10   56.51   32.52
   4 -13  10    5.39   25.58
   5 -13  10   28.63   29.76
   5 -13  10   68.78   37.04
  -5 -13 -10   51.49   50.25
  -5  13 -10   26.72   53.99
   5  13  10   47.78   37.68
   5  14 -10  -10.58   43.20
  -5 -14  10  -30.11   24.91
  -5  14  10   -5.81   37.74
   4  14 -10   42.43   42.08
  -4 -14  10    9.54   20.35
  -4  14  10   75.01   37.64
  -4  14  10   30.31   32.33
  -3  14  10   53.08   33.56
  -3  14  10   13.27   32.37
  -3 -14  10   13.64   22.94
   3  14 -10   38.80   38.26
   3 -14 -10   40.94   33.00
   2 -14 -10  179.84   44.60
   2  14 -10  241.23   51.38
  -2  14  10  186.09   36.82
  -2 -14  10  174.72   40.03
  -2  14  10  175.34   39.91
  -1 -14  10    0.10   21.41
   1 -14 -10   13.27   28.26
   1  14 -10   38.49   32.42
  -1  14  10  -23.76   19.59
  -1  14  10   15.01   22.63
   0  14  10   28.23   25.75
   0 -14  10   41.78   23.09
   0  14 -10   35.11   31.12
   1 -14  10  116.91   30.95
   1  14  10   65.17   28.22
  -1  14 -10   83.67   41.43
   2 -14  10   55.57   26.00
  -2 -14 -10   51.51   32.11
   2  14  10   86.29   28.09
  -2  14 -10   68.93   49.05
  -3  14 -10  109.84   42.89
   3 -14  10   23.07   21.46
   3  14  10  -16.73   25.41
   3 -14  10   15.41   22.29
  -3 -14 -10    5.95   32.86
   4 -14  10   79.62   34.42
  -4  14 -10   44.29   56.84
  -4 -14 -10   26.62   40.81
   4  14  10   70.28   33.95
   4 -14  10   68.43   29.10
   4  15 -10   54.10   43.13
  -4  15  10   82.00   37.36
  -4  15  10  132.05   46.03
  -4 -15  10   -4.13   23.99
  -3 -15  10  137.15   34.18
   3 -15 -10   57.38   36.22
  -3  15  10  106.13   33.75
  -3  15  10  137.48   41.38
   3  15 -10   83.21   42.64
  -2  15  10  -12.35   23.56
   2 -15 -10    0.95   28.08
  -2  15  10   55.44   33.04
   2  15 -10  -16.11   28.28
  -2 -15  10   27.58   26.28
   1 -15 -10   -7.36   25.07
  -1  15  10   18.33   27.30
  -1 -15  10   36.04   23.24
   1  15 -10   48.83   33.61
   0  15 -10   54.74   30.57
   0 -15  10   60.67   29.38
   0  15  10   60.95   29.84
   0 -15 -10   71.74   28.57
   1 -15  10   23.88   23.35
  -1  15 -10   20.59   38.05
   1  15  10    6.69   22.57
  -1 -15 -10   45.57   32.02
  -2  15 -10   -9.06   39.98
   2  15  10    9.87   25.90
   2 -15  10   56.22   23.49
  -3 -15 -10   46.49   35.04
   3 -15  10   30.44   24.76
   3  15  10   31.07   26.21
  -3  15 -10   37.69   26.44
  -4 -15 -10   30.59   40.65
   4  15  10   -7.29   31.51
  -4  15 -10   -3.52   51.31
   4 -15  10   24.81   29.63
  -4  16  10   54.16   38.35
  -4  16  10   45.28   36.66
  -4 -16  10   40.61   27.85
   4  16 -10   -3.19   36.24
   3  16 -10   12.23   36.40
  -3  16  10   68.03   34.92
  -3  16  10   36.58   33.68
  -3 -16  10   12.69   26.23
  -2  16  10   13.57   22.63
   2  16 -10   91.69   40.41
  -2  16  10   64.42   32.69
  -2 -16  10  144.07   34.90
  -1 -16  10   20.84   25.33
   1 -16 -10   -3.73   26.10
   1  16 -10   23.60   24.24
  -1  16  10   60.89   30.27
   0  16 -10   72.45   29.64
   0 -16  10   20.45   23.22
   0  16  10  -10.04   21.79
   1  16  10   55.55   27.30
   1 -16  10   14.60   24.87
  -1  16 -10   68.86   40.25
  -2  16 -10   88.96   46.72
   2 -16  10   18.39   21.71
   2  16  10   41.53   29.29
   3  16  10    6.78   30.21
  -3  16 -10  -31.73   33.39
  -3 -16 -10   97.75   38.96
   3 -16  10   72.54   29.72
  -4  16 -10   44.53   50.13
  -4  16 -10  198.66   40.48
  -4 -16 -10  -25.28   38.62
   4  16  10   90.48   39.34
   4 -16  10   27.94   30.01
  -4  17  10  106.81   41.14
  -4 -17  10   95.04   33.76
  -4  17  10  120.68   40.45
   4  17 -10   45.91   39.58
   3  17 -10   98.09   40.71
  -3  17  10   68.42   41.50
  -3 -17  10   36.26   26.00
  -3  17  10   90.33   34.12
   2  17 -10   17.81   30.34
  -2  17  10   -3.78   25.49
  -2  17  10   45.00   28.88
   2 -17 -10    0.77   26.45
  -2 -17  10   21.51   25.25
   1  17 -10   35.27   29.06
  -1 -17  10   46.49   26.42
  -1  17  10  -16.06   26.61
   1 -17 -10   37.60   29.76
   0 -17  10  133.26   35.24
   0 -17 -10  153.56   41.19
   0  17 -10   83.97   32.85
   0  17  10  100.19   35.05
  -1  17 -10   35.55   36.43
   1 -17  10   -3.22   23.02
   1  17  10   28.88   26.69
   2 -17  10  -17.00   22.38
   2  17  10   28.06   30.09
  -2  17 -10   99.21   41.45
  -3  17 -10   85.28   31.05
  -3  17 -10   45.83   48.09
   3  17  10   12.29   30.01
   3 -17  10   12.96   24.04
   4 -17  10   -2.59   29.50
  -4  17 -10   40.05   45.34
  -4 -17 -10  -30.60   43.89
  -4  17 -10  152.69   38.31
   4  17  10   42.38   35.46
  -4 -18  10   47.00   32.72
   4  18 -10   22.22   43.64
  -4  18  10   82.58   39.34
  -4  18  10   68.07   41.84
  -3 -18  10   -6.13   24.55
   3  18 -10   -0.44   33.48
  -3  18  10   -3.90   33.16
  -3  18  10   51.16   33.09
  -2  18  10   72.64   33.42
  -2  18  10   69.78   35.05
   2  18 -10    3.58   33.24
  -2 -18  10   43.60   27.14
   1 -18 -10    4.28   29.01
  -1 -18  10    9.24   27.29
  -1  18  10   34.11   32.07
   1  18 -10   44.13   35.73
   0 -18  10   -7.95   23.76
   0  18 -10   37.49   28.00
   0  18  10   20.34   27.03
   0 -18 -10   37.33   27.89
   1  18  10   33.94   25.28
   1 -18  10   22.41   24.51
  -1  18 -10   40.49   34.89
   2  18  10   24.17   28.08
   2 -18  10   45.18   26.10
  -2  18 -10   53.42   26.32
   3  18  10    8.54   31.06
   3 -18  10  -25.84   23.11
  -3  18 -10   29.94   44.99
  -3  19  10   65.69   35.45
   3  19 -10    7.80   37.86
  -3 -19  10   -2.50   28.41
  -3  19  10  123.92   40.85
  -2  19  10   99.75   34.28
  -2 -19  10   -3.50   26.80
   2  19 -10    8.90   32.63
  -1  19  10   29.75   32.70
   1 -19 -10   32.55   33.10
  -1 -19  10   70.43   32.71
   1  19 -10   64.40   32.85
   0 -19  10   55.54   29.68
   0  19  10   49.09   30.22
   0 -19 -10   57.15   34.57
   0  19 -10   58.41   31.28
   1 -19  10   19.98   22.83
  -1  19 -10   61.03   33.05
   1  19  10   27.46   26.77
  -1 -19 -10   13.68   32.14
   2  19  10   27.40   31.89
  -2 -19 -10   54.31   38.71
   2 -19  10   52.95   27.54
  -2  19 -10   24.54   29.08
   3 -19  10   30.46   25.57
   3  19  10   15.33   35.45
  -3  19 -10   95.64   47.70
  -3 -20  10   39.56   33.08
  -3  20  10  -11.05   34.06
  -3  20  10   52.97   38.05
   3  20 -10    4.93   40.28
  -2  20  10  116.38   39.33
   2  20 -10   -4.83   38.74
  -2 -20  10   66.57   30.10
   1 -20 -10  -26.73   28.98
  -1  20  10   77.69   38.90
   1  20 -10   34.90   32.28
  -1 -20  10   26.78   29.04
   0 -20  10    3.20   25.23
   0 -20 -10   41.37   36.55
   0  20  10   49.49   32.16
   0  20 -10   19.83   29.34
   1  20  10   22.26   28.98
  -1 -20 -10   34.01   34.46
  -1  20 -10   31.05   31.03
   1 -20  10   13.81   24.05
   2  20  10   -7.88   31.46
  -2  20 -10  148.71   45.77
   2 -20  10    4.85   22.44
   3 -20  10  -33.87   21.95
   2  21 -10   13.28   37.92
  -2  21  10   58.25   34.51
  -2 -21  10   42.96   30.12
   1  21 -10   92.31   35.33
   1 -21 -10   24.81   32.73
  -1  21  10   57.13   35.43
  -1 -21  10   20.47   32.04
   0 -21 -10   38.28   35.17
   0  21 -10   57.31   35.39
   0  21  10   43.11   31.98
   0 -21  10   63.68   32.71
  -1  21 -10   96.98   28.28
  -1 -21 -10   -1.82   31.70
   1 -21  10  -13.19   23.01
   1  21  10    8.87   28.39
  -2  21 -10  138.45   41.95
   2 -21  10   26.97   25.70
   2  21  10  -37.21   29.36
   2  22 -10   67.13   43.46
  -2  22  10   92.39   39.82
  -2 -22  10  -23.90   25.80
  -1 -22  10   85.94   37.05
  -1  22  10   39.50   32.97
   1  22 -10    7.81   31.46
   0  22  10   57.67   34.32
   0 -22  10   39.05   28.13
   0  22 -10  143.49   42.08
  -1  22 -10   56.08   25.16
   1 -22  10   56.79   31.62
   1  22  10   47.98   35.77
  -1 -23  10   22.88   30.43
   0 -23  10   24.06   29.05
   0 -23 -10   -9.91   34.46
   0  23  10  -18.67   34.06
   0  23 -10   98.92   39.31
  -6   0  11   42.55   38.68
  -5   0  11   49.78   34.61
  -4   0  11   49.75   27.76
   3   0 -11   29.22   21.19
  -3   0  11   54.91   24.77
  -2   0  11  398.55   49.85
  -1   0  11  193.67   33.58
   1   0 -11  214.07   45.75
   0   0  11   10.78   20.57
   0   0 -11   69.24   43.78
   0   0  11   74.51   21.62
  -1   0 -11  350.33   57.92
   1   0  11  418.13   40.56
   1   0  11  377.73   36.86
  -2   0 -11   18.56   41.18
   2   0  11   31.71   21.86
   2   0  11   51.10   25.39
   3   0  11   55.98   28.61
  -3   0 -11   44.20   51.96
   4   0  11   -2.76   31.73
  -4   0 -11  -61.19   44.81
   5   0  11   50.78   33.15
  -5   0 -11   15.94   50.20
   6   1 -11  -14.08   30.51
  -6  -1  11   41.42   40.32
  -6   1  11  -18.98   29.41
   5   1 -11   26.40   26.98
  -5   1  11   20.46   33.38
  -5  -1  11   15.12   29.67
   4  -1 -11   37.99   27.00
  -4  -1  11   57.88   31.41
  -4   1  11   12.37   26.73
   3  -1 -11  154.73   32.65
  -3  -1  11  177.15   36.02
   3   1 -11   91.28   27.78
  -3   1  11  191.63   38.67
   2  -1 -11  138.30   30.37
  -2  -1  11  176.93   34.63
  -2   1  11  115.50   30.02
   2   1 -11  106.54   35.17
  -1  -1  11  110.66   25.04
   1  -1 -11   76.09   40.51
  -1   1  11  112.01   27.03
   1   1 -11   88.03   39.88
  -1   1  11  105.29   26.22
   0  -1  11  111.10   27.09
   0  -1 -11  132.73   47.48
   0   1  11  102.94   25.77
   0  -1  11   94.48   23.73
   0   1  11  149.41   26.77
   0   1 -11   71.50   42.36
   1   1  11   59.14   21.48
  -1  -1 -11   33.72   41.84
  -1   1 -11   47.65   44.29
   1  -1  11  166.64   32.26
   1   1  11  113.45   29.27
   1  -1  11   70.84   25.75
  -2  -1 -11  -20.36   43.00
  -2   1 -11   61.27   47.91
   2  -1  11   49.11   26.89
   2  -1  11  -24.21   20.50
   2   1  11   33.97   23.37
   2   1  11   33.98   25.52
   3   1  11  135.47   36.92
  -3   1 -11  176.53   57.85
  -3  -1 -11  141.84   58.52
   4  -1  11   21.38   30.61
  -4   1 -11   34.86   55.74
  -4  -1 -11   84.01   52.19
   4   1  11   -8.71   29.15
  -5   1 -11   -0.36   53.17
  -5  -1 -11   27.43   55.17
   5   1  11    4.85   33.78
   5  -1  11   11.44   28.84
  -6  -2  11   36.08   35.85
  -6   2  11   48.60   42.01
  -5   2  11   34.06   37.27
  -5  -2  11   67.55   36.85
   5  -2 -11   35.06   31.03
   5   2 -11   49.80   31.38
  -4   2  11   84.46   32.71
   4  -2 -11   73.36   30.98
  -4  -2  11  139.76   42.06
  -3  -2  11   34.29   22.68
   3   2 -11   16.07   20.89
  -3   2  11   37.52   22.83
   3   2 -11   49.30   30.55
  -2   2  11   72.27   29.49
  -2  -2  11   97.37   27.36
   2   2 -11  100.47   34.13
   1  -2 -11   67.75   36.42
  -1  -2  11   -0.28   17.63
  -1   2  11   35.11   21.20
  -1   2  11   95.15   23.90
   1   2 -11   45.77   36.92
   0   2 -11   16.94   40.01
   0  -2  11    3.53   21.79
   0   2  11   39.87   18.90
   0  -2  11    6.90   17.92
   0   2  11   51.18   24.93
   0  -2 -11   58.31   41.33
   1   2  11  253.50   38.14
  -1   2 -11  132.35   51.34
  -1  -2 -11  181.03   54.64
   1   2  11  199.40   29.83
   1  -2  11  175.78   32.33
   1  -2  11  271.83   38.33
  -2  -2 -11  105.89   49.78
   2   2  11   86.12   33.27
   2  -2  11   70.77   28.13
   2   2  11  132.45   28.75
   2  -2  11  122.28   31.34
  -2   2 -11  103.82   52.35
  -3  -2 -11  122.86   56.87
   3  -2  11   92.31   27.00
  -3   2 -11   10.99   48.40
   3   2  11  129.00   33.28
   4   2  11    2.70   29.22
   4  -2  11    3.10   28.42
  -4  -2 -11  -19.70   46.48
  -4   2 -11  -57.01   45.22
   5   2  11  -16.38   28.98
   5  -2  11   24.98   28.64
  -5  -2 -11  -32.86   46.03
  -5   2 -11  -40.08   51.90
   5  -3 -11  -29.32   23.43
  -5  -3  11   20.07   30.71
  -5   3  11    5.75   31.85
   4   3 -11   68.65   27.92
  -4   3  11   49.76   32.32
  -4  -3  11   15.21   27.94
   4  -3 -11   17.40   22.98
  -3  -3  11   93.87   28.91
   3   3 -11  111.28   37.79
  -3   3  11   78.26   31.03
   3  -3 -11   71.55   27.31
  -2   3  11   49.91   24.97
  -2  -3  11   44.49   20.85
   2   3 -11   73.18   29.81
  -1   3  11  104.27   26.52
  -1   3  11  106.24   25.78
   1   3 -11   29.56   36.63
   1  -3 -11   84.41   37.96
  -1  -3  11   62.72   24.77
   0  -3  11  113.62   25.04
   0  -3  11   44.85   20.87
   0  -3 -11   69.29   41.22
   0   3  11   53.89   23.87
   0   3  11   96.86   23.38
   0   3 -11   64.14   41.80
   1   3  11  123.08   31.27
   1  -3  11  127.49   31.03
  -1   3 -11  159.79   51.11
  -1  -3 -11  108.16   45.82
   1  -3  11   98.14   28.69
   1   3  11   90.51   22.96
  -2   3 -11   92.78   55.32
  -2  -3 -11   71.59   47.15
   2  -3  11  121.48   30.91
   2  -3  11  161.01   33.24
   3   3  11   16.55   26.73
   3  -3  11   62.31   27.23
   3  -3  11   59.56   26.35
  -3   3 -11   47.77   49.89
  -3  -3 -11   18.02   45.57
   4   3  11  -18.41   29.76
  -4  -3 -11    7.15   47.92
  -4   3 -11   13.41   49.47
   4  -3  11  -62.25   24.06
  -5   3 -11   63.85   53.56
   5  -3  11    6.93   27.57
  -5  -3 -11  -30.51   48.23
   5   3  11  -65.07   27.43
   5   4 -11  110.97   34.76
  -5   4  11  -14.02   28.32
   5  -4 -11   53.35   30.22
  -5  -4  11   26.10   33.62
  -4   4  11   85.60   32.91
   4  -4 -11   80.08   31.73
  -4  -4  11  133.53   41.25
   3   4 -11   41.23   31.54
  -3   4  11   47.94   26.64
  -3  -4  11   26.21   22.75
   3  -4 -11    3.25   23.43
   2   4 -11  142.23   36.85
  -2   4  11   77.45   27.16
  -2  -4  11  122.76   30.57
   1   4 -11   69.93   37.65
  -1   4  11  161.35   30.28
  -1  -4  11   84.16   26.93
  -1   4  11   94.79   24.06
   1  -4 -11  133.16   39.70
   0   4  11   79.12   26.12
   0  -4  11   87.03   28.47
   0   4  11   87.63   20.98
   0   4 -11    8.27   38.42
   0  -4 -11   81.74   41.55
  -1  -4 -11   31.17   45.47
   1   4  11   74.34   20.94
  -1   4 -11   83.38   49.16
   1  -4  11   86.70   25.67
   1  -4  11   72.97   24.71
   1   4  11  113.67   30.37
  -2   4 -11  -31.79   40.44
  -2  -4 -11    9.90   40.82
   2  -4  11   55.14   27.59
   2   4  11  -14.20   18.65
   2  -4  11   73.58   30.14
   3  -4  11    1.88   24.35
   3  -4  11   41.23   24.81
   3   4  11   90.05   31.23
  -3   4 -11    4.07   48.10
  -3  -4 -11   99.18   49.77
   4  -4  11   19.52   26.23
  -4  -4 -11   -1.05   46.68
   4   4  11   -0.80   26.44
  -4   4 -11   -6.66   52.03
  -5   4 -11  -22.68   46.95
   5   4  11   -4.00   32.72
   5  -4  11   27.46   32.79
  -5  -4 -11    9.38   46.96
  -5  -5  11   18.73   34.08
  -5   5  11  -18.31   28.07
   4   5 -11    8.28   32.66
  -4   5  11   29.71   32.66
  -4  -5  11   27.78   27.95
  -3   5  11   73.63   30.84
   3   5 -11  155.79   41.29
   3  -5 -11  121.78   30.19
  -3  -5  11   87.44   31.40
   2  -5 -11    1.04   21.13
  -2  -5  11   71.41   26.89
  -2   5  11   -6.51   20.19
  -2   5  11   31.65   22.12
   2   5 -11   11.40   29.93
  -1   5  11  155.83   30.13
  -1   5  11  178.84   30.68
   1   5 -11  141.08   39.22
  -1  -5  11  157.23   33.72
   0   5  11  224.55   31.71
   0  -5  11  226.65   36.26
   0  -5 -11  200.60   47.42
   0   5 -11  189.46   51.23
   0   5  11  294.89   39.91
   1   5  11   67.89   20.02
  -1   5 -11   83.42   47.14
   1  -5  11   78.53   28.35
  -1  -5 -11   53.05   43.92
   1  -5  11  128.89   29.09
   1   5  11  109.43   30.48
  -2   5 -11   63.96   48.66
   2   5  11   94.62   27.41
   2  -5  11   43.88   23.74
   2  -5  11   84.65   27.20
  -2  -5 -11   69.14   46.58
   3  -5  11  224.20   38.95
  -3   5 -11  136.94   62.88
   3  -5  11  207.73   40.24
  -3  -5 -11   58.37   47.11
   3   5  11  132.86   39.38
  -4   5 -11   -6.73   53.26
  -4  -5 -11  -21.39   47.52
   4   5  11   37.31   27.34
   4  -5  11   64.72   32.28
   5   5  11  -14.24   27.63
  -5   5 -11  -17.30   48.76
   5  -5  11    9.60   32.81
  -5  -5 -11   32.72   51.87
  -5   6  11  -13.20   27.36
  -5  -6  11   -7.67   28.47
  -4   6  11    8.34   25.08
  -4  -6  11    4.09   27.62
   4   6 -11   30.14   35.12
   4  -6 -11   19.52   25.30
  -3   6  11   14.46   25.05
   3  -6 -11   15.92   28.54
  -3  -6  11   10.15   22.88
   3   6 -11   54.17   36.00
  -2   6  11  157.50   32.49
   2   6 -11  132.58   36.81
  -2  -6  11  129.59   29.95
  -2   6  11  144.05   30.06
  -1  -6  11  119.12   32.13
  -1   6  11  116.57   26.17
  -1   6  11  167.11   33.04
   1   6 -11   92.66   40.49
   0   6 -11   89.10   43.39
   0  -6  11   35.49   20.60
   0   6  11   39.51   24.12
   0  -6 -11   -8.54   37.37
   0   6  11   33.75   19.23
   1   6  11  147.42   24.50
  -1   6 -11  132.22   53.12
   1  -6  11  188.00   30.37
   1  -6  11  122.23   31.42
   1   6  11  211.81   36.40
  -1  -6 -11  143.90   47.05
   2   6  11   86.07   29.20
   2  -6  11   64.10   27.01
  -2   6 -11   74.01   51.11
  -2  -6 -11   54.29   40.47
   3  -6  11   17.57   24.50
  -3   6 -11  -86.75   40.51
   3   6  11   30.30   29.72
   3  -6  11   69.57   24.60
  -3  -6 -11   20.13   38.65
  -4  -6 -11   71.25   48.72
   4  -6  11  103.85   42.13
   4   6  11   21.75   24.80
  -4   6 -11   30.61   53.10
   4  -6  11   87.26   29.88
  -5  -6 -11    5.35   51.60
   5  -6  11   -5.34   29.31
  -5   6 -11  -60.62   50.44
   5   6  11    8.21   31.14
   5  -7 -11  -39.95   26.75
  -5  -7  11  -31.50   33.57
  -5   7  11   12.25   30.09
  -4   7  11   60.49   32.76
  -4  -7  11  -17.15   29.45
   4  -7 -11   57.77   32.08
   4   7 -11   74.20   36.79
   3   7 -11   61.76   35.67
   3  -7 -11   43.49   28.53
  -3  -7  11   -8.83   21.17
  -3   7  11   -5.58   23.48
  -2   7  11   29.14   22.06
  -2  -7  11   50.47   26.46
  -2   7  11    9.51   22.30
   2   7 -11   54.97   34.99
  -1  -7  11   82.05   26.01
   1   7 -11   29.91   32.28
  -1   7  11   26.84   20.05
  -1   7  11   43.72   24.03
   0   7  11  132.42   32.34
   0   7 -11  109.75   43.49
   0  -7  11  128.65   32.03
   0   7  11  110.21   24.66
   0  -7 -11   99.45   40.37
  -1   7 -11  144.35   51.76
   1   7  11  179.63   37.67
   1  -7  11  236.86   30.14
   1  -7  11  186.65   36.08
  -1  -7 -11  194.46   48.67
   2   7  11  173.62   37.52
   2  -7  11  195.12   39.18
  -2  -7 -11  229.93   54.46
  -2   7 -11  158.19   56.81
   2  -7  11  224.08   36.16
   3  -7  11   16.44   25.03
  -3  -7 -11   -0.01   38.41
   3  -7  11   23.46   26.26
   3   7  11   19.20   29.68
  -3   7 -11   -9.98   43.43
   4  -7  11  -17.84   25.44
  -4  -7 -11   48.00   46.53
   4   7  11  -17.61   24.54
  -4   7 -11  -17.22   48.32
   4  -7  11  -12.01   23.08
   5   7  11   11.62   31.88
   5  -7  11   33.42   31.90
  -5  -7 -11   11.40   48.19
  -5   7 -11   -3.94   54.78
  -5  -8  11  -46.75   28.09
  -5   8  11   16.02   32.67
  -4   8  11   26.65   31.74
   4   8 -11   86.46   40.29
  -4  -8  11   -4.10   27.57
   4  -8 -11   19.39   28.72
   3   8 -11   21.67   36.50
  -3  -8  11    5.63   21.46
  -3   8  11  -16.98   21.75
   3  -8 -11   18.87   25.41
  -2  -8  11  115.43   34.01
   2  -8 -11   84.48   28.59
  -2   8  11  128.28   30.72
   2   8 -11  107.17   37.34
  -2   8  11  121.01   31.04
   1  -8 -11  200.85   39.01
  -1  -8  11  186.33   34.53
  -1   8  11  203.63   36.93
  -1   8  11  187.19   32.01
   1   8 -11  220.22   48.56
   0  -8  11   13.21   24.56
   0   8  11   48.35   18.34
   0   8 -11  -13.89   33.25
   0   8  11   44.33   22.63
  -1   8 -11   35.45   41.87
  -1  -8 -11   -0.92   36.04
   1   8  11  -22.96   17.55
   1  -8  11    7.38   22.84
  -2   8 -11   22.22   49.17
   2   8  11   28.22   26.37
   2  -8  11   62.33   26.19
   2  -8  11   17.32   21.92
  -2  -8 -11  -42.63   37.55
   3  -8  11  -60.52   20.35
  -3  -8 -11  -11.19   42.44
  -3   8 -11  -10.30   44.14
   3  -8  11  -63.46   20.62
   3   8  11   62.65   30.19
   4  -8  11   -4.35   23.20
   4   8  11    5.88   25.08
  -4  -8 -11   29.42   45.61
   4  -8  11   36.10   28.33
  -4   8 -11  -20.97   50.24
   5  -8  11  -54.31   27.33
   5   8  11    4.65   27.64
  -5   8 -11    0.02   53.66
  -5  -8 -11   34.26   51.20
   5  -9 -11   24.94   29.92
  -5  -9  11  -20.42   28.51
   5   9 -11   44.86   46.46
  -5   9  11   13.61   32.13
  -4  -9  11   -7.28   26.90
   4   9 -11   -0.46   37.92
  -4   9  11    4.67   26.88
   4  -9 -11    8.96   31.23
   3   9 -11   77.63   40.15
  -3   9  11  116.75   37.07
   3  -9 -11  103.97   34.51
  -3  -9  11   56.92   29.27
  -3   9  11  135.04   35.39
  -2   9  11   20.15   20.61
  -2   9  11   44.21   26.43
  -2  -9  11   22.25   22.36
   2   9 -11   74.23   35.88
   2  -9 -11  -16.52   21.75
  -1   9  11   76.07   28.75
   1   9 -11   88.88   40.08
   1  -9 -11  122.22   34.68
  -1   9  11   37.64   23.30
  -1  -9  11   77.15   28.70
   0   9  11   49.75   19.76
   0   9 -11   64.61   42.73
   0  -9  11   31.03   23.59
   0   9  11   63.47   25.70
   1   9  11   -1.69   20.11
  -1  -9 -11   17.42   40.09
  -1   9 -11  -23.49   39.88
   1  -9  11  -24.82   21.49
   2  -9  11   97.03   26.38
   2  -9  11  113.67   31.46
  -2   9 -11  141.16   58.92
   2   9  11   52.07   27.27
  -2  -9 -11   76.41   43.23
   3  -9  11   12.10   26.59
  -3   9 -11   26.43   48.44
  -3  -9 -11  -22.06   40.83
   3  -9  11   26.45   25.83
   3   9  11   -6.43   26.04
   4   9  11   15.29   29.02
   4  -9  11  -51.36   23.90
  -4   9 -11   19.78   50.77
   4  -9  11   17.00   28.98
  -4  -9 -11   57.28   51.70
   5   9  11   19.08   34.49
   5  -9  11   51.61   33.34
  -5   9 -11    7.00   50.10
  -5  -9 -11   -5.03   47.98
   5 -10 -11   29.26   36.54
  -5 -10  11  -37.55   27.83
  -5  10  11  -35.23   34.61
   5  10 -11    9.35   43.75
  -4 -10  11   13.23   29.14
   4  10 -11   26.09   37.73
  -4  10  11   41.42   31.38
   4 -10 -11  -65.90   29.31
   3 -10 -11   15.87   24.59
   3  10 -11  -51.86   30.12
  -3  10  11   30.64   27.91
  -3  10  11   -3.02   28.17
  -3 -10  11   -9.06   22.43
   2 -10 -11   56.56   29.59
  -2 -10  11   30.59   23.18
  -2  10  11  134.85   35.89
  -2  10  11   51.33   29.67
   2  10 -11   56.01   31.88
  -1  10  11   61.28   25.82
   1 -10 -11  100.02   29.08
   1  10 -11   78.89   30.48
  -1 -10  11  108.03   33.15
  -1  10  11   88.86   29.67
   0  10  11   50.23   26.00
   0  10 -11   38.30   36.10
   0 -10  11   19.36   22.11
  -1  10 -11   44.08   42.07
   1  10  11  152.52   30.65
   1 -10  11   89.38   30.07
  -1 -10 -11  100.24   41.96
   2 -10  11   47.12   24.72
   2  10  11   64.03   29.41
   2 -10  11   55.80   29.42
  -2  10 -11   65.74   49.45
  -2 -10 -11   51.26   35.70
  -3  10 -11  -28.18   45.12
   3 -10  11    7.63   26.74
  -3 -10 -11   45.32   41.55
   3 -10  11  -18.23   24.38
   3  10  11  -30.62   25.98
  -4 -10 -11   34.79   46.84
   4 -10  11   54.82   32.86
  -4  10 -11   43.12   56.17
   4  10  11   63.37   33.28
   4 -10  11   82.63   34.02
  -5 -10 -11   41.47   51.15
   5 -10  11   90.93   36.02
  -5 -11  11   44.28   33.72
   5  11 -11  104.84   50.84
  -5  11  11   99.85   45.74
   4 -11 -11  -45.57   29.91
   4  11 -11    7.42   38.37
  -4  11  11   55.61   38.67
  -4 -11  11   -0.26   26.47
   3  11 -11   25.59   42.15
  -3 -11  11  -15.90   22.17
  -3  11  11  -12.35   29.85
  -3  11  11   79.40   35.06
   2  11 -11   38.60   34.23
  -2  11  11   23.65   26.49
  -2  11  11   55.50   30.49
   2 -11 -11   15.40   23.89
  -2 -11  11   21.44   21.96
   1 -11 -11   55.81   26.51
  -1  11  11  -14.40   23.15
  -1  11  11   50.63   22.78
   1  11 -11   49.92   32.50
  -1 -11  11   25.08   27.97
   0 -11 -11  195.35   39.87
   0  11 -11  132.69   46.68
   0 -11  11  149.71   34.56
   0  11  11   79.68   27.23
  -1  11 -11   25.00   41.99
   1  11  11   24.13   26.87
   1 -11  11  -15.25   21.89
  -2 -11 -11   48.99   38.21
   2 -11  11  -24.45   21.75
  -2  11 -11   18.19   44.29
   2 -11  11   42.32   23.42
   2  11  11   66.10   30.65
  -3  11 -11   28.11   52.27
   3 -11  11   50.02   27.74
  -3 -11 -11   69.13   43.91
   3  11  11    5.72   28.16
   3 -11  11   25.19   25.43
   4 -11  11    9.28   30.35
  -4  11 -11  -77.45   50.53
   4 -11  11   23.32   31.54
  -4 -11 -11   -8.30   45.01
   4  11  11   15.60   27.68
  -5 -12  11  -14.22   25.85
   5  12 -11  -29.08   48.75
  -5  12  11   13.89   37.97
  -4  12  11  116.47   41.66
   4  12 -11  140.00   50.04
   4 -12 -11  151.23   41.32
  -4 -12  11  122.00   37.94
   3  12 -11    7.49   34.01
  -3 -12  11    0.98   24.73
  -3  12  11   17.85   27.52
  -3  12  11  -21.75   28.51
  -2 -12  11   47.95   27.77
  -2  12  11   -1.32   28.31
   2  12 -11   10.58   32.21
  -2  12  11   39.34   28.52
   2 -12 -11   29.38   26.96
  -1 -12  11   53.48   28.05
   1  12 -11   53.43   34.86
  -1  12  11   83.29   28.50
   1 -12 -11  107.76   31.41
  -1  12  11  158.19   36.85
   0 -12  11   17.01   22.68
   0  12 -11   26.53   31.42
   0  12  11   19.51   21.94
   1 -12  11   -0.30   23.78
   1  12  11   -9.21   25.54
  -1  12 -11   49.52   40.25
  -2  12 -11   -1.55   42.65
   2  12  11    3.71   25.17
  -2 -12 -11  -23.25   32.52
   2 -12  11  -18.76   22.85
   3 -12  11   19.11   24.91
  -3 -12 -11   31.21   40.19
   3  12  11  -12.94   28.66
  -3  12 -11   67.04   50.33
   3 -12  11   30.53   25.37
   4  12  11   37.25   32.34
   4 -12  11   57.29   33.96
   4 -12  11  133.50   40.72
  -4  12 -11   97.15   59.99
  -4 -12 -11  141.45   56.19
  -4  13  11  -22.23   32.94
  -4 -13  11   -7.75   27.67
   4  13 -11   35.36   43.33
   3  13 -11   45.28   41.19
  -3  13  11   66.97   34.31
   3 -13 -11   52.09   32.50
  -3  13  11    7.30   36.72
  -3 -13  11   -9.65   23.56
  -2  13  11   31.21   27.78
   2  13 -11   68.31   34.98
  -2 -13  11   69.19   29.49
  -2  13  11   55.87   32.93
   1  13 -11   23.31   32.13
  -1  13  11   36.84   22.22
   1 -13 -11   11.77   26.36
  -1  13  11  -14.58   26.67
  -1 -13  11  -17.33   21.13
   0  13  11   41.53   24.83
   0 -13  11    7.92   22.76
   0  13 -11   18.29   34.14
  -1  13 -11  105.46   45.04
   1 -13  11   14.80   25.25
   1  13  11   26.03   25.12
  -2  13 -11  128.60   51.04
   2 -13  11   74.06   32.69
   2  13  11   71.32   31.26
  -3 -13 -11   -3.81   35.97
   3 -13  11   19.17   24.42
  -3  13 -11   -6.08   50.97
   3  13  11  -44.97   25.78
   3 -13  11   51.84   29.60
  -4 -13 -11   30.16   46.98
  -4  13 -11   88.81   50.28
   4 -13  11  174.64   49.82
   4 -13  11  -35.76   26.32
   4  13  11   47.85   33.57
   4  14 -11   53.86   45.59
  -4 -14  11   21.10   28.71
  -4  14  11   91.20   41.46
  -4  14  11   91.40   39.81
  -3  14  11  -14.95   32.15
   3  14 -11  -45.63   34.95
  -3 -14  11   51.13   26.90
  -3  14  11   78.72   35.81
  -2 -14  11   12.19   25.81
  -2  14  11   -1.70   25.90
   2 -14 -11   16.33   28.28
  -2  14  11   -9.28   29.42
   2  14 -11   65.93   35.48
  -1 -14  11   22.10   23.12
   1  14 -11   20.90   29.90
   1 -14 -11   46.88   30.11
  -1  14  11   36.67   25.77
   0  14 -11   31.99   31.29
   0 -14  11   -5.43   20.04
   0  14  11   35.76   30.69
   1 -14  11   21.92   26.07
  -1  14 -11   72.97   40.84
   1  14  11   33.48   25.98
  -2  14 -11   12.66   38.24
   2 -14  11   -1.31   24.23
   2  14  11    6.01   26.83
   3 -14  11   55.39   27.57
   3 -14  11    7.14   27.19
  -3  14 -11   28.94   48.40
  -3 -14 -11   41.98   37.57
   3  14  11   28.07   28.84
  -4  14 -11   78.74   35.89
   4 -14  11   74.76   33.79
   4  14  11   53.91   37.22
   4 -14  11   21.55   27.69
  -4 -14 -11  -47.66   42.39
  -4  15  11   58.20   41.96
  -4 -15  11   21.11   28.66
  -4  15  11   58.05   40.53
   4  15 -11   11.59   40.13
  -3  15  11    0.50   31.48
  -3 -15  11   33.72   28.52
   3  15 -11   17.27   38.07
  -3  15  11   20.84   38.08
  -2 -15  11   82.75   32.56
   2  15 -11   44.32   32.86
  -2  15  11   75.57   31.59
  -2  15  11   20.45   30.99
   1  15 -11   36.74   31.29
  -1  15  11   31.03   23.39
  -1 -15  11   77.26   27.79
   1 -15 -11   24.99   29.12
   0 -15 -11  105.81   34.25
   0  15  11  123.46   34.41
   0 -15  11   76.77   31.96
   0  15 -11  138.56   42.59
  -1  15 -11   50.19   40.79
   1  15  11   -4.10   25.31
   1 -15  11   14.67   25.33
   2  15  11    4.13   25.67
   2 -15  11   41.14   25.21
  -2  15 -11   82.55   43.06
   3 -15  11   74.68   30.61
  -3 -15 -11   22.78   41.04
  -3  15 -11   48.68   48.48
   3  15  11   30.67   28.51
   4 -15  11   35.25   34.62
  -4 -15 -11  -35.19   45.82
  -4  16  11   20.38   42.14
  -4  16  11   48.31   35.20
   4  16 -11  -14.36   41.94
  -4 -16  11   11.71   24.64
  -3 -16  11    5.01   28.13
  -3  16  11   36.18   32.50
   3  16 -11   13.28   40.05
  -3  16  11   29.92   35.59
   3 -16 -11   22.30   32.90
   2 -16 -11   46.98   34.75
  -2 -16  11    4.87   29.01
   2  16 -11   32.19   33.97
  -2  16  11    0.80   33.66
  -2  16  11  105.30   33.98
  -1 -16  11   64.18   30.54
   1  16 -11   45.00   29.70
  -1  16  11    9.31   29.19
   1 -16 -11  107.44   35.97
   0  16  11   31.46   28.45
   0 -16 -11   25.99   30.93
   0  16 -11   10.31   26.73
   0 -16  11   25.84   23.95
   1 -16  11   13.47   23.40
  -1  16 -11   26.37   36.96
   1  16  11   -1.04   27.80
  -2  16 -11   49.35   43.65
   2  16  11   38.61   30.15
   2 -16  11  103.71   32.75
   3 -16  11   24.89   27.76
  -3  16 -11  147.61   51.41
   3  16  11   22.83   28.21
  -3  17  11   29.00   36.68
  -3 -17  11   32.53   31.02
   3  17 -11   22.70   42.17
  -3  17  11    9.01   33.60
  -2 -17  11    9.01   26.11
   2  17 -11   79.24   36.53
  -2  17  11  -22.29   29.02
   2 -17 -11   38.07   37.51
  -1  17  11   28.30   32.37
  -1 -17  11   68.87   30.29
   1  17 -11   41.59   35.32
   1 -17 -11   55.84   30.84
   0  17 -11  117.97   35.84
   0 -17  11   64.41   31.02
   0  17  11  107.70   38.81
   1  17  11  -23.81   26.11
  -1  17 -11   53.97   35.16
   1 -17  11  -43.87   20.38
   2  17  11   -8.13   28.05
  -2  17 -11   71.01   46.59
   2 -17  11   55.27   28.41
  -3  17 -11   76.89   29.08
   3 -17  11   13.88   28.19
   3  17  11   10.37   32.08
   3  18 -11   24.35   39.74
  -3 -18  11   29.76   29.96
  -3  18  11    1.98   37.86
  -3  18  11   76.16   38.78
   2 -18 -11   58.70   35.92
  -2 -18  11   -2.91   27.56
   2  18 -11   -1.75   35.67
  -2  18  11   33.72   31.98
   1 -18 -11   63.33   36.38
  -1 -18  11   38.00   29.30
  -1  18  11   79.92   37.69
   1  18 -11   31.00   33.36
   0 -18 -11   36.05   29.04
   0 -18  11   41.52   32.23
   0  18 -11   71.34   36.57
   0  18  11   27.70   30.12
   1  18  11   30.32   30.44
  -1  18 -11   67.28   36.03
   1 -18  11   31.55   26.89
   2 -18  11   -8.99   23.67
  -2  18 -11   68.43   44.68
   2  18  11   27.83   30.60
   3 -18  11   22.11   29.39
  -3  18 -11   73.27   30.53
   2  19 -11   62.34   40.88
  -2  19  11   40.86   37.11
  -2 -19  11   -7.97   27.88
   1 -19 -11  -12.75   32.14
  -1  19  11   55.46   35.55
  -1 -19  11   -1.60   25.68
   1  19 -11   38.15   32.62
   0 -19  11  -42.51   24.76
   0  19 -11   68.21   34.07
   0 -19 -11   57.60   35.62
   0  19  11  -38.97   27.31
  -1  19 -11   64.84   38.50
   1 -19  11   -2.46   21.61
   1  19  11  -12.28   27.08
   2 -19  11   58.30   24.67
   2  19  11    8.85   27.78
  -2  19 -11   95.27   42.66
  -2  20  11   -8.99   36.02
  -2 -20  11   42.25   31.27
   2  20 -11   17.90   38.49
  -1  20  11  -37.38   29.50
  -1 -20  11   40.01   30.84
   1  20 -11   66.10   39.33
   0  20  11   79.48   37.02
   0  20 -11   55.93   34.25
   0 -20  11   -4.04   24.27
  -1  20 -11   34.43   32.45
   1 -20  11   64.14   29.76
   1  20  11   15.56   29.57
   2 -20  11  -20.04   22.22
  -1 -21  11  -49.13   28.48
   1  21 -11  -27.22   30.20
   1 -21 -11   34.70   36.40
  -1  21  11   55.77   33.94
   0  21  11   36.89   30.11
   0  21 -11   59.04   35.31
   0 -21  11   16.30   27.30
   1 -21  11   22.23   27.91
   1  21  11  106.62   37.80
  -1  21 -11  100.53   40.13
  -5   0  12   -6.00   37.58
   4   0 -12    3.78   24.61
  -4   0  12  -53.43   23.87
  -3   0  12   12.69   24.29
  -2   0  12   21.55   20.61
   2   0 -12   23.29   29.26
  -1   0  12   78.56   26.15
   1   0 -12  142.44   40.18
   0   0  12   23.73   21.50
   0   0  12   54.45   20.65
   0   0 -12  -13.44   39.30
   1   0  12   62.88   26.80
  -1   0 -12   -0.65   44.55
   1   0  12   48.65   23.23
   2   0  12   -0.11   24.77
   2   0  12  -12.63   23.04
  -2   0 -12   33.47   50.99
  -3   0 -12  -67.91   46.38
   3   0  12  -49.41   22.67
   4   0  12   -0.03   30.49
  -4   0 -12  -63.41   53.14
   5   0  12  -36.11   28.41
  -5   0 -12  -33.86   57.19
  -5   1  12    3.79   34.33
   5   1 -12   21.54   27.21
  -5  -1  12  -51.84   30.19
  -4  -1  12    7.87   25.82
  -4   1  12   17.37   28.02
  -3  -1  12   35.00   28.52
  -3   1  12   29.09   26.78
  -2  -1  12   50.76   25.66
   2   1 -12   62.64   31.48
  -2   1  12   40.35   23.95
  -1   1  12  -11.87   17.27
  -1  -1  12   62.26   24.50
   1   1 -12   94.70   41.26
   1  -1 -12   50.80   35.60
   0  -1 -12   44.22   42.05
   0   1  12    2.72   16.99
   0  -1  12    0.62   19.28
   0   1  12  -13.09   20.81
   0   1 -12   -5.27   38.91
   0  -1  12  -31.81   19.50
   1   1  12    6.54   21.36
  -1   1 -12   -6.64   45.67
   1  -1  12    3.01   23.74
   1  -1  12   45.93   23.05
   1   1  12   22.05   26.26
  -1  -1 -12    5.26   41.42
  -2   1 -12   -5.00   49.94
  -2  -1 -12  -74.08   47.43
   2  -1  12   31.20   28.23
   2   1  12    6.54   24.89
   2  -1  12  -27.52   23.56
  -3  -1 -12  -29.71   51.12
  -3   1 -12   14.66   53.33
   3   1  12   66.47   31.33
   3  -1  12  -20.65   24.54
   4   1  12   49.31   34.63
  -4  -1 -12   24.91   54.87
  -4   1 -12    3.71   52.85
   4  -1  12  -13.34   29.24
   5   1  12   27.69   31.90
  -5  -1 -12  -20.72   55.50
   5  -1  12   -4.32   31.61
  -5   1 -12   -8.50   52.36
  -5   2  12  -49.69   28.67
  -5  -2  12   -6.19   34.57
  -4  -2  12    4.99   28.92
  -4   2  12   23.76   25.61
  -3   2  12   37.74   29.03
  -3  -2  12   26.88   26.16
  -2  -2  12   56.40   26.90
  -2   2  12   62.01   27.81
   2   2 -12   26.84   30.11
   1  -2 -12   40.39   34.41
   1   2 -12   31.63   36.63
  -1   2  12   46.57   23.86
  -1  -2  12   25.39   22.29
   0  -2 -12   35.07   44.08
   0   2  12   13.03   23.31
   0   2  12   17.75   20.10
   0   2 -12   22.88   38.19
   0  -2  12  -13.04   19.21
  -1   2 -12  -52.42   42.88
   1   2  12   56.62   22.24
  -1  -2 -12   39.57   43.71
   1  -2  12  100.89   28.49
   1   2  12   35.96   27.89
   1  -2  12   51.34   25.99
   2   2  12  146.51   35.65
   2  -2  12   44.75   30.56
  -2  -2 -12   43.67   53.02
   2  -2  12  140.94   33.00
  -2   2 -12   14.70   51.26
   3  -2  12   67.95   30.45
  -3  -2 -12   60.43   52.93
  -3   2 -12  -30.07   51.27
   3   2  12   39.14   29.66
  -4   2 -12  -54.46   50.29
   4   2  12   -8.22   32.40
   4  -2  12    2.51   30.82
  -4  -2 -12   48.74   56.61
  -5  -2 -12  -75.77   53.42
  -5   2 -12   33.04   61.63
   5   2  12  -10.06   31.15
   5  -2  12   -1.27   32.04
  -5  -3  12   -3.61   31.40
  -5   3  12  -32.48   27.83
  -4   3  12  -40.36   30.46
  -4  -3  12   27.76   33.01
   3  -3 -12   65.66   32.82
  -3  -3  12   93.47   30.11
  -3   3  12  102.08   33.09
  -2  -3  12  131.16   33.00
   2   3 -12   97.41   33.10
  -2   3  12   35.72   24.28
  -1  -3  12   57.84   24.63
  -1   3  12   91.53   27.63
   1   3 -12   82.69   39.47
  -1   3  12   57.08   24.53
   0   3  12   60.64   26.93
   0   3  12   73.28   22.18
   0   3 -12   75.73   43.98
   0  -3 -12   64.30   43.10
   0  -3  12   11.73   21.07
  -1  -3 -12  -29.92   40.97
   1  -3  12   60.55   26.21
  -1   3 -12   40.58   46.84
   1  -3  12   48.62   26.80
   1   3  12   17.22   24.99
   1   3  12   49.37   21.74
   2  -3  12  169.49   36.22
  -2  -3 -12   80.88   52.29
  -2   3 -12   24.14   53.02
   2  -3  12   86.35   33.43
   2   3  12  142.60   36.15
   3   3  12    6.54   28.06
  -3   3 -12   15.36   50.71
   3  -3  12   68.75   32.77
  -3  -3 -12  -47.19   49.48
  -4  -3 -12    0.58   52.47
   4  -3  12   43.39   31.97
   4   3  12   45.45   34.20
  -4   3 -12    9.89   57.03
   5  -3  12  133.03   40.35
  -5   3 -12  -14.73   56.51
   5   3  12   -2.30   29.93
  -5  -3 -12    1.74   55.47
  -5   4  12   -7.37   31.85
  -5  -4  12   46.40   33.63
  -4  -4  12  -27.84   27.19
  -4   4  12   24.96   27.94
   3   4 -12   40.78   32.08
  -3   4  12   13.55   25.40
  -3  -4  12    6.03   22.01
   3  -4 -12   12.96   29.52
  -2   4  12  -23.92   18.62
  -2  -4  12   73.29   25.98
   2   4 -12   59.73   30.99
   1   4 -12   41.70   34.75
  -1   4  12   58.64   20.98
  -1  -4  12   22.20   21.77
  -1   4  12   36.11   24.87
   0   4 -12   54.51   42.52
   0   4  12   50.97   23.14
   0   4  12   59.82   26.75
   0  -4  12   27.75   21.92
   0  -4 -12   72.02   44.00
  -1  -4 -12    1.08   41.83
   1   4  12  -33.21   21.76
   1  -4  12  -12.22   20.22
   1  -4  12   63.94   26.25
   1   4  12   41.45   22.61
  -1   4 -12    5.71   45.45
  -2  -4 -12  195.24   56.15
   2   4  12   11.82   26.27
   2  -4  12  119.75   34.46
   2  -4  12  257.24   42.84
  -2   4 -12  131.72   58.29
   3   4  12  -15.82   26.26
  -3  -4 -12  -10.68   45.35
   3  -4  12    8.16   29.37
   3  -4  12  -38.26   23.94
  -3   4 -12   -2.35   52.89
  -4   4 -12   14.14   56.04
  -4  -4 -12   -4.37   52.26
   4  -4  12   23.41   32.94
   4   4  12   63.86   32.92
   5  -4  12  -38.83   29.60
  -5  -5  12  -54.74   29.21
  -5   5  12   21.81   35.10
  -4  -5  12   -4.39   32.95
   4  -5 -12   22.62   28.70
  -4   5  12   -8.22   26.14
   3  -5 -12   98.80   30.86
  -3   5  12   23.88   27.88
  -3  -5  12   88.17   29.37
   3   5 -12   68.51   36.05
  -2   5  12   12.96   27.95
   2   5 -12    9.17   31.07
  -2  -5  12   14.87   22.36
  -1  -5  12  -15.23   22.70
  -1   5  12    7.59   19.55
   1   5 -12   26.17   34.67
  -1   5  12   36.94   25.31
   0  -5  12   54.71   25.47
   0   5  12   94.17   29.03
   0   5  12   40.61   20.25
   0   5 -12   45.24   44.08
   0  -5 -12   34.36   39.96
   1  -5  12   12.22   25.09
   1   5  12  -52.88   23.48
  -1   5 -12   31.39   45.27
  -1  -5 -12   11.23   43.70
  -2  -5 -12   77.58   53.81
   2   5  12   10.64   23.30
   2  -5  12  -23.25   23.90
  -2   5 -12   20.96   51.37
   2  -5  12   23.64   27.23
  -3  -5 -12  -13.47   43.88
   3  -5  12  -22.29   25.18
  -3   5 -12    5.99   52.68
   3  -5  12   11.30   28.16
   3   5  12   -1.18   27.14
  -4   5 -12  -56.46   53.89
   4  -5  12   47.33   30.89
  -4  -5 -12   83.29   62.03
   4   5  12   73.41   34.00
  -5  -6  12   54.66   36.41
  -5   6  12  -28.93   29.79
  -4  -6  12    4.13   29.72
   4  -6 -12   51.56   27.48
  -4   6  12    5.25   28.77
   3   6 -12  168.44   44.64
  -3   6  12   78.97   31.69
  -3  -6  12   73.18   29.37
  -2  -6  12   25.32   26.52
   2   6 -12   86.75   32.74
  -2   6  12    8.28   22.36
  -1   6  12   -1.54   23.39
  -1   6  12   10.47   20.91
   1   6 -12   36.93   37.98
  -1  -6  12    0.08   21.36
   0  -6  12   32.12   22.33
   0   6  12   22.21   18.90
   0   6  12    2.45   24.77
   0   6 -12   55.24   42.63
   1   6  12   10.40   25.97
  -1   6 -12   -3.36   40.19
   1  -6  12  -10.80   21.94
  -1  -6 -12    3.84   42.42
   2  -6  12   12.79   26.23
   2  -6  12   51.37   28.05
  -2   6 -12    4.67   43.56
   2   6  12   16.16   26.05
  -2  -6 -12   -7.74   45.79
  -3  -6 -12  102.21   53.91
   3  -6  12   91.19   30.84
   3   6  12   61.68   34.41
  -3   6 -12   80.52   55.24
   3  -6  12   80.07   32.79
  -4   6 -12    8.80   56.44
   4   6  12    8.49   26.85
   4  -6  12  -12.25   26.00
  -4  -6 -12  -31.04   51.50
   5  -7 -12   10.73   30.33
  -5   7  12  -57.18   27.68
  -5  -7  12   -6.01   33.77
   4   7 -12   66.61   41.72
   4  -7 -12    1.89   28.81
  -4  -7  12   -6.54   25.87
  -4   7  12   33.41   30.47
  -3  -7  12   69.40   30.04
   3  -7 -12   68.78   30.04
   3   7 -12  134.55   40.22
  -3   7  12   90.34   33.41
   2  -7 -12    7.11   23.11
  -2  -7  12    0.63   23.25
  -2   7  12   25.17   21.35
   2   7 -12   75.54   33.58
  -1   7  12   30.62   22.19
  -1   7  12  -15.79   23.03
  -1  -7  12   20.08   23.30
   1   7 -12   33.26   34.23
   0   7  12   27.65   17.51
   0   7  12   -9.58   24.35
   0  -7  12  -10.46   23.05
   0   7 -12   17.52   42.14
   1  -7  12   42.83   26.98
  -1   7 -12   86.73   49.39
   1   7  12   53.81   28.82
  -1  -7 -12   16.97   42.17
   2  -7  12  100.69   28.61
   2   7  12   58.99   32.37
  -2   7 -12   67.48   51.69
  -2  -7 -12   30.02   44.97
   2  -7  12   76.87   32.23
   3  -7  12   86.50   31.51
  -3  -7 -12   41.13   53.52
   3  -7  12   75.90   31.10
   3   7  12   67.10   33.94
  -3   7 -12   10.64   50.47
   4   7  12  -20.86   26.74
  -4   7 -12  -22.94   52.62
   4  -7  12   -0.69   27.08
  -4  -7 -12  -10.88   50.71
  -5  -8  12  -53.51   29.58
  -5   8  12   18.33   33.43
   4   8 -12   66.40   45.06
  -4  -8  12   -4.81   28.69
  -4   8  12   67.56   34.50
  -3  -8  12  -39.17   24.11
   3   8 -12   18.76   35.37
  -3   8  12   44.23   27.34
   3  -8 -12  -45.34   24.06
   2   8 -12   54.37   33.03
  -2   8  12   67.74   30.22
  -2   8  12    7.01   24.61
   2  -8 -12  -17.04   22.30
  -2  -8  12   23.42   25.00
  -1   8  12   38.47   23.28
  -1  -8  12   22.28   24.18
  -1   8  12   13.60   26.11
   1   8 -12   72.63   38.57
   0   8  12   37.74   19.44
   0   8  12    5.42   25.26
   0   8 -12   24.99   39.06
   0  -8  12   43.18   23.63
   1  -8  12   46.79   26.72
   1   8  12   79.57   32.30
  -1   8 -12   72.99   47.86
  -1  -8 -12   -0.38   43.12
   2   8  12   87.10   34.02
   2  -8  12  105.53   33.49
   2  -8  12   38.35   27.58
  -2   8 -12   64.97   48.37
  -2  -8 -12   52.56   44.96
  -3  -8 -12  -17.79   48.01
  -3   8 -12  -34.79   48.42
   3  -8  12    7.76   29.51
   3   8  12   20.99   28.98
   3  -8  12   -9.71   26.61
  -4   8 -12  -55.61   46.64
   4  -8  12   -1.58   33.62
   4   8  12   31.29   31.31
   4  -8  12   54.16   31.79
  -4  -8 -12  -26.65   52.55
  -4   9  12    4.03   31.47
   4  -9 -12   93.13   36.86
   4   9 -12   -4.28   41.92
  -4  -9  12   -4.86   28.40
   3   9 -12   26.46   37.69
  -3  -9  12   21.98   24.11
  -3   9  12  -42.63   24.27
   2   9 -12   91.27   37.76
   2  -9 -12  -32.53   26.01
  -2   9  12   -3.07   23.37
  -2  -9  12  -15.71   19.02
  -2   9  12   12.38   28.37
  -1   9  12   11.43   26.51
  -1   9  12   62.76   25.10
  -1  -9  12   20.20   24.13
   1   9 -12   66.80   34.04
   0   9  12  119.19   33.17
   0   9 -12   43.04   42.43
   0  -9  12   72.15   32.61
   1   9  12   -8.69   21.39
  -1   9 -12   72.83   47.87
   1  -9  12   51.64   31.62
   2  -9  12   75.08   31.10
   2   9  12   36.00   29.03
  -2  -9 -12   18.35   43.23
  -2   9 -12   11.50   50.00
   3  -9  12  -29.02   27.62
  -3   9 -12  -19.16   49.12
  -3  -9 -12  -15.24   44.34
   3   9  12   -6.14   29.78
   3  -9  12   41.71   27.88
  -4   9 -12    4.86   53.96
   4  -9  12   31.92   35.20
  -4  -9 -12  -86.51   42.44
   4   9  12  -30.69   28.28
   4  -9  12   63.69   32.85
  -4  10  12   -1.34   33.35
   4  10 -12   18.32   44.25
   4 -10 -12  -52.26   30.10
  -4 -10  12   19.67   29.20
   3 -10 -12  -10.39   25.37
   3  10 -12   80.22   43.37
  -3 -10  12   42.62   26.96
  -3  10  12   49.61   30.88
   2  10 -12    8.20   34.35
  -2  10  12    2.06   25.05
  -2  10  12  -11.62   28.14
  -2 -10  12    0.62   24.04
  -1  10  12  -10.90   25.82
   1  10 -12   28.36   33.30
  -1  10  12  -27.04   21.83
  -1 -10  12   14.70   23.76
   0 -10  12   15.90   25.15
   0  10 -12   54.79   40.56
   0  10  12    7.94   26.68
  -1  10 -12  121.19   48.50
   1  10  12   59.56   24.31
   1 -10  12   85.69   34.68
  -2  10 -12   61.48   51.33
   2 -10  12   26.09   27.97
   2  10  12   70.02   31.20
  -2 -10 -12   26.51   46.08
  -3  10 -12    7.10   53.65
  -3 -10 -12  -17.34   45.51
   3 -10  12    8.57   27.22
   3 -10  12  -48.10   26.56
   3  10  12   29.87   28.83
  -4  10 -12   14.07   58.14
   4 -10  12   70.20   33.56
   4  10  12   14.07   35.69
   4 -10  12  -14.29   31.57
  -4 -10 -12   71.98   53.46
  -4  11  12  -19.49   32.22
  -4 -11  12    2.08   28.52
   4 -11 -12  -38.03   32.63
   4  11 -12  -53.65   38.64
  -3  11  12   19.79   28.57
  -3 -11  12   37.41   26.77
   3  11 -12    4.60   42.42
   3 -11 -12    0.34   27.08
  -2  11  12  101.37   30.60
   2  11 -12   56.23   36.13
  -2  11  12  103.04   34.27
   2 -11 -12   97.30   34.17
  -2 -11  12   82.31   31.56
   1 -11 -12   -1.23   28.19
  -1  11  12   31.32   21.68
   1  11 -12   50.13   35.52
  -1 -11  12   -2.74   25.06
  -1  11  12   -7.40   26.45
   0 -11  12  -15.18   25.82
   0  11  12   27.97   28.53
   0  11 -12   35.61   36.84
   1 -11  12   39.54   28.01
  -1  11 -12   87.22   40.39
   1  11  12   -0.68   24.56
   2 -11  12   14.45   25.94
  -2  11 -12   15.44   43.54
   2  11  12   -2.66   28.11
  -2 -11 -12    6.04   39.71
   3  11  12   -7.89   30.50
  -3  11 -12   50.79   52.86
  -3 -11 -12    5.67   46.61
   3 -11  12    3.70   28.58
   3 -11  12   55.97   34.28
   4 -11  12   23.85   29.97
   4 -11  12   48.27   36.15
  -4  11 -12  -17.99   55.30
   4  11  12   39.49   32.59
  -4 -11 -12   46.46   52.06
  -4 -12  12    5.66   27.60
  -4  12  12  -19.94   35.95
   4  12 -12    6.83   42.26
  -3  12  12    4.33   35.00
  -3 -12  12    4.65   26.72
  -3  12  12   15.99   32.02
   3 -12 -12   -0.26   27.52
   3  12 -12   70.41   45.33
  -2  12  12   20.96   30.61
  -2  12  12    2.60   26.31
   2  12 -12   56.82   38.17
  -2 -12  12    7.67   25.90
  -1  12  12   33.51   30.61
  -1 -12  12   22.75   27.18
   1  12 -12   39.69   34.28
   0  12  12   -3.56   25.56
   0 -12  12  -19.93   24.00
   0  12 -12   -7.25   30.13
  -1  12 -12   33.78   40.03
   1  12  12   21.08   28.70
   1 -12  12   22.72   28.06
   2  12  12    9.85   30.67
   2 -12  12   33.48   25.54
  -2  12 -12   41.71   42.46
   3  12  12   83.21   35.62
   3 -12  12  -11.93   28.05
  -3 -12 -12   40.97   49.03
  -3  12 -12   23.94   50.13
   4 -12  12  159.75   41.94
  -4 -12 -12  -15.29   50.93
   4 -12  12  136.48   36.25
  -4 -13  12   54.34   28.10
   4 -13 -12   36.17   37.06
   4  13 -12   15.97   46.88
  -4  13  12    4.04   35.71
   3  13 -12   49.41   43.07
  -3  13  12   27.13   37.79
   3 -13 -12    4.40   30.26
  -3  13  12   52.78   37.87
  -3 -13  12   17.06   26.58
  -2  13  12    8.03   31.31
  -2  13  12    3.55   27.40
  -2 -13  12   -5.05   26.13
   2 -13 -12   28.91   28.90
   2  13 -12   28.21   37.34
   1 -13 -12   35.50   30.62
  -1  13  12    9.38   30.72
  -1 -13  12  -21.59   25.53
   1  13 -12   92.56   38.23
   0  13  12   27.10   23.30
   0  13 -12   25.90   32.98
   0 -13  12   17.78   28.54
  -1  13 -12  161.04   53.63
   1  13  12   51.91   32.67
   1 -13  12   55.48   28.83
   2 -13  12   97.43   34.73
  -2  13 -12   36.78   47.41
   2  13  12   47.56   30.48
  -3 -13 -12   -4.07   44.15
   3 -13  12    2.68   28.98
  -3  13 -12   -3.67   46.00
   3  13  12    1.80   27.37
  -3  14  12   25.35   31.87
  -3 -14  12    3.13   27.35
   3  14 -12   37.30   43.66
  -3  14  12   48.87   38.44
   2 -14 -12  -35.03   29.34
  -2  14  12   65.71   39.74
  -2 -14  12   23.42   27.04
   2  14 -12   68.45   39.54
  -2  14  12   -7.27   29.53
   1  14 -12   71.89   35.74
   1 -14 -12   56.86   31.39
  -1  14  12   45.36   33.78
  -1 -14  12   57.82   30.44
   0 -14  12  -16.80   24.20
   0  14 -12   40.98   35.30
   0  14  12   31.55   30.74
   1  14  12   94.11   33.53
  -1  14 -12   -0.49   33.60
   1 -14  12   65.05   31.38
   2 -14  12   13.61   28.23
   2  14  12   18.00   31.15
  -2  14 -12   52.57   42.44
   3 -14  12   20.06   30.99
   3  14  12    5.65   33.41
  -3  14 -12  -19.82   47.82
  -3  15  12   45.44   36.90
   3  15 -12   16.59   40.82
  -3  15  12   -1.66   33.48
  -3 -15  12   28.29   27.17
  -2 -15  12   22.27   31.49
   2 -15 -12   23.06   36.93
   2  15 -12   73.67   38.17
  -2  15  12  106.38   40.44
   1  15 -12   80.33   35.05
  -1  15  12   -5.76   30.00
  -1 -15  12   54.01   28.82
   0 -15 -12   45.40   37.77
   0  15 -12   80.40   37.64
   0 -15  12  -28.39   27.79
   0  15  12   68.61   35.78
   1 -15  12   53.23   31.14
  -1  15 -12   62.81   41.92
   1  15  12   33.21   32.40
   2 -15  12    9.94   24.99
   2  15  12   21.34   30.27
  -2  15 -12   67.19   42.05
   3 -15  12   53.99   34.40
  -3  15 -12  107.59   50.19
   3  15  12   75.14   38.68
  -3 -16  12   84.68   34.35
  -3  16  12   87.65   42.06
  -3  16  12   -3.51   35.71
   3  16 -12  196.99   61.39
  -2 -16  12   36.55   30.62
   2  16 -12   65.38   44.15
  -2  16  12   29.66   39.89
   1  16 -12  112.66   39.89
  -1  16  12  -16.82   27.27
  -1 -16  12   43.47   29.67
   1 -16 -12   97.20   37.47
   0 -16  12  -57.64   21.59
   0  16 -12   22.88   28.21
   0  16  12   28.83   31.32
   1 -16  12   20.26   28.82
  -1  16 -12   10.09   35.59
   1  16  12   56.41   34.01
   2  16  12   26.40   31.78
  -2  16 -12   41.86   46.83
   2 -16  12   19.85   25.66
   2  17 -12   87.18   39.27
  -2  17  12   35.12   36.49
  -2 -17  12   19.20   28.48
  -1  17  12   32.89   36.35
  -1 -17  12   15.63   30.18
   1  17 -12   59.61   35.72
   1 -17 -12   46.79   34.27
   0  17 -12   36.38   30.13
   0  17  12   31.88   33.06
   0 -17  12  -12.39   29.02
   0 -17 -12   77.29   37.59
   1 -17  12  -20.85   24.06
   1  17  12   29.61   32.01
  -1  17 -12  139.75   45.55
   2  17  12  -34.99   25.20
  -2  17 -12  136.35   49.78
   2 -17  12  -11.86   24.25
  -2  18  12   34.09   39.97
  -2 -18  12    0.17   28.05
   2  18 -12   78.69   41.82
   1  18 -12   23.95   34.10
  -1 -18  12   29.40   27.89
  -1  18  12   74.85   36.55
   0  18  12   63.66   36.85
   0  18 -12   13.19   32.83
   0 -18  12   -6.44   27.47
   1  18  12   80.21   36.02
   1 -18  12   -6.29   23.68
  -1  18 -12   42.37   31.70
   1  19 -12   11.92   31.85
  -1  19  12   49.25   37.25
  -1 -19  12   34.49   29.02
   0  19  12   66.36   37.44
   0  19 -12   34.19   32.63
   0 -19  12   48.61   31.32
   1 -19  12   13.50   26.79
  -1  19 -12  133.73   43.34
  -4   0  13   29.97   29.68
   4   0 -13   75.73   34.11
  -3   0  13  113.81   34.49
  -2   0  13   88.83   29.07
   1   0 -13   50.78   35.26
  -1   0  13   81.33   24.50
   0   0  13   40.72   25.47
   0   0 -13   96.53   46.03
  -1   0 -13   12.20   44.38
   1   0  13   49.46   29.25
   1   0  13   23.11   24.16
  -2   0 -13   46.30   57.42
   2   0  13   43.29   29.50
   3   0  13    2.38   29.69
  -3   0 -13  -20.21   57.51
   4   0  13    6.14   33.84
  -4   0 -13  -10.47   59.82
  -4  -1  13   44.86   31.64
  -4   1  13    0.04   28.23
  -3   1  13  -10.92   26.92
  -3  -1  13   38.89   25.67
  -2  -1  13  107.57   28.81
  -2   1  13  107.26   29.47
   1   1 -13   70.95   38.65
   1  -1 -13   50.56   34.88
  -1   1  13   18.82   22.84
  -1  -1  13   78.86   26.51
   0   1  13   58.35   22.69
   0  -1 -13   81.68   43.03
   0  -1  13   63.85   25.38
   0   1 -13  -36.96   36.64
   1   1  13   53.51   26.06
   1   1  13   89.77   34.07
  -1  -1 -13   24.55   44.05
   1  -1  13   69.62   28.48
   1  -1  13   72.03   26.67
  -1   1 -13   57.61   49.97
  -2   1 -13    4.66   48.62
  -2  -1 -13  -62.69   50.91
   2   1  13   62.01   31.59
   2  -1  13   36.58   32.17
   2  -1  13    7.95   29.75
   3  -1  13   66.47   37.61
  -3  -1 -13   48.93   63.76
   3   1  13  -14.39   26.31
  -3   1 -13   -3.17   58.43
  -4   1 -13  -82.81   58.34
   4   1  13   75.31   36.80
  -4  -1 -13   89.64   60.96
   4  -1  13   87.26   41.53
   4  -2 -13    1.63   28.23
  -4  -2  13   46.19   27.56
  -4   2  13   78.96   34.44
  -3   2  13   -9.34   28.66
  -3  -2  13   32.61   28.03
  -2   2  13   61.88   26.25
   2   2 -13  106.64   35.59
  -2  -2  13   76.25   28.12
   1   2 -13  141.01   41.11
  -1  -2  13   33.68   27.37
  -1   2  13  106.74   27.40
   0   2  13   26.07   21.23
   0  -2 -13   27.40   40.20
   0  -2  13   65.80   25.84
   0   2 -13   49.88   44.04
   0   2  13   51.08   27.42
   1   2  13   15.31   26.57
   1  -2  13   49.12   26.47
  -1   2 -13   -7.39   47.52
   1   2  13    5.90   23.22
  -1  -2 -13  -31.16   43.05
   1  -2  13   89.44   31.20
  -2  -2 -13  -24.97   51.84
   2   2  13    2.44   30.33
   2  -2  13   27.14   29.92
   2  -2  13  -41.68   28.67
  -2   2 -13    0.48   50.39
   3  -2  13   27.85   32.01
  -3   2 -13  -49.85   51.44
  -3  -2 -13   11.61   56.84
   3   2  13  -17.22   27.21
  -4  -2 -13   41.11   61.27
   4   2  13  -21.98   32.07
  -4   2 -13  -16.74   59.52
   4  -2  13   14.93   37.12
  -4   3  13  -17.24   25.75
  -4  -3  13   19.40   29.38
  -3   3  13   33.06   28.16
  -3  -3  13   52.76   28.56
   2   3 -13   86.61   34.67
  -2   3  13   94.34   27.75
  -2  -3  13   11.13   26.89
  -1   3  13   14.44   21.23
   1   3 -13   47.42   37.18
  -1  -3  13   26.23   25.67
   0   3  13  146.74   28.62
   0  -3  13  136.52   31.68
   0  -3 -13   76.76   45.83
   0   3  13  112.30   33.53
   0   3 -13  125.82   48.29
  -1   3 -13   -2.93   46.24
   1   3  13   18.92   27.64
   1  -3  13   16.23   23.52
   1   3  13   39.49   23.60
  -1  -3 -13   31.49   46.42
   2  -3  13  -20.10   28.70
  -2   3 -13  -47.01   45.60
   2  -3  13   51.67   29.88
   2   3  13   89.31   34.77
  -2  -3 -13  -14.74   52.08
  -3   3 -13    3.99   56.40
   3   3  13    5.44   30.75
  -3  -3 -13   -9.47   53.90
   3  -3  13  -12.37   33.46
   4   3  13   48.50   35.79
  -4  -3 -13   60.59   65.24
  -4   3 -13  -49.51   57.82
   4  -3  13   17.87   34.13
  -4   4  13   35.87   30.71
  -4  -4  13   59.62   34.70
  -3   4  13   64.92   30.00
  -3  -4  13   33.38   25.97
   2   4 -13   37.01   33.30
  -2   4  13  -12.47   23.04
  -2  -4  13   12.40   26.32
  -1   4  13   64.22   23.78
  -1  -4  13   22.05   24.99
   1   4 -13  105.56   39.03
   0  -4  13   68.34   27.21
   0   4  13   39.90   23.68
   0  -4 -13   58.20   42.01
   0   4  13   56.13   32.46
   0   4 -13   50.25   43.09
  -1  -4 -13   46.59   46.30
   1   4  13   82.36   31.18
   1  -4  13   48.55   27.66
  -1   4 -13   -3.79   44.80
   2  -4  13  353.05   43.67
   2  -4  13  246.05   45.45
  -2  -4 -13  163.26   64.19
  -2   4 -13  172.27   63.15
   3  -4  13   17.21   33.58
  -3  -4 -13    3.99   53.74
   3   4  13   21.59   32.29
  -3   4 -13   42.76   55.55
   4   4  13    2.30   37.16
  -4   4 -13  -17.38   58.34
   4  -4  13  -29.28   27.94
  -4  -4 -13   96.16   63.52
  -4  -5  13   42.36   34.97
  -4   5  13  -12.67   28.60
  -3  -5  13   25.73   26.04
  -3   5  13    4.75   28.12
   2   5 -13   42.62   32.72
  -2   5  13   13.94   24.61
  -2  -5  13   23.70   27.25
   1   5 -13   79.14   38.71
  -1  -5  13   44.55   24.29
  -1   5  13   52.45   25.81
   0   5  13   77.41   29.84
   0  -5  13   27.97   27.51
   0   5 -13   53.88   46.06
   0   5  13   61.94   23.01
   1  -5  13   41.26   28.78
   1   5  13  113.83   37.43
  -1  -5 -13   83.01   49.53
  -1   5 -13   92.80   50.83
   2  -5  13  142.96   36.40
   2  -5  13  107.77   33.91
  -2  -5 -13   81.38   58.61
  -2   5 -13   46.94   57.56
   3  -5  13  -18.17   30.57
   3   5  13   43.13   31.57
  -3   5 -13   36.82   53.40
  -3  -5 -13  -40.36   54.16
   4  -5  13  -14.91   31.76
  -4   5 -13  -19.38   54.94
  -4  -5 -13   82.71   66.00
   4   5  13   66.16   36.66
  -4   6  13  -10.41   32.88
  -4  -6  13   -6.72   26.82
   3   6 -13   24.87   35.93
  -3  -6  13   30.01   26.10
  -3   6  13   21.18   27.75
  -2   6  13   38.40   27.39
  -2  -6  13   25.55   30.10
   2   6 -13  137.66   38.18
   1   6 -13   92.81   43.38
  -1   6  13  138.56   33.41
  -1   6  13   79.67   26.47
  -1  -6  13   71.66   28.31
   0   6 -13   28.12   38.26
   0  -6  13  -14.09   22.75
   0   6  13   30.07   21.22
   0   6  13  -14.51   27.52
  -1   6 -13   46.21   46.98
   1   6  13  -12.12   27.28
  -1  -6 -13   17.77   45.29
   1  -6  13   67.95   32.85
  -2   6 -13   34.72   57.93
   2   6  13  -63.59   23.83
  -2  -6 -13   62.68   54.87
   2  -6  13  116.35   35.63
  -3   6 -13    6.03   54.29
   3   6  13  -12.24   31.79
  -3  -6 -13   38.99   57.12
   3  -6  13   47.82   33.40
   3  -6  13   76.54   33.48
   4  -6  13  -19.17   33.78
   4   6  13   31.35   31.77
  -4  -6 -13    3.32   56.81
  -4   6 -13  -18.05   52.52
  -4   7  13   65.61   34.05
   4  -7 -13   -2.13   31.93
  -4  -7  13   11.15   29.79
   3   7 -13   -5.59   36.13
  -3   7  13   17.67   26.90
  -3  -7  13    7.84   27.72
  -2  -7  13   54.45   29.08
   2   7 -13   93.97   39.11
  -2   7  13   37.24   25.85
  -1   7  13   15.11   21.81
   1   7 -13   94.42   42.61
  -1  -7  13   27.82   29.48
  -1   7  13   19.42   27.57
   0   7  13   61.26   29.71
   0  -7  13   52.67   31.40
   0   7 -13  103.42   45.48
   1  -7  13   42.46   32.57
   1   7  13   39.41   28.99
  -1   7 -13   59.91   47.94
  -2   7 -13   33.99   53.02
  -2  -7 -13   56.31   51.36
   2  -7  13   24.34   32.02
   2   7  13   62.06   34.63
  -3  -7 -13    0.03   51.06
   3  -7  13   49.96   35.70
  -3   7 -13   55.62   54.74
   3  -7  13  105.56   35.52
   3   7  13   15.16   36.84
   4   7  13   -7.88   29.08
  -4  -7 -13  -15.16   54.90
   4  -7  13   21.10   33.97
  -4   7 -13  -79.02   52.00
  -4   8  13  -24.42   31.92
  -4  -8  13   26.27   29.35
  -3  -8  13  -29.79   23.70
   3   8 -13   43.67   41.12
  -3   8  13    0.61   29.62
   2   8 -13   49.49   37.92
  -2   8  13   70.70   31.42
  -2  -8  13   41.47   30.46
   1   8 -13  121.02   45.75
  -1  -8  13   66.57   32.90
  -1   8  13  138.23   34.45
  -1   8  13   79.51   26.88
   0  -8  13  -16.91   25.24
   0   8 -13    2.20   38.88
   0   8  13   16.32   26.98
  -1   8 -13  -12.77   48.88
   1  -8  13   27.65   30.33
   2   8  13   40.45   34.35
   2  -8  13    8.38   33.37
  -2  -8 -13  101.11   54.97
  -2   8 -13    6.59   46.56
  -3  -8 -13   89.74   60.23
  -3   8 -13  -24.50   52.55
   3  -8  13   35.36   31.93
   3   8  13   32.40   33.75
   3  -8  13   49.98   30.84
  -4  -9  13  -15.45   26.61
  -4   9  13   16.69   35.77
   4  -9 -13    3.91   30.85
   4   9 -13  -58.93   42.97
  -3   9  13  -11.47   31.26
   3   9 -13   10.23   41.86
  -3  -9  13    1.91   26.02
   3  -9 -13  -24.37   28.64
  -2   9  13    1.92   25.90
   2  -9 -13   27.60   29.39
   2   9 -13   33.21   35.77
  -2  -9  13   74.81   29.21
   1   9 -13   71.33   36.33
  -1   9  13   66.89   28.43
  -1   9  13  -13.56   21.83
  -1  -9  13   27.60   31.77
   0   9 -13   12.74   34.61
   0   9  13   46.10   32.25
   0  -9  13   18.32   28.54
   1   9  13   51.46   32.43
  -1   9 -13  139.45   53.26
   1  -9  13  -14.54   25.94
   2  -9  13  -32.02   28.23
  -2  -9 -13   84.36   50.97
  -2   9 -13  133.44   57.67
   2   9  13   59.34   33.43
  -3   9 -13   71.65   60.09
   3  -9  13   62.76   32.76
  -3  -9 -13   54.69   53.53
   3   9  13  134.02   42.63
  -4  10  13   12.95   35.84
  -4 -10  13   27.13   29.61
   4  10 -13   61.57   47.63
  -3  10  13    6.82   31.25
   3  10 -13   58.59   45.69
  -3 -10  13   28.46   26.72
  -2  10  13   55.43   33.34
   2  10 -13  166.67   49.06
  -2 -10  13   72.23   32.45
  -1  10  13   92.90   28.02
  -1  10  13  122.21   33.88
  -1 -10  13   94.20   37.66
   1  10 -13   72.10   39.75
   0  10 -13   61.70   40.90
   0 -10  13   -1.03   27.00
   0  10  13   11.99   27.10
  -1  10 -13   25.74   42.88
   1 -10  13  -60.53   27.13
   1  10  13  -56.08   25.46
   2  10  13   42.10   35.87
   2 -10  13  -34.11   29.85
  -2  10 -13   52.89   47.06
  -3  10 -13   21.92   53.44
   3 -10  13  -18.37   27.38
   3  10  13  -14.55   28.63
  -3 -10 -13   18.22   51.27
  -3 -11  13   50.26   28.90
   3 -11 -13   13.49   32.94
   3  11 -13   71.91   49.35
  -3  11  13   -4.87   33.45
  -2  11  13  -23.01   28.67
  -2 -11  13    6.59   24.63
  -2  11  13   19.46   33.51
   2  11 -13   67.02   41.03
  -1  11  13   82.12   35.41
  -1 -11  13   14.14   28.46
   1  11 -13   37.55   36.14
   0  11  13   56.32   33.37
   0 -11  13   46.84   30.51
   0  11 -13   68.16   39.01
   1 -11  13   -9.96   31.33
   1  11  13   30.20   29.37
  -1  11 -13   87.84   46.17
   2  11  13    2.31   34.72
  -2  11 -13   67.20   50.06
   2 -11  13   -4.50   30.49
   3 -11  13    9.08   30.90
   3  11  13   55.83   35.86
  -3  11 -13   38.41   57.20
  -3 -11 -13  111.52   64.96
   3  12 -13   71.58   49.49
  -3  12  13   35.16   34.61
  -3 -12  13   -4.14   25.77
  -2  12  13   27.34   33.84
  -2  12  13  -37.12   27.68
   2 -12 -13   37.26   32.29
   2  12 -13   43.82   35.96
  -2 -12  13   40.99   29.29
   1  12 -13   46.69   38.54
  -1  12  13   36.24   36.56
  -1 -12  13    6.91   29.31
   0 -12  13   10.02   27.51
   0  12  13   27.81   30.34
   0  12 -13   94.75   41.07
  -1  12 -13   35.50   41.64
   1 -12  13  -65.55   26.38
   1  12  13   22.83   31.41
  -2  12 -13   21.41   43.54
   2  12  13   17.56   30.99
   2 -12  13    9.28   31.27
   3 -12  13  -30.18   32.13
   3  12  13   19.03   32.98
  -3  12 -13   33.55   52.79
   3 -13 -13   12.30   29.71
  -3 -13  13   40.06   31.62
  -3  13  13  -73.33   33.52
   3  13 -13   71.28   50.83
   2  13 -13   20.10   37.94
  -2  13  13   17.75   32.62
  -2  13  13  -38.40   26.88
  -2 -13  13   15.43   27.88
  -1 -13  13  -28.63   25.39
  -1  13  13  -30.65   29.76
   1  13 -13   35.76   37.14
   0 -13  13   28.33   29.48
   0  13 -13   82.15   36.42
   0  13  13   48.22   34.45
   1 -13  13  -39.53   26.31
   1  13  13   41.99   30.29
  -1  13 -13   20.90   36.64
  -2  13 -13   47.54   47.58
   2  13  13   20.99   32.70
   2 -13  13  -21.55   30.30
  -2 -14  13   47.36   32.01
  -2  14  13   12.12   34.26
   2  14 -13   47.48   39.87
  -1  14  13   45.29   38.79
   1  14 -13   66.02   36.29
  -1 -14  13   41.17   31.06
   0  14 -13   63.15   34.89
   0  14  13  -45.70   25.69
   0 -14  13   14.02   26.15
   1 -14  13   20.86   32.70
   1  14  13  -29.04   27.52
  -1  14 -13    6.42   37.76
  -2  14 -13   54.61   46.47
   2 -14  13   -1.48   29.50
   2  14  13   -1.24   33.02
   2  15 -13   39.88   40.34
  -2 -15  13  -18.29   29.54
  -2  15  13   59.06   38.11
  -1 -15  13   30.55   30.52
  -1  15  13   15.82   34.84
   1  15 -13   57.27   38.11
   0  15 -13   90.15   33.80
   0  15  13   63.05   33.89
   0 -15  13  -31.26   27.20
  -1  15 -13   73.31   43.30
   1 -15  13  -12.67   28.13
   1  15  13   35.83   33.18
   2 -15  13   -1.35   28.30
  -2  15 -13    6.03   41.65
  -1 -16  13   29.12   27.81
   1  16 -13   70.85   38.68
  -1  16  13   28.23   35.42
   0  16 -13   -6.27   31.88
   0  16  13  -41.17   31.88
   0 -16  13  -24.68   28.50
   1  16  13   35.45   36.01
  -1  16 -13   60.73   39.35
   1 -16  13  -31.26   26.20
  -1 -17  13    2.61   27.56
   0  17  13    8.46   34.10
   0  17 -13   38.34   29.89
   0 -17  13  -29.43   26.50
  -4   0  14   23.65   31.74
  -3   0  14   45.86   32.73
  -2   0  14   63.14   29.56
  -1   0  14  -15.71   26.04
   0   0  14   44.63   25.44
   0   0 -14   43.34   43.95
   1   0  14   82.26   28.84
  -1   0 -14  106.99   56.88
   2   0  14  -38.98   32.77
  -2   0 -14   21.00   61.37
   3   0  14   -8.71   32.87
  -3   0 -14  -83.34   62.14
  -4   1  14   47.50   35.31
  -4  -1  14   71.59   36.04
  -3  -1  14   23.83   29.34
  -3   1  14   36.05   30.74
  -2  -1  14   46.72   28.60
  -2   1  14   22.83   25.82
  -1  -1  14    3.72   23.24
   1   1 -14  103.68   37.06
  -1   1  14   35.82   27.48
   0  -1  14   19.02   25.34
   0   1 -14   73.15   45.33
   0   1  14   42.55   26.11
   0  -1 -14   65.06   40.79
  -1   1 -14    5.48   54.59
   1   1  14   31.84   30.52
   1  -1  14   41.31   27.86
  -1  -1 -14   14.00   54.99
   1   1  14   65.53   28.62
   2  -1  14   70.08   35.01
   2   1  14    9.26   31.08
  -2  -1 -14   13.70   55.06
  -2   1 -14  -53.09   51.93
   3  -1  14   -6.72   34.71
   3   1  14   34.33   36.68
  -3   1 -14  -17.83   58.90
  -3  -1 -14  -58.46   60.55
  -4   2  14   48.82   34.83
  -4  -2  14   24.96   30.71
  -3   2  14   44.55   31.38
  -3  -2  14   38.60   27.50
  -2   2  14   88.17   34.09
  -2  -2  14   35.57   26.54
  -1   2  14   19.86   27.71
   1   2 -14  146.04   42.26
  -1  -2  14   -9.63   23.61
   0  -2 -14   36.39   40.85
   0  -2  14   11.38   25.52
   0   2 -14   77.89   42.91
   0   2  14  -13.63   21.23
   1   2  14   35.47   31.84
  -1   2 -14   11.94   50.17
   1  -2  14   66.48   34.34
  -1  -2 -14  -51.72   47.04
  -2  -2 -14  -25.46   55.11
   2  -2  14   45.01   34.19
   2   2  14   48.05   34.49
  -2   2 -14   -7.18   59.78
  -3  -2 -14   -8.38   63.70
  -3   2 -14  -29.27   54.97
   3   2  14  -54.43   31.81
   3  -2  14   59.00   39.53
  -4  -3  14   77.25   38.92
  -4   3  14  -38.95   30.47
  -3   3  14   -1.11   27.54
  -3  -3  14    2.77   26.46
  -2  -3  14    4.76   28.27
  -2   3  14   68.16   29.90
  -1   3  14   26.90   28.34
  -1  -3  14    9.35   28.92
   1   3 -14  101.16   38.28
   0   3 -14  113.02   45.52
   0  -3  14   12.07   26.44
   0   3  14   35.33   27.07
  -1   3 -14  -25.08   49.17
   1   3  14   -2.33   31.59
   1  -3  14    9.68   27.35
  -1  -3 -14  -39.39   46.00
   2  -3  14  -42.29   29.53
   2   3  14  -11.19   31.26
  -2  -3 -14  -35.03   53.39
  -2   3 -14   22.70   55.44
  -3   3 -14   60.75   60.50
  -3  -3 -14  -46.55   65.14
   3  -3  14   31.61   36.75
   3   3  14   36.30   32.57
  -3   4  14  107.65   32.31
  -3  -4  14   -1.67   25.72
   2   4 -14   89.40   38.06
  -2  -4  14   19.75   26.82
  -2   4  14  105.97   32.11
  -1   4  14   39.12   24.87
   1   4 -14  114.16   43.97
  -1  -4  14   34.46   27.76
   0   4  14   -7.34   21.35
   0   4 -14   85.17   48.25
   0  -4  14   24.67   29.91
  -1   4 -14  102.20   54.48
  -1  -4 -14   22.03   46.43
   1  -4  14    5.63   25.88
   1   4  14   25.04   33.60
   2   4  14  -36.68   32.29
  -2   4 -14   48.73   57.85
  -2  -4 -14  -76.77   54.35
   2  -4  14    8.00   33.62
  -3  -4 -14  -99.06   56.83
   3   4  14   41.48   37.03
  -3   4 -14  -44.68   56.33
   3  -4  14   76.43   37.64
  -3  -5  14   52.81   30.19
  -3   5  14  -23.05   29.37
  -2   5  14   22.77   25.94
  -2  -5  14   29.27   27.35
   2   5 -14   73.66   38.51
   1   5 -14  101.81   43.07
  -1   5  14   54.73   26.13
  -1  -5  14   30.56   27.26
   0   5 -14  -15.49   41.97
   0  -5  14    4.12   27.98
   1   5  14    9.71   31.29
  -1   5 -14   71.00   50.31
   1  -5  14   26.46   31.86
  -1  -5 -14   32.29   45.23
   2  -5  14   55.68   31.59
  -2  -5 -14  -16.16   55.06
  -2   5 -14   54.50   55.43
   2   5  14   -8.84   34.04
   3  -5  14   42.13   33.58
  -3  -5 -14   19.03   64.87
   3   5  14   49.81   35.21
  -3   5 -14   -2.24   56.37
  -3  -6  14   17.91   30.79
  -3   6  14   -5.94   29.52
  -2  -6  14   35.21   27.08
   2   6 -14   97.50   38.71
  -2   6  14   69.79   36.97
  -1   6  14    1.37   23.94
   1   6 -14  122.27   39.85
  -1  -6  14    4.37   26.05
   0   6 -14   70.91   47.00
   0   6  14   71.22   34.03
   0  -6  14   29.21   32.31
  -1   6 -14   24.72   48.44
   1   6  14    7.92   32.20
   1  -6  14    6.48   34.70
   2  -6  14   28.90   35.14
  -2  -6 -14  -26.39   57.30
   2   6  14  -70.78   29.48
  -2   6 -14  -19.34   48.64
  -3   6 -14   66.24   63.89
   3   6  14   72.96   36.24
  -3  -6 -14  -29.47   56.36
  -3  -7  14   -3.06   26.39
  -3   7  14    9.21   33.29
   2   7 -14   93.65   37.94
  -2  -7  14  -27.13   26.10
  -2   7  14   12.57   28.94
   1   7 -14   67.36   39.74
  -1   7  14   22.95   26.31
  -1  -7  14   -9.90   27.94
   0   7  14   91.55   33.99
   0  -7  14   76.51   31.28
   0   7 -14   28.96   40.26
  -1   7 -14   82.27   53.69
   1   7  14   65.62   36.38
   1  -7  14   21.45   33.03
   2   7  14  -26.30   27.86
   2  -7  14   51.12   36.45
  -2   7 -14   56.83   52.82
  -2  -7 -14  -25.55   55.43
  -3  -7 -14   20.64   64.72
  -3   7 -14  -35.20   56.52
   3   7  14    6.22   33.80
   3   8 -14   78.54   48.21
  -3  -8  14    1.56   31.04
  -3   8  14  -47.52   27.97
  -2  -8  14   -0.79   26.08
  -2   8  14  -12.75   27.66
   2   8 -14   69.53   43.10
  -1   8  14   41.07   24.88
  -1  -8  14    1.21   30.79
   1   8 -14  101.14   40.15
   0  -8  14   27.71   28.47
   0   8 -14   69.56   44.57
   0   8  14   78.75   35.99
   1  -8  14   -8.53   34.11
   1   8  14  -16.97   31.10
  -1   8 -14   48.05   43.58
  -2   8 -14    5.73   47.00
   2   8  14   25.41   31.83
   2  -8  14   -2.24   35.43
  -3   9  14  -21.15   32.19
  -3  -9  14   -6.32   27.96
   3   9 -14   -8.12   47.62
   2   9 -14   40.46   42.07
  -2  -9  14   23.03   30.08
  -2   9  14  -16.74   28.83
  -1  -9  14    5.61   29.55
   1   9 -14  136.44   40.41
   0   9  14   46.56   35.04
   0   9 -14  153.25   50.16
   0  -9  14   32.66   30.61
   1  -9  14    8.81   32.82
  -1   9 -14   73.08   45.95
   1   9  14    3.03   32.96
   2   9  14   35.59   34.89
   2  -9  14  -72.35   29.88
  -2   9 -14   32.50   46.56
  -2  10  14   19.96   29.17
   2  10 -14   65.95   39.63
  -2 -10  14    8.76   32.40
   1  10 -14   -8.95   37.40
  -1 -10  14   36.03   30.84
  -1  10  14   20.95   34.07
   0 -10  14   -9.68   24.85
   0  10 -14   56.16   39.50
   0  10  14   12.41   32.69
   1  10  14   32.65   35.47
   1 -10  14  -20.34   31.80
  -1  10 -14   91.61   49.00
  -2  10 -14   35.28   46.26
   2 -10  14   45.49   37.90
   2  10  14   79.30   37.43
  -2  11  14  -27.06   31.00
  -2 -11  14  -28.35   28.62
   2  11 -14  120.37   55.49
  -1  11  14  -16.16   32.71
  -1 -11  14   18.16   31.96
   1  11 -14   64.83   41.31
   0  11 -14   81.81   41.65
   0 -11  14  -25.87   31.75
   0  11  14    5.32   32.77
   1 -11  14   22.06   33.35
  -1  11 -14  105.70   49.42
   1  11  14  -17.69   30.61
  -2  11 -14    0.68   46.77
   2 -11  14   -0.25   34.14
   2  11  14   46.19   36.04
   2  12 -14   51.38   42.62
  -2 -12  14   38.25   34.82
  -1  12  14  -10.16   34.50
   1  12 -14   30.39   34.91
  -1 -12  14  -13.27   29.77
   0  12  14   -1.72   34.22
   0 -12  14   -4.55   31.75
   0  12 -14   96.51   37.28
   1 -12  14   10.07   33.56
   1  12  14   -0.12   31.63
  -1  12 -14   37.55   43.13
  -1  13  14  -18.61   34.23
   1  13 -14   98.49   40.62
  -1 -13  14   59.42   32.63
   0 -13  14  -26.96   30.66
   0  13 -14   76.05   41.13
   0  13  14   -4.43   33.49
   1 -13  14  -46.14   30.41
  -1  13 -14   72.80   41.88
   1  13  14   98.97   38.23
   0 -14  14   50.96   34.41
   0  14 -14  182.43   45.64
  -2   0  15   63.63   31.23
  -1   0  15   50.06   28.99
   0   0 -15  115.01   46.17
   0   0  15   18.84   28.14
  -1   0 -15  -11.89   51.46
  -2   0 -15  -33.89   57.23
  -2   1  15   79.31   33.36
  -2  -1  15  123.34   33.32
  -1   1  15   92.79   35.02
  -1  -1  15   64.29   31.47
   0  -1  15   -1.65   27.39
   0   1  15   64.55   31.01
   0   1 -15   75.36   45.43
  -1  -1 -15  -30.39   50.09
   1  -1  15   37.55   30.07
  -1   1 -15   95.16   56.08
  -2  -1 -15   30.57   61.01
   2   1  15    1.50   38.68
  -2   1 -15   42.25   62.30
  -2   2  15   80.46   30.52
  -2  -2  15   58.49   33.49
  -1   2  15   59.97   28.71
  -1  -2  15   23.32   28.04
   0  -2  15   40.00   32.15
   0   2 -15   59.87   46.43
   0   2  15   29.27   27.10
  -1  -2 -15  -40.46   50.48
   1  -2  15   -7.69   30.75
  -1   2 -15   53.28   51.19
  -2  -2 -15   20.08   64.80
  -2   2 -15   41.88   61.98
   2   2  15   53.12   38.55
  -2  -3  15   19.29   32.53
  -2   3  15   77.74   32.66
  -1   3  15   58.45   30.06
   1   3 -15   79.04   38.48
  -1  -3  15   23.65   30.82
   0  -3  15  -39.32   28.84
   0   3 -15   49.01   43.97
  -1   3 -15   14.70   47.61
   1  -3  15   -3.36   33.23
  -2  -3 -15   99.92   63.91
  -2   3 -15  113.17   65.86
   2   3  15  -33.66   34.42
  -2  -4  15   43.68   31.76
  -2   4  15   39.22   32.71
   1   4 -15  134.13   43.40
  -1  -4  15   18.47   29.24
   0  -4  15   -8.15   29.90
   0   4 -15  124.02   47.05
  -1   4 -15    6.18   46.88
   1  -4  15    8.13   34.22
   2   4  15   68.36   38.79
  -2  -4 -15  -25.36   60.14
  -2   4 -15  -31.04   52.30
  -2  -5  15   -8.41   30.87
  -2   5  15   39.53   29.25
   1   5 -15   84.74   43.47
  -1  -5  15   35.09   29.68
  -1   5  15   47.58   30.14
   0  -5  15    6.64   28.91
   0   5 -15  143.49   53.33
  -1   5 -15   79.44   52.63
   1  -5  15  -10.19   32.75
   1   5  15   28.44   35.94
  -2  -5 -15  -50.61   55.93
  -2   5 -15  -22.67   51.12
   2   5  15   53.71   40.86
  -2   6  15  120.91   33.95
  -2  -6  15  -26.79   28.38
  -1  -6  15   22.17   31.43
  -1   6  15   72.30   31.90
   1   6 -15  127.73   42.95
   0   6 -15  108.61   46.15
   0  -6  15   65.36   34.80
   1   6  15   29.36   34.45
  -1   6 -15   44.40   48.94
   1  -6  15  -23.46   33.24
  -2   7  15   54.54   34.71
   2   7 -15  174.06   49.39
  -2  -7  15    7.77   32.57
   1   7 -15  125.85   41.07
  -1  -7  15  -19.05   28.05
   0  -7  15   -0.75   31.98
   0   7 -15  123.92   46.91
   1   7  15    0.08   33.84
   1  -7  15  -46.41   34.34
  -1   7 -15   80.31   49.92
  -1  -8  15  -15.47   32.87
   1   8 -15  123.65   44.31
   0  -8  15   12.59   32.80
   0   8 -15   99.55   47.56
  -1   8 -15   71.29   43.36
   1  -8  15   -4.21   36.83
   1   8  15  -46.26   34.75
  -1  -9  15   -0.21   31.81
   1   9 -15   -0.10   39.36
   0   9 -15  126.97   47.34
   0   9  15  -29.16   35.00
   0  -9  15   18.42   33.81
   0   0   0    0.00    0.00
;
_shelx_hkl_checksum              71308
_olex2_computing_structure_refinement_long 'ShelXL (Sheldrick, 2008)'
#END Tags that were not found in dictionaries
loop_
_space_group_symop_operation_xyz
'x, y, z'
'-x, y+1/2, -z'
loop_
_atom_site_label
_atom_site_type_symbol
_atom_site_fract_x
_atom_site_fract_y
_atom_site_fract_z
_atom_site_U_iso_or_equiv
_atom_site_adp_type
_atom_site_occupancy
_atom_site_site_symmetry_order
_atom_site_calc_flag
_atom_site_refinement_flags_posn
S1 S 0.6493(3) 0.31825(9) 0.4754(2) 0.0313(5) Uani 1 1 d .
C11 C 0.5371(13) 0.3895(3) 0.5243(7) 0.0289(19) Uani 1 1 d .
C12 C 0.4000(15) 0.3793(4) 0.6261(7) 0.037(2) Uani 1 1 d .
H12A H 0.4849 0.3562 0.6818 0.056 Uiso 1 1 calc GR
H12B H 0.2666 0.3574 0.6039 0.056 Uiso 1 1 calc GR
H12C H 0.3599 0.4178 0.6582 0.056 Uiso 1 1 calc GR
C13 C 0.7383(14) 0.4267(4) 0.5548(9) 0.047(3) Uani 1 1 d .
H13A H 0.8369 0.4273 0.4918 0.070 Uiso 1 1 calc GR
H13B H 0.8148 0.4094 0.6204 0.070 Uiso 1 1 calc GR
H13C H 0.6929 0.4675 0.5720 0.070 Uiso 1 1 calc GR
C14 C 0.4071(16) 0.4179(4) 0.4290(7) 0.041(2) Uani 1 1 d .
H14A H 0.3607 0.4579 0.4512 0.062 Uiso 1 1 calc GR
H14B H 0.2776 0.3936 0.4106 0.062 Uiso 1 1 calc GR
H14C H 0.4987 0.4208 0.3635 0.062 Uiso 1 1 calc GR
C15 C 0.4326(12) 0.2251(3) 0.3889(7) 0.0241(18) Uani 1 1 d .
H15 H 0.5206 0.2330 0.3214 0.029 Uiso 1 1 calc R
C16 C 0.2035(12) 0.2062(3) 0.3511(7) 0.0276(18) Uani 1 1 d .
H16A H 0.1153 0.2001 0.4182 0.033 Uiso 1 1 calc R
H16B H 0.2133 0.1674 0.3124 0.033 Uiso 1 1 calc R
C17 C 0.0827(12) 0.2497(4) 0.2737(7) 0.0298(19) Uani 1 1 d .
H17A H -0.0701 0.2361 0.2599 0.036 Uiso 1 1 calc R
H17B H 0.0784 0.2894 0.3093 0.036 Uiso 1 1 calc R
C18 C 0.5451(13) 0.1753(3) 0.4585(7) 0.0281(19) Uani 1 1 d .
H18A H 0.6904 0.1898 0.4859 0.034 Uiso 1 1 calc R
H18B H 0.4565 0.1674 0.5247 0.034 Uiso 1 1 calc R
C19 C 0.5769(12) 0.1177(4) 0.3972(7) 0.0263(18) Uani 1 1 d .
C110 C 0.7417(12) 0.0761(3) 0.2269(7) 0.0273(18) Uani 1 1 d .
C111 C 0.8439(13) 0.1075(4) 0.1300(7) 0.036(2) Uani 1 1 d .
H11A H 0.7376 0.1353 0.0958 0.054 Uiso 1 1 calc GR
H11B H 0.8865 0.0781 0.0742 0.054 Uiso 1 1 calc GR
H11C H 0.9740 0.1295 0.1569 0.054 Uiso 1 1 calc GR
C112 C 0.5386(13) 0.0415(4) 0.1892(7) 0.036(2) Uani 1 1 d .
H11D H 0.4843 0.0186 0.2523 0.054 Uiso 1 1 calc GR
H11E H 0.5757 0.0143 0.1287 0.054 Uiso 1 1 calc GR
H11F H 0.4247 0.0692 0.1623 0.054 Uiso 1 1 calc GR
C113 C 0.9083(13) 0.0366(4) 0.2914(8) 0.038(2) Uani 1 1 d .
H11G H 1.0381 0.0602 0.3128 0.057 Uiso 1 1 calc GR
H11H H 0.9515 0.0034 0.2438 0.057 Uiso 1 1 calc GR
H11I H 0.8415 0.0210 0.3588 0.057 Uiso 1 1 calc GR
N11 N 0.4181(9) 0.2803(3) 0.4545(6) 0.0247(15) Uani 1 1 d D
H11 H 0.342(12) 0.269(4) 0.509(5) 0.037 Uiso 1 1 d DR
O11 O 0.7719(9) 0.2943(3) 0.5787(6) 0.0504(18) Uani 1 1 d .
O12 O 0.1911(8) 0.2536(3) 0.1708(4) 0.0375(15) Uani 1 1 d .
H12 H 0.0990 0.2612 0.1190 0.056 Uiso 1 1 calc GR
O13 O 0.5178(9) 0.0692(2) 0.4291(5) 0.0327(14) Uani 1 1 d .
O14 O 0.6821(8) 0.1263(2) 0.3006(4) 0.0255(12) Uani 1 1 d .
S2 S 0.6858(3) 0.29639(8) 0.93523(18) 0.0260(5) Uani 1 1 d .
C21 C 0.6026(11) 0.3658(3) 1.0047(7) 0.0255(18) Uani 1 1 d .
C22 C 0.6169(15) 0.3605(4) 1.1301(8) 0.046(2) Uani 1 1 d .
H22A H 0.5586 0.3968 1.1637 0.069 Uiso 1 1 calc GR
H22B H 0.7704 0.3552 1.1548 0.069 Uiso 1 1 calc GR
H22C H 0.5309 0.3261 1.1536 0.069 Uiso 1 1 calc GR
C23 C 0.7605(13) 0.4130(4) 0.9621(9) 0.042(2) Uani 1 1 d .
H23A H 0.7527 0.4137 0.8801 0.064 Uiso 1 1 calc GR
H23B H 0.9106 0.4035 0.9879 0.064 Uiso 1 1 calc GR
H23C H 0.7194 0.4522 0.9909 0.064 Uiso 1 1 calc GR
C24 C 0.3664(12) 0.3818(4) 0.9639(8) 0.037(2) Uani 1 1 d .
H24A H 0.2629 0.3532 0.9947 0.055 Uiso 1 1 calc GR
H24B H 0.3564 0.3803 0.8820 0.055 Uiso 1 1 calc GR
H24C H 0.3302 0.4220 0.9892 0.055 Uiso 1 1 calc GR
C25 C 0.4492(12) 0.1977(3) 0.9022(7) 0.0241(18) Uani 1 1 d .
H25 H 0.5908 0.1753 0.9085 0.029 Uiso 1 1 calc R
C26 C 0.3968(11) 0.2094(3) 0.7801(7) 0.0282(19) Uani 1 1 d .
H26A H 0.3954 0.1708 0.7404 0.034 Uiso 1 1 calc R
H26B H 0.5177 0.2333 0.7501 0.034 Uiso 1 1 calc R
C27 C 0.1810(12) 0.2413(4) 0.7517(6) 0.0271(18) Uani 1 1 d .
H27A H 0.0587 0.2212 0.7889 0.033 Uiso 1 1 calc R
H27B H 0.1886 0.2830 0.7780 0.033 Uiso 1 1 calc R
C28 C 0.2709(12) 0.1611(3) 0.9617(7) 0.0281(19) Uani 1 1 d .
H28A H 0.3204 0.1528 1.0398 0.034 Uiso 1 1 calc R
H28B H 0.1334 0.1845 0.9635 0.034 Uiso 1 1 calc R
C29 C 0.2288(12) 0.1035(3) 0.9008(7) 0.0270(18) Uani 1 1 d .
C210 C -0.0214(14) 0.0585(4) 0.7538(7) 0.034(2) Uani 1 1 d .
C211 C -0.2150(17) 0.0873(4) 0.6924(10) 0.064(3) Uani 1 1 d .
H21A H -0.1718 0.1265 0.6650 0.096 Uiso 1 1 calc GR
H21B H -0.3362 0.0918 0.7435 0.096 Uiso 1 1 calc GR
H21C H -0.2622 0.0623 0.6290 0.096 Uiso 1 1 calc GR
C212 C 0.1596(15) 0.0456(6) 0.6761(10) 0.081(4) Uani 1 1 d .
H21D H 0.2112 0.0830 0.6438 0.121 Uiso 1 1 calc GR
H21E H 0.1052 0.0193 0.6160 0.121 Uiso 1 1 calc GR
H21F H 0.2811 0.0262 0.7175 0.121 Uiso 1 1 calc GR
C213 C -0.0933(19) 0.0061(5) 0.8192(10) 0.069(4) Uani 1 1 d .
H21G H -0.1786 -0.0208 0.7701 0.104 Uiso 1 1 calc GR
H21H H -0.1845 0.0194 0.8803 0.104 Uiso 1 1 calc GR
H21I H 0.0357 -0.0149 0.8503 0.104 Uiso 1 1 calc GR
N21 N 0.4745(10) 0.2539(3) 0.9660(6) 0.0253(15) Uani 1 1 d D
H21 H 0.472(14) 0.251(4) 1.040(3) 0.038 Uiso 1 1 d DR
O21 O 0.8928(7) 0.2772(3) 0.9978(5) 0.0363(15) Uani 1 1 d .
O22 O 0.1454(8) 0.2397(2) 0.6341(4) 0.0282(13) Uani 1 1 d .
H22 H 0.0834 0.2713 0.6128 0.042 Uiso 1 1 calc GR
O23 O 0.3417(9) 0.0595(2) 0.9101(6) 0.0465(17) Uani 1 1 d .
O24 O 0.0478(8) 0.1069(2) 0.8340(5) 0.0286(13) Uani 1 1 d .
loop_
_atom_site_aniso_label
_atom_site_aniso_U_11
_atom_site_aniso_U_22
_atom_site_aniso_U_33
_atom_site_aniso_U_23
_atom_site_aniso_U_13
_atom_site_aniso_U_12
S1 0.0148(9) 0.0260(10) 0.0531(14) -0.0077(11) -0.0006(9) 0.0006(8)
C11 0.025(4) 0.021(4) 0.040(5) -0.004(4) -0.002(4) -0.001(3)
C12 0.043(5) 0.027(4) 0.042(6) -0.006(4) 0.004(4) 0.003(4)
C13 0.031(5) 0.027(5) 0.083(8) -0.011(5) 0.000(5) -0.006(4)
C14 0.048(6) 0.035(5) 0.039(6) 0.006(4) -0.008(5) 0.012(4)
C15 0.021(4) 0.023(4) 0.028(5) -0.001(3) -0.001(3) -0.003(3)
C16 0.025(4) 0.026(4) 0.031(5) -0.005(4) 0.000(4) -0.005(3)
C17 0.015(4) 0.034(5) 0.039(5) -0.001(4) -0.003(4) 0.000(3)
C18 0.028(4) 0.029(5) 0.027(5) 0.000(4) 0.001(4) 0.000(4)
C19 0.023(4) 0.030(5) 0.026(5) 0.000(4) -0.002(3) 0.006(4)
C110 0.023(4) 0.024(4) 0.034(5) -0.003(4) -0.003(4) 0.001(3)
C111 0.026(4) 0.042(5) 0.041(5) -0.007(4) 0.010(4) -0.009(4)
C112 0.030(5) 0.036(5) 0.042(6) 0.001(4) -0.004(4) -0.006(4)
C113 0.023(4) 0.033(5) 0.058(6) 0.001(4) 0.001(4) 0.003(4)
N11 0.014(3) 0.023(4) 0.038(4) -0.005(3) 0.004(3) 0.000(3)
O11 0.034(3) 0.035(3) 0.080(5) -0.008(4) -0.032(3) 0.007(3)
O12 0.018(3) 0.068(4) 0.026(3) 0.001(3) 0.004(2) 0.003(3)
O13 0.030(3) 0.028(3) 0.041(4) 0.004(3) 0.004(3) -0.002(3)
O14 0.023(3) 0.020(3) 0.034(3) -0.006(2) 0.001(2) 0.001(2)
S2 0.0148(9) 0.0261(10) 0.0371(12) 0.0000(9) -0.0011(8) -0.0001(8)
C21 0.013(4) 0.024(4) 0.040(5) -0.006(4) -0.002(3) 0.003(3)
C22 0.043(6) 0.046(6) 0.049(6) -0.017(5) -0.006(5) -0.001(5)
C23 0.021(4) 0.030(5) 0.076(7) -0.004(5) -0.007(4) -0.004(4)
C24 0.015(4) 0.031(5) 0.063(7) -0.004(4) -0.001(4) 0.004(3)
C25 0.016(4) 0.023(4) 0.034(5) -0.002(4) 0.000(3) 0.005(3)
C26 0.013(4) 0.027(4) 0.045(5) 0.003(4) 0.001(3) 0.001(3)
C27 0.021(4) 0.030(4) 0.031(5) 0.002(4) 0.000(3) 0.002(3)
C28 0.021(4) 0.019(4) 0.044(5) 0.000(4) -0.002(4) 0.000(3)
C29 0.024(4) 0.019(4) 0.038(5) 0.004(4) 0.000(4) 0.000(3)
C210 0.029(4) 0.032(4) 0.040(5) -0.009(4) -0.011(4) 0.001(4)
C211 0.058(7) 0.044(6) 0.087(8) -0.017(6) -0.045(6) 0.014(5)
C212 0.032(6) 0.124(11) 0.087(9) -0.066(9) 0.016(6) -0.020(7)
C213 0.065(8) 0.045(6) 0.095(10) 0.008(6) -0.040(7) -0.019(6)
N21 0.015(3) 0.024(3) 0.037(4) 0.006(3) 0.000(3) 0.000(3)
O21 0.008(2) 0.045(4) 0.055(4) 0.000(3) -0.010(3) 0.007(2)
O22 0.026(3) 0.034(3) 0.025(3) 0.001(3) -0.003(2) 0.004(2)
O23 0.030(3) 0.024(3) 0.084(5) -0.006(3) -0.021(3) 0.006(3)
O24 0.020(3) 0.024(3) 0.042(4) -0.002(3) -0.009(2) 0.001(2)
loop_
_atom_type_symbol
_atom_type_description
_atom_type_scat_dispersion_real
_atom_type_scat_dispersion_imag
_atom_type_scat_source
C C 0.0033 0.0016 'International Tables Vol C Tables 4.2.6.8 and 6.1.1.4'
H H 0.0000 0.0000 'International Tables Vol C Tables 4.2.6.8 and 6.1.1.4'
N N 0.0061 0.0033 'International Tables Vol C Tables 4.2.6.8 and 6.1.1.4'
O O 0.0106 0.0060 'International Tables Vol C Tables 4.2.6.8 and 6.1.1.4'
S S 0.1246 0.1234 'International Tables Vol C Tables 4.2.6.8 and 6.1.1.4'
loop_
_geom_angle_atom_site_label_1
_geom_angle_atom_site_label_2
_geom_angle_atom_site_label_3
_geom_angle
N11 S1 C11 99.9(3)
O11 S1 C11 103.1(4)
O11 S1 N11 109.5(4)
C12 C11 S1 110.2(6)
C12 C11 C13 110.6(7)
C13 C11 S1 104.4(5)
C14 C11 S1 108.6(6)
C14 C11 C12 112.3(7)
C14 C11 C13 110.3(8)
C11 C12 H12A 109.5
C11 C12 H12B 109.5
C11 C12 H12C 109.5
H12A C12 H12B 109.5
H12A C12 H12C 109.5
H12B C12 H12C 109.5
C11 C13 H13A 109.5
C11 C13 H13B 109.5
C11 C13 H13C 109.5
H13A C13 H13B 109.5
H13A C13 H13C 109.5
H13B C13 H13C 109.5
C11 C14 H14A 109.5
C11 C14 H14B 109.5
C11 C14 H14C 109.5
H14A C14 H14B 109.5
H14A C14 H14C 109.5
H14B C14 H14C 109.5
C16 C15 H15 108.9
C16 C15 C18 110.3(6)
C18 C15 H15 108.9
N11 C15 H15 108.9
N11 C15 C16 108.9(6)
N11 C15 C18 111.0(6)
C15 C16 H16A 108.5
C15 C16 H16B 108.5
C15 C16 C17 115.1(6)
H16A C16 H16B 107.5
C17 C16 H16A 108.5
C17 C16 H16B 108.5
C16 C17 H17A 109.7
C16 C17 H17B 109.7
H17A C17 H17B 108.2
O12 C17 C16 109.8(6)
O12 C17 H17A 109.7
O12 C17 H17B 109.7
C15 C18 H18A 108.5
C15 C18 H18B 108.5
H18A C18 H18B 107.5
C19 C18 C15 115.1(6)
C19 C18 H18A 108.5
C19 C18 H18B 108.5
O13 C19 C18 125.2(7)
O13 C19 O14 123.4(7)
O14 C19 C18 111.4(7)
C111 C110 C112 111.4(7)
C111 C110 C113 111.9(7)
C112 C110 C113 111.9(7)
O14 C110 C111 102.5(6)
O14 C110 C112 110.7(6)
O14 C110 C113 108.2(6)
C110 C111 H11A 109.5
C110 C111 H11B 109.5
C110 C111 H11C 109.5
H11A C111 H11B 109.5
H11A C111 H11C 109.5
H11B C111 H11C 109.5
C110 C112 H11D 109.5
C110 C112 H11E 109.5
C110 C112 H11F 109.5
H11D C112 H11E 109.5
H11D C112 H11F 109.5
H11E C112 H11F 109.5
C110 C113 H11G 109.5
C110 C113 H11H 109.5
C110 C113 H11I 109.5
H11G C113 H11H 109.5
H11G C113 H11I 109.5
H11H C113 H11I 109.5
S1 N11 H11 121(6)
C15 N11 S1 116.6(5)
C15 N11 H11 101(6)
C17 O12 H12 109.5
C19 O14 C110 122.0(6)
N21 S2 C21 99.2(3)
O21 S2 C21 104.8(3)
O21 S2 N21 111.7(3)
C22 C21 S2 112.0(6)
C22 C21 C23 111.7(7)
C22 C21 C24 110.8(7)
C23 C21 S2 104.5(5)
C23 C21 C24 108.8(7)
C24 C21 S2 108.7(5)
C21 C22 H22A 109.5
C21 C22 H22B 109.5
C21 C22 H22C 109.5
H22A C22 H22B 109.5
H22A C22 H22C 109.5
H22B C22 H22C 109.5
C21 C23 H23A 109.5
C21 C23 H23B 109.5
C21 C23 H23C 109.5
H23A C23 H23B 109.5
H23A C23 H23C 109.5
H23B C23 H23C 109.5
C21 C24 H24A 109.5
C21 C24 H24B 109.5
C21 C24 H24C 109.5
H24A C24 H24B 109.5
H24A C24 H24C 109.5
H24B C24 H24C 109.5
C26 C25 H25 108.4
C26 C25 C28 114.0(6)
C28 C25 H25 108.4
N21 C25 H25 108.4
N21 C25 C26 111.4(6)
N21 C25 C28 106.1(6)
C25 C26 H26A 108.1
C25 C26 H26B 108.1
C25 C26 C27 116.8(7)
H26A C26 H26B 107.3
C27 C26 H26A 108.1
C27 C26 H26B 108.1
C26 C27 H27A 110.1
C26 C27 H27B 110.1
H27A C27 H27B 108.4
O22 C27 C26 108.2(6)
O22 C27 H27A 110.1
O22 C27 H27B 110.1
C25 C28 H28A 109.6
C25 C28 H28B 109.6
H28A C28 H28B 108.1
C29 C28 C25 110.1(7)
C29 C28 H28A 109.6
C29 C28 H28B 109.6
O23 C29 C28 124.9(7)
O23 C29 O24 123.9(7)
O24 C29 C28 111.2(6)
C212 C210 C211 111.1(9)
C212 C210 O24 109.8(7)
C213 C210 C211 110.8(8)
C213 C210 C212 114.3(10)
C213 C210 O24 108.6(7)
O24 C210 C211 101.4(7)
C210 C211 H21A 109.5
C210 C211 H21B 109.5
C210 C211 H21C 109.5
H21A C211 H21B 109.5
H21A C211 H21C 109.5
H21B C211 H21C 109.5
C210 C212 H21D 109.5
C210 C212 H21E 109.5
C210 C212 H21F 109.5
H21D C212 H21E 109.5
H21D C212 H21F 109.5
H21E C212 H21F 109.5
C210 C213 H21G 109.5
C210 C213 H21H 109.5
C210 C213 H21I 109.5
H21G C213 H21H 109.5
H21G C213 H21I 109.5
H21H C213 H21I 109.5
S2 N21 H21 108(6)
C25 N21 S2 116.5(5)
C25 N21 H21 116(6)
C27 O22 H22 109.5
C29 O24 C210 123.1(6)
loop_
_geom_bond_atom_site_label_1
_geom_bond_atom_site_label_2
_geom_bond_distance
S1 C11 1.844(8)
S1 N11 1.659(6)
S1 O11 1.522(6)
C11 C12 1.516(11)
C11 C13 1.520(11)
C11 C14 1.509(11)
C12 H12A 0.9800
C12 H12B 0.9800
C12 H12C 0.9800
C13 H13A 0.9800
C13 H13B 0.9800
C13 H13C 0.9800
C14 H14A 0.9800
C14 H14B 0.9800
C14 H14C 0.9800
C15 H15 1.0000
C15 C16 1.515(10)
C15 C18 1.543(10)
C15 N11 1.472(9)
C16 H16A 0.9900
C16 H16B 0.9900
C16 C17 1.520(11)
C17 H17A 0.9900
C17 H17B 0.9900
C17 O12 1.419(9)
C18 H18A 0.9900
C18 H18B 0.9900
C18 C19 1.504(11)
C19 O13 1.212(9)
C19 O14 1.355(9)
C110 C111 1.510(11)
C110 C112 1.519(11)
C110 C113 1.538(11)
C110 O14 1.483(9)
C111 H11A 0.9800
C111 H11B 0.9800
C111 H11C 0.9800
C112 H11D 0.9800
C112 H11E 0.9800
C112 H11F 0.9800
C113 H11G 0.9800
C113 H11H 0.9800
C113 H11I 0.9800
N11 H11 0.85(3)
O12 H12 0.8400
S2 C21 1.846(8)
S2 N21 1.655(6)
S2 O21 1.509(5)
C21 C22 1.504(11)
C21 C23 1.533(11)
C21 C24 1.548(10)
C22 H22A 0.9800
C22 H22B 0.9800
C22 H22C 0.9800
C23 H23A 0.9800
C23 H23B 0.9800
C23 H23C 0.9800
C24 H24A 0.9800
C24 H24B 0.9800
C24 H24C 0.9800
C25 H25 1.0000
C25 C26 1.507(11)
C25 C28 1.554(10)
C25 N21 1.481(10)
C26 H26A 0.9900
C26 H26B 0.9900
C26 C27 1.527(10)
C27 H27A 0.9900
C27 H27B 0.9900
C27 O22 1.417(9)
C28 H28A 0.9900
C28 H28B 0.9900
C28 C29 1.504(11)
C29 O23 1.208(9)
C29 O24 1.343(9)
C210 C211 1.516(12)
C210 C212 1.495(12)
C210 C213 1.488(13)
C210 O24 1.502(9)
C211 H21A 0.9800
C211 H21B 0.9800
C211 H21C 0.9800
C212 H21D 0.9800
C212 H21E 0.9800
C212 H21F 0.9800
C213 H21G 0.9800
C213 H21H 0.9800
C213 H21I 0.9800
N21 H21 0.88(3)
O22 H22 0.8400
loop_
_geom_torsion_atom_site_label_1
_geom_torsion_atom_site_label_2
_geom_torsion_atom_site_label_3
_geom_torsion_atom_site_label_4
_geom_torsion
C11 S1 N11 C15 165.7(6)
C15 C16 C17 O12 65.5(9)
C15 C18 C19 O13 -127.0(8)
C15 C18 C19 O14 53.3(9)
C16 C15 C18 C19 61.8(9)
C16 C15 N11 S1 -164.3(5)
C18 C15 C16 C17 -175.2(7)
C18 C15 N11 S1 74.1(7)
C18 C19 O14 C110 177.4(6)
C111 C110 O14 C19 177.6(6)
C112 C110 O14 C19 58.8(9)
C113 C110 O14 C19 -64.1(8)
N11 S1 C11 C12 57.0(6)
N11 S1 C11 C13 175.8(6)
N11 S1 C11 C14 -66.4(6)
N11 C15 C16 C17 62.8(9)
N11 C15 C18 C19 -177.4(6)
O11 S1 C11 C12 -55.8(6)
O11 S1 C11 C13 63.0(7)
O11 S1 C11 C14 -179.2(6)
O11 S1 N11 C15 -86.6(6)
O13 C19 O14 C110 -2.4(11)
C21 S2 N21 C25 165.6(5)
C25 C26 C27 O22 -170.9(6)
C25 C28 C29 O23 80.5(10)
C25 C28 C29 O24 -99.6(7)
C26 C25 C28 C29 55.5(8)
C26 C25 N21 S2 -66.1(7)
C28 C25 C26 C27 57.0(9)
C28 C25 N21 S2 169.3(5)
C28 C29 O24 C210 173.3(7)
C211 C210 O24 C29 -174.1(8)
C212 C210 O24 C29 -56.4(11)
C213 C210 O24 C29 69.2(10)
N21 S2 C21 C22 70.4(6)
N21 S2 C21 C23 -168.5(5)
N21 S2 C21 C24 -52.4(6)
N21 C25 C26 C27 -63.1(9)
N21 C25 C28 C29 178.5(6)
O21 S2 C21 C22 -45.1(6)
O21 S2 C21 C23 76.0(6)
O21 S2 C21 C24 -167.9(6)
O21 S2 N21 C25 -84.4(6)
O23 C29 O24 C210 -6.8(12)
